<?xml version="1.0" encoding="UTF-8"?>

<!-- generated on 2024-10-16 09:01:29 by Eclipse SUMO sumo Version v1_20_0+0684-f016839ee01
This data file and the accompanying materials
are made available under the terms of the Eclipse Public License v2.0
which accompanies this distribution, and is available at
http://www.eclipse.org/legal/epl-v20.html
This file may also be made available under the following Secondary
Licenses when the conditions for such availability set forth in the Eclipse
Public License 2.0 are satisfied: GNU General Public License, version 2
or later which is available at
https://www.gnu.org/licenses/old-licenses/gpl-2.0-standalone.html
SPDX-License-Identifier: EPL-2.0 OR GPL-2.0-or-later
<configuration xmlns:xsi="http://www.w3.org/2001/XMLSchema-instance" xsi:noNamespaceSchemaLocation="http://sumo.dlr.de/xsd/sumoConfiguration.xsd">

    <input>
        <net-file value="net.net.xml"/>
        <route-files value="input_routes.rou.xml"/>
        <additional-files value="input_additional.add.xml"/>
    </input>

    <output>
        <write-license value="true"/>
        <tripinfo-output value="tripinfos.xml"/>
        <railsignal-block-output value="railsignal_blocks.xml"/>
        <railsignal-vehicle-output value="railsignal_vehicles.xml"/>
    </output>

    <time>
        <end value="200"/>
        <step-length value="3.0"/>
    </time>

    <processing>
        <time-to-teleport.railsignal-deadlock value="200"/>
        <default.speeddev value="0"/>
    </processing>

    <report>
        <xml-validation value="never"/>
        <duration-log.disable value="true"/>
        <no-step-log value="true"/>
    </report>

</configuration>
-->

<railsignal-vehicle-output>
    <railSignal id="gneJ1">
        <link linkIndex="0" from="gneE0_0" to=":gneJ1_0_0">
            <driveWay id="gneJ1.0"/>
        </link>
    </railSignal>
    <railSignal id="gneJ3">
        <link linkIndex="0" from="gneE2_0" to=":gneJ3_0_0">
            <driveWay id="gneJ3.0">
                <entry id="rail1" time="39.00" reason="1"/>
                <exit id="rail1" time="96.00" reason="1"/>
                <entry id="rail2" time="99.00" reason="1"/>
                <exit id="rail2" time="123.00" reason="1"/>
            </driveWay>
        </link>
    </railSignal>
    <railSignal id="gneJ5">
        <link linkIndex="0" from="gneE4_0" to=":gneJ5_0_0">
            <driveWay id="gneJ5.0">
                <entry id="rail1" time="93.00" reason="1"/>
                <exit id="rail1" time="120.00" reason="9"/>
                <entry id="rail2" time="123.00" reason="1"/>
                <exit id="rail2" time="132.00" reason="9"/>
            </driveWay>
        </link>
    </railSignal>
    <departJunction id="gneJ1">
        <driveWay id="gneJ1.d0">
            <entry id="rail1" time="0.00" reason="0"/>
            <exit id="rail1" time="42.00" reason="1"/>
            <entry id="rail2" time="42.00" reason="0"/>
            <exit id="rail2" time="99.00" reason="1"/>
        </driveWay>
    </departJunction>
</railsignal-vehicle-output>
