<?xml version="1.0" encoding="UTF-8"?>

<!-- generated on 2026-05-28T09:16:54.196014+01:00 by Eclipse SUMO sumo v1_27_0+0050-e0968eae5ec
This data file and the accompanying materials
are made available under the terms of the Eclipse Public License v2.0
which accompanies this distribution, and is available at
http://www.eclipse.org/legal/epl-v20.html
This file may also be made available under the following Secondary
Licenses when the conditions for such availability set forth in the Eclipse
Public License 2.0 are satisfied: GNU General Public License, version 2
or later which is available at
https://www.gnu.org/licenses/old-licenses/gpl-2.0-standalone.html
SPDX-License-Identifier: EPL-2.0 OR GPL-2.0-or-later
<sumoConfiguration xmlns:xsi="http://www.w3.org/2001/XMLSchema-instance" xsi:noNamespaceSchemaLocation="http://sumo.dlr.de/xsd/sumoConfiguration.xsd">

    <input>
        <net-file value="net.net.xml"/>
        <route-files value="input_routes.rou.xml"/>
        <additional-files value="input_additional.add.xml"/>
    </input>

    <output>
        <write-license value="true"/>
        <battery-output value="battery.xml"/>
        <battery-output.precision value="4"/>
        <chargingstations-output value="chargingstations.xml"/>
    </output>

    <processing>
        <default.departspeed value="0"/>
        <default.departlane value="first"/>
        <default.speeddev value="0"/>
    </processing>

    <report>
        <xml-validation value="never"/>
        <duration-log.disable value="true"/>
        <no-step-log value="true"/>
    </report>

    <battery>
        <device.battery.probability value="1"/>
    </battery>

</sumoConfiguration>
-->

<battery-export xmlns:xsi="http://www.w3.org/2001/XMLSchema-instance" xsi:noNamespaceSchemaLocation="http://sumo.dlr.de/xsd/battery_file.xsd">
    <timestep time="0.00">
        <vehicle id="veh0" energyConsumed="0.0000" totalEnergyConsumed="0.0000" totalEnergyRegenerated="0.0000" actualBatteryCapacity="13000.0000" maximumBatteryCapacity="35000.0000" chargingStationId="NULL" energyCharged="0.0000" energyChargedInTransit="0.0000" energyChargedStopped="0.0000" speed="0.0000" acceleration="0.0000" x="-987.9000" y="995.0500" lane="D2_0" posOnLane="12.1000" timeStopped="0"/>
    </timestep>
    <timestep time="1.00">
        <vehicle id="veh0" energyConsumed="0.8391" totalEnergyConsumed="0.8391" totalEnergyRegenerated="0.0000" actualBatteryCapacity="12999.1609" maximumBatteryCapacity="35000.0000" chargingStationId="NULL" energyCharged="0.0000" energyChargedInTransit="0.0000" energyChargedStopped="0.0000" speed="1.0000" acceleration="1.0000" x="-986.9000" y="995.0500" lane="D2_0" posOnLane="13.1000" timeStopped="0"/>
    </timestep>
    <timestep time="2.00">
        <vehicle id="veh0" energyConsumed="1.9509" totalEnergyConsumed="2.7900" totalEnergyRegenerated="0.0000" actualBatteryCapacity="12997.2100" maximumBatteryCapacity="35000.0000" chargingStationId="NULL" energyCharged="0.0000" energyChargedInTransit="0.0000" energyChargedStopped="0.0000" speed="2.0000" acceleration="1.0000" x="-984.9000" y="995.0500" lane="D2_0" posOnLane="15.1000" timeStopped="0"/>
    </timestep>
    <timestep time="3.00">
        <vehicle id="veh0" energyConsumed="3.0646" totalEnergyConsumed="5.8546" totalEnergyRegenerated="0.0000" actualBatteryCapacity="12994.1454" maximumBatteryCapacity="35000.0000" chargingStationId="NULL" energyCharged="0.0000" energyChargedInTransit="0.0000" energyChargedStopped="0.0000" speed="3.0000" acceleration="1.0000" x="-981.9000" y="995.0500" lane="D2_0" posOnLane="18.1000" timeStopped="0"/>
    </timestep>
    <timestep time="4.00">
        <vehicle id="veh0" energyConsumed="4.1810" totalEnergyConsumed="10.0355" totalEnergyRegenerated="0.0000" actualBatteryCapacity="12989.9645" maximumBatteryCapacity="35000.0000" chargingStationId="NULL" energyCharged="0.0000" energyChargedInTransit="0.0000" energyChargedStopped="0.0000" speed="4.0000" acceleration="1.0000" x="-977.9000" y="995.0500" lane="D2_0" posOnLane="22.1000" timeStopped="0"/>
    </timestep>
    <timestep time="5.00">
        <vehicle id="veh0" energyConsumed="5.3010" totalEnergyConsumed="15.3366" totalEnergyRegenerated="0.0000" actualBatteryCapacity="12984.6634" maximumBatteryCapacity="35000.0000" chargingStationId="NULL" energyCharged="0.0000" energyChargedInTransit="0.0000" energyChargedStopped="0.0000" speed="5.0000" acceleration="1.0000" x="-972.9000" y="995.0500" lane="D2_0" posOnLane="27.1000" timeStopped="0"/>
        <vehicle id="veh1" energyConsumed="0.0000" totalEnergyConsumed="0.0000" totalEnergyRegenerated="0.0000" actualBatteryCapacity="12000.0000" maximumBatteryCapacity="35000.0000" chargingStationId="NULL" energyCharged="0.0000" energyChargedInTransit="0.0000" energyChargedStopped="0.0000" speed="0.0000" acceleration="0.0000" x="-994.9000" y="995.0500" lane="D2_0" posOnLane="5.1000" timeStopped="0"/>
    </timestep>
    <timestep time="6.00">
        <vehicle id="veh0" energyConsumed="6.4256" totalEnergyConsumed="21.7622" totalEnergyRegenerated="0.0000" actualBatteryCapacity="12978.2378" maximumBatteryCapacity="35000.0000" chargingStationId="NULL" energyCharged="0.0000" energyChargedInTransit="0.0000" energyChargedStopped="0.0000" speed="6.0000" acceleration="1.0000" x="-966.9000" y="995.0500" lane="D2_0" posOnLane="33.1000" timeStopped="0"/>
        <vehicle id="veh1" energyConsumed="0.8391" totalEnergyConsumed="0.8391" totalEnergyRegenerated="0.0000" actualBatteryCapacity="11999.1609" maximumBatteryCapacity="35000.0000" chargingStationId="NULL" energyCharged="0.0000" energyChargedInTransit="0.0000" energyChargedStopped="0.0000" speed="1.0000" acceleration="1.0000" x="-993.9000" y="995.0500" lane="D2_0" posOnLane="6.1000" timeStopped="0"/>
    </timestep>
    <timestep time="7.00">
        <vehicle id="veh0" energyConsumed="7.5557" totalEnergyConsumed="29.3179" totalEnergyRegenerated="0.0000" actualBatteryCapacity="12970.6821" maximumBatteryCapacity="35000.0000" chargingStationId="NULL" energyCharged="0.0000" energyChargedInTransit="0.0000" energyChargedStopped="0.0000" speed="7.0000" acceleration="1.0000" x="-959.9000" y="995.0500" lane="D2_0" posOnLane="40.1000" timeStopped="0"/>
        <vehicle id="veh1" energyConsumed="1.9509" totalEnergyConsumed="2.7900" totalEnergyRegenerated="0.0000" actualBatteryCapacity="11997.2100" maximumBatteryCapacity="35000.0000" chargingStationId="NULL" energyCharged="0.0000" energyChargedInTransit="0.0000" energyChargedStopped="0.0000" speed="2.0000" acceleration="1.0000" x="-991.9000" y="995.0500" lane="D2_0" posOnLane="8.1000" timeStopped="0"/>
    </timestep>
    <timestep time="8.00">
        <vehicle id="veh0" energyConsumed="8.6921" totalEnergyConsumed="38.0100" totalEnergyRegenerated="0.0000" actualBatteryCapacity="12961.9900" maximumBatteryCapacity="35000.0000" chargingStationId="NULL" energyCharged="0.0000" energyChargedInTransit="0.0000" energyChargedStopped="0.0000" speed="8.0000" acceleration="1.0000" x="-951.9000" y="995.0500" lane="D2_0" posOnLane="48.1000" timeStopped="0"/>
        <vehicle id="veh1" energyConsumed="3.0646" totalEnergyConsumed="5.8546" totalEnergyRegenerated="0.0000" actualBatteryCapacity="11994.1454" maximumBatteryCapacity="35000.0000" chargingStationId="NULL" energyCharged="0.0000" energyChargedInTransit="0.0000" energyChargedStopped="0.0000" speed="3.0000" acceleration="1.0000" x="-988.9000" y="995.0500" lane="D2_0" posOnLane="11.1000" timeStopped="0"/>
    </timestep>
    <timestep time="9.00">
        <vehicle id="veh0" energyConsumed="9.8358" totalEnergyConsumed="47.8458" totalEnergyRegenerated="0.0000" actualBatteryCapacity="12952.1542" maximumBatteryCapacity="35000.0000" chargingStationId="NULL" energyCharged="0.0000" energyChargedInTransit="0.0000" energyChargedStopped="0.0000" speed="9.0000" acceleration="1.0000" x="-942.9000" y="995.0500" lane="D2_0" posOnLane="57.1000" timeStopped="0"/>
        <vehicle id="veh1" energyConsumed="4.1810" totalEnergyConsumed="10.0355" totalEnergyRegenerated="0.0000" actualBatteryCapacity="11989.9645" maximumBatteryCapacity="35000.0000" chargingStationId="NULL" energyCharged="0.0000" energyChargedInTransit="0.0000" energyChargedStopped="0.0000" speed="4.0000" acceleration="1.0000" x="-984.9000" y="995.0500" lane="D2_0" posOnLane="15.1000" timeStopped="0"/>
    </timestep>
    <timestep time="10.00">
        <vehicle id="veh0" energyConsumed="4.7420" totalEnergyConsumed="52.5878" totalEnergyRegenerated="0.0000" actualBatteryCapacity="12947.4122" maximumBatteryCapacity="35000.0000" chargingStationId="NULL" energyCharged="0.0000" energyChargedInTransit="0.0000" energyChargedStopped="0.0000" speed="8.9500" acceleration="-0.0500" x="-933.9500" y="995.0500" lane="D2_0" posOnLane="66.0500" timeStopped="0"/>
        <vehicle id="veh1" energyConsumed="5.3010" totalEnergyConsumed="15.3366" totalEnergyRegenerated="0.0000" actualBatteryCapacity="11984.6634" maximumBatteryCapacity="35000.0000" chargingStationId="NULL" energyCharged="0.0000" energyChargedInTransit="0.0000" energyChargedStopped="0.0000" speed="5.0000" acceleration="1.0000" x="-979.9000" y="995.0500" lane="D2_0" posOnLane="20.1000" timeStopped="0"/>
        <vehicle id="veh2" energyConsumed="0.0000" totalEnergyConsumed="0.0000" totalEnergyRegenerated="0.0000" actualBatteryCapacity="10000.0000" maximumBatteryCapacity="35000.0000" chargingStationId="NULL" energyCharged="0.0000" energyChargedInTransit="0.0000" energyChargedStopped="0.0000" speed="0.0000" acceleration="0.0000" x="-994.9000" y="995.0500" lane="D2_0" posOnLane="5.1000" timeStopped="0"/>
    </timestep>
    <timestep time="11.00">
        <vehicle id="veh0" energyConsumed="-10.2873" totalEnergyConsumed="52.5878" totalEnergyRegenerated="10.2873" actualBatteryCapacity="12957.6994" maximumBatteryCapacity="35000.0000" chargingStationId="NULL" energyCharged="0.0000" energyChargedInTransit="0.0000" energyChargedStopped="0.0000" speed="3.9500" acceleration="-5.0000" x="-930.0000" y="995.0500" lane="D2_0" posOnLane="70.0000" timeStopped="0"/>
        <vehicle id="veh1" energyConsumed="6.4256" totalEnergyConsumed="21.7622" totalEnergyRegenerated="0.0000" actualBatteryCapacity="11978.2378" maximumBatteryCapacity="35000.0000" chargingStationId="NULL" energyCharged="0.0000" energyChargedInTransit="0.0000" energyChargedStopped="0.0000" speed="6.0000" acceleration="1.0000" x="-973.9000" y="995.0500" lane="D2_0" posOnLane="26.1000" timeStopped="0"/>
        <vehicle id="veh2" energyConsumed="0.8391" totalEnergyConsumed="0.8391" totalEnergyRegenerated="0.0000" actualBatteryCapacity="9999.1609" maximumBatteryCapacity="35000.0000" chargingStationId="NULL" energyCharged="0.0000" energyChargedInTransit="0.0000" energyChargedStopped="0.0000" speed="1.0000" acceleration="1.0000" x="-993.9000" y="995.0500" lane="D2_0" posOnLane="6.1000" timeStopped="0"/>
    </timestep>
    <timestep time="12.00">
        <vehicle id="veh0" energyConsumed="-2.8147" totalEnergyConsumed="52.5878" totalEnergyRegenerated="13.1020" actualBatteryCapacity="12979.4469" maximumBatteryCapacity="35000.0000" chargingStationId="CS1" energyCharged="18.9328" energyChargedInTransit="0.0000" energyChargedStopped="18.9328" speed="0.0000" acceleration="-3.9500" x="-930.0000" y="995.0500" lane="D2_0" posOnLane="70.0000" timeStopped="1"/>
        <vehicle id="veh1" energyConsumed="7.5557" totalEnergyConsumed="29.3179" totalEnergyRegenerated="0.0000" actualBatteryCapacity="11970.6821" maximumBatteryCapacity="35000.0000" chargingStationId="NULL" energyCharged="0.0000" energyChargedInTransit="0.0000" energyChargedStopped="0.0000" speed="7.0000" acceleration="1.0000" x="-966.9000" y="995.0500" lane="D2_0" posOnLane="33.1000" timeStopped="0"/>
        <vehicle id="veh2" energyConsumed="1.9509" totalEnergyConsumed="2.7900" totalEnergyRegenerated="0.0000" actualBatteryCapacity="9997.2100" maximumBatteryCapacity="35000.0000" chargingStationId="NULL" energyCharged="0.0000" energyChargedInTransit="0.0000" energyChargedStopped="0.0000" speed="2.0000" acceleration="1.0000" x="-991.9000" y="995.0500" lane="D2_0" posOnLane="8.1000" timeStopped="0"/>
    </timestep>
    <timestep time="13.00">
        <vehicle id="veh0" energyConsumed="0.0111" totalEnergyConsumed="52.5990" totalEnergyRegenerated="13.1020" actualBatteryCapacity="12998.3475" maximumBatteryCapacity="35000.0000" chargingStationId="CS1" energyCharged="18.9117" energyChargedInTransit="0.0000" energyChargedStopped="18.9117" speed="0.0000" acceleration="0.0000" x="-930.0000" y="995.0500" lane="D2_0" posOnLane="70.0000" timeStopped="2"/>
        <vehicle id="veh1" energyConsumed="8.6921" totalEnergyConsumed="38.0100" totalEnergyRegenerated="0.0000" actualBatteryCapacity="11961.9900" maximumBatteryCapacity="35000.0000" chargingStationId="NULL" energyCharged="0.0000" energyChargedInTransit="0.0000" energyChargedStopped="0.0000" speed="8.0000" acceleration="1.0000" x="-958.9000" y="995.0500" lane="D2_0" posOnLane="41.1000" timeStopped="0"/>
        <vehicle id="veh2" energyConsumed="3.0646" totalEnergyConsumed="5.8546" totalEnergyRegenerated="0.0000" actualBatteryCapacity="9994.1454" maximumBatteryCapacity="35000.0000" chargingStationId="NULL" energyCharged="0.0000" energyChargedInTransit="0.0000" energyChargedStopped="0.0000" speed="3.0000" acceleration="1.0000" x="-988.9000" y="995.0500" lane="D2_0" posOnLane="11.1000" timeStopped="0"/>
    </timestep>
    <timestep time="14.00">
        <vehicle id="veh0" energyConsumed="0.0111" totalEnergyConsumed="52.6101" totalEnergyRegenerated="13.1020" actualBatteryCapacity="13017.2271" maximumBatteryCapacity="35000.0000" chargingStationId="CS1" energyCharged="18.8907" energyChargedInTransit="0.0000" energyChargedStopped="18.8907" speed="0.0000" acceleration="0.0000" x="-930.0000" y="995.0500" lane="D2_0" posOnLane="70.0000" timeStopped="3"/>
        <vehicle id="veh1" energyConsumed="9.8358" totalEnergyConsumed="47.8458" totalEnergyRegenerated="0.0000" actualBatteryCapacity="11952.1542" maximumBatteryCapacity="35000.0000" chargingStationId="NULL" energyCharged="0.0000" energyChargedInTransit="0.0000" energyChargedStopped="0.0000" speed="9.0000" acceleration="1.0000" x="-949.9000" y="995.0500" lane="D2_0" posOnLane="50.1000" timeStopped="0"/>
        <vehicle id="veh2" energyConsumed="4.1810" totalEnergyConsumed="10.0355" totalEnergyRegenerated="0.0000" actualBatteryCapacity="9989.9645" maximumBatteryCapacity="35000.0000" chargingStationId="NULL" energyCharged="0.0000" energyChargedInTransit="0.0000" energyChargedStopped="0.0000" speed="4.0000" acceleration="1.0000" x="-984.9000" y="995.0500" lane="D2_0" posOnLane="15.1000" timeStopped="0"/>
    </timestep>
    <timestep time="15.00">
        <vehicle id="veh0" energyConsumed="0.0111" totalEnergyConsumed="52.6212" totalEnergyRegenerated="13.1020" actualBatteryCapacity="13036.0858" maximumBatteryCapacity="35000.0000" chargingStationId="CS1" energyCharged="18.8698" energyChargedInTransit="0.0000" energyChargedStopped="18.8698" speed="0.0000" acceleration="0.0000" x="-930.0000" y="995.0500" lane="D2_0" posOnLane="70.0000" timeStopped="4"/>
        <vehicle id="veh1" energyConsumed="-7.9360" totalEnergyConsumed="47.8458" totalEnergyRegenerated="7.9360" actualBatteryCapacity="11960.0901" maximumBatteryCapacity="35000.0000" chargingStationId="NULL" energyCharged="0.0000" energyChargedInTransit="0.0000" energyChargedStopped="0.0000" speed="5.1995" acceleration="-3.8005" x="-944.7005" y="995.0500" lane="D2_0" posOnLane="55.2995" timeStopped="0"/>
        <vehicle id="veh2" energyConsumed="5.3010" totalEnergyConsumed="15.3366" totalEnergyRegenerated="0.0000" actualBatteryCapacity="9984.6634" maximumBatteryCapacity="35000.0000" chargingStationId="NULL" energyCharged="0.0000" energyChargedInTransit="0.0000" energyChargedStopped="0.0000" speed="5.0000" acceleration="1.0000" x="-979.9000" y="995.0500" lane="D2_0" posOnLane="20.1000" timeStopped="0"/>
    </timestep>
    <timestep time="16.00">
        <vehicle id="veh0" energyConsumed="0.0111" totalEnergyConsumed="52.6323" totalEnergyRegenerated="13.1020" actualBatteryCapacity="13054.9235" maximumBatteryCapacity="35000.0000" chargingStationId="CS1" energyCharged="18.8488" energyChargedInTransit="0.0000" energyChargedStopped="18.8488" speed="0.0000" acceleration="0.0000" x="-930.0000" y="995.0500" lane="D2_0" posOnLane="70.0000" timeStopped="5"/>
        <vehicle id="veh1" energyConsumed="-4.8084" totalEnergyConsumed="47.8458" totalEnergyRegenerated="12.7444" actualBatteryCapacity="11964.8986" maximumBatteryCapacity="35000.0000" chargingStationId="NULL" energyCharged="0.0000" energyChargedInTransit="0.0000" energyChargedStopped="0.0000" speed="0.1995" acceleration="-5.0000" x="-944.5010" y="995.0500" lane="D2_0" posOnLane="55.4990" timeStopped="0"/>
        <vehicle id="veh2" energyConsumed="6.4256" totalEnergyConsumed="21.7622" totalEnergyRegenerated="0.0000" actualBatteryCapacity="9978.2378" maximumBatteryCapacity="35000.0000" chargingStationId="NULL" energyCharged="0.0000" energyChargedInTransit="0.0000" energyChargedStopped="0.0000" speed="6.0000" acceleration="1.0000" x="-973.9000" y="995.0500" lane="D2_0" posOnLane="26.1000" timeStopped="0"/>
    </timestep>
    <timestep time="17.00">
        <vehicle id="veh0" energyConsumed="0.0111" totalEnergyConsumed="52.6434" totalEnergyRegenerated="13.1020" actualBatteryCapacity="13073.7402" maximumBatteryCapacity="35000.0000" chargingStationId="CS1" energyCharged="18.8279" energyChargedInTransit="0.0000" energyChargedStopped="18.8279" speed="0.0000" acceleration="0.0000" x="-930.0000" y="995.0500" lane="D2_0" posOnLane="70.0000" timeStopped="6"/>
        <vehicle id="veh1" energyConsumed="0.0039" totalEnergyConsumed="47.8497" totalEnergyRegenerated="12.7444" actualBatteryCapacity="11991.2835" maximumBatteryCapacity="35000.0000" chargingStationId="CS1" energyCharged="26.3889" energyChargedInTransit="0.0000" energyChargedStopped="26.3889" speed="0.0000" acceleration="-0.1995" x="-944.5010" y="995.0500" lane="D2_0" posOnLane="55.4990" timeStopped="1"/>
        <vehicle id="veh2" energyConsumed="7.5557" totalEnergyConsumed="29.3179" totalEnergyRegenerated="0.0000" actualBatteryCapacity="9970.6821" maximumBatteryCapacity="35000.0000" chargingStationId="NULL" energyCharged="0.0000" energyChargedInTransit="0.0000" energyChargedStopped="0.0000" speed="7.0000" acceleration="1.0000" x="-966.9000" y="995.0500" lane="D2_0" posOnLane="33.1000" timeStopped="0"/>
    </timestep>
    <timestep time="18.00">
        <vehicle id="veh0" energyConsumed="0.0111" totalEnergyConsumed="52.6545" totalEnergyRegenerated="13.1020" actualBatteryCapacity="13092.5361" maximumBatteryCapacity="35000.0000" chargingStationId="CS1" energyCharged="18.8070" energyChargedInTransit="0.0000" energyChargedStopped="18.8070" speed="0.0000" acceleration="0.0000" x="-930.0000" y="995.0500" lane="D2_0" posOnLane="70.0000" timeStopped="7"/>
        <vehicle id="veh1" energyConsumed="0.0111" totalEnergyConsumed="47.8608" totalEnergyRegenerated="12.7444" actualBatteryCapacity="12017.6613" maximumBatteryCapacity="35000.0000" chargingStationId="CS1" energyCharged="26.3889" energyChargedInTransit="0.0000" energyChargedStopped="26.3889" speed="0.0000" acceleration="0.0000" x="-944.5010" y="995.0500" lane="D2_0" posOnLane="55.4990" timeStopped="2"/>
        <vehicle id="veh2" energyConsumed="8.6921" totalEnergyConsumed="38.0100" totalEnergyRegenerated="0.0000" actualBatteryCapacity="9961.9900" maximumBatteryCapacity="35000.0000" chargingStationId="NULL" energyCharged="0.0000" energyChargedInTransit="0.0000" energyChargedStopped="0.0000" speed="8.0000" acceleration="1.0000" x="-958.9000" y="995.0500" lane="D2_0" posOnLane="41.1000" timeStopped="0"/>
    </timestep>
    <timestep time="19.00">
        <vehicle id="veh0" energyConsumed="0.8391" totalEnergyConsumed="53.4936" totalEnergyRegenerated="13.1020" actualBatteryCapacity="13091.6970" maximumBatteryCapacity="35000.0000" chargingStationId="NULL" energyCharged="0.0000" energyChargedInTransit="0.0000" energyChargedStopped="0.0000" speed="1.0000" acceleration="1.0000" x="-929.0000" y="998.3500" lane="D2_1" posOnLane="71.0000" timeStopped="0"/>
        <vehicle id="veh1" energyConsumed="0.0111" totalEnergyConsumed="47.8720" totalEnergyRegenerated="12.7444" actualBatteryCapacity="12044.0391" maximumBatteryCapacity="35000.0000" chargingStationId="CS1" energyCharged="26.3889" energyChargedInTransit="0.0000" energyChargedStopped="26.3889" speed="0.0000" acceleration="0.0000" x="-944.5010" y="995.0500" lane="D2_0" posOnLane="55.4990" timeStopped="3"/>
        <vehicle id="veh2" energyConsumed="-3.0756" totalEnergyConsumed="38.0100" totalEnergyRegenerated="3.0756" actualBatteryCapacity="9965.0656" maximumBatteryCapacity="35000.0000" chargingStationId="NULL" energyCharged="0.0000" energyChargedInTransit="0.0000" energyChargedStopped="0.0000" speed="5.9490" acceleration="-2.0510" x="-952.9510" y="995.0500" lane="D2_0" posOnLane="47.0490" timeStopped="0"/>
    </timestep>
    <timestep time="20.00">
        <vehicle id="veh0" energyConsumed="1.9509" totalEnergyConsumed="55.4445" totalEnergyRegenerated="13.1020" actualBatteryCapacity="13089.7461" maximumBatteryCapacity="35000.0000" chargingStationId="NULL" energyCharged="0.0000" energyChargedInTransit="0.0000" energyChargedStopped="0.0000" speed="2.0000" acceleration="1.0000" x="-927.0000" y="998.3500" lane="D2_1" posOnLane="73.0000" timeStopped="0"/>
        <vehicle id="veh1" energyConsumed="0.0111" totalEnergyConsumed="47.8831" totalEnergyRegenerated="12.7444" actualBatteryCapacity="12070.4169" maximumBatteryCapacity="35000.0000" chargingStationId="CS1" energyCharged="26.3889" energyChargedInTransit="0.0000" energyChargedStopped="26.3889" speed="0.0000" acceleration="0.0000" x="-944.5010" y="995.0500" lane="D2_0" posOnLane="55.4990" timeStopped="4"/>
        <vehicle id="veh2" energyConsumed="-5.9044" totalEnergyConsumed="38.0100" totalEnergyRegenerated="8.9800" actualBatteryCapacity="9970.9701" maximumBatteryCapacity="35000.0000" chargingStationId="NULL" energyCharged="0.0000" energyChargedInTransit="0.0000" energyChargedStopped="0.0000" speed="0.9490" acceleration="-5.0000" x="-952.0020" y="995.0500" lane="D2_0" posOnLane="47.9980" timeStopped="0"/>
    </timestep>
    <timestep time="21.00">
        <vehicle id="veh0" energyConsumed="3.0646" totalEnergyConsumed="58.5091" totalEnergyRegenerated="13.1020" actualBatteryCapacity="13086.6815" maximumBatteryCapacity="35000.0000" chargingStationId="NULL" energyCharged="0.0000" energyChargedInTransit="0.0000" energyChargedStopped="0.0000" speed="3.0000" acceleration="1.0000" x="-924.0000" y="998.3500" lane="D2_1" posOnLane="76.0000" timeStopped="0"/>
        <vehicle id="veh1" energyConsumed="0.0111" totalEnergyConsumed="47.8942" totalEnergyRegenerated="12.7444" actualBatteryCapacity="12096.7947" maximumBatteryCapacity="35000.0000" chargingStationId="CS1" energyCharged="26.3889" energyChargedInTransit="0.0000" energyChargedStopped="26.3889" speed="0.0000" acceleration="0.0000" x="-944.5010" y="995.0500" lane="D2_0" posOnLane="55.4990" timeStopped="5"/>
        <vehicle id="veh2" energyConsumed="-0.1520" totalEnergyConsumed="38.0100" totalEnergyRegenerated="9.1320" actualBatteryCapacity="9971.1221" maximumBatteryCapacity="35000.0000" chargingStationId="NULL" energyCharged="0.0000" energyChargedInTransit="0.0000" energyChargedStopped="0.0000" speed="0.0000" acceleration="-0.9490" x="-952.0020" y="995.0500" lane="D2_0" posOnLane="47.9980" timeStopped="1"/>
    </timestep>
    <timestep time="22.00">
        <vehicle id="veh0" energyConsumed="4.1810" totalEnergyConsumed="62.6901" totalEnergyRegenerated="13.1020" actualBatteryCapacity="13082.5005" maximumBatteryCapacity="35000.0000" chargingStationId="NULL" energyCharged="0.0000" energyChargedInTransit="0.0000" energyChargedStopped="0.0000" speed="4.0000" acceleration="1.0000" x="-920.0000" y="998.3500" lane="D2_1" posOnLane="80.0000" timeStopped="0"/>
        <vehicle id="veh1" energyConsumed="0.0111" totalEnergyConsumed="47.9053" totalEnergyRegenerated="12.7444" actualBatteryCapacity="12123.1724" maximumBatteryCapacity="35000.0000" chargingStationId="CS1" energyCharged="26.3889" energyChargedInTransit="0.0000" energyChargedStopped="26.3889" speed="0.0000" acceleration="0.0000" x="-944.5010" y="995.0500" lane="D2_0" posOnLane="55.4990" timeStopped="6"/>
        <vehicle id="veh2" energyConsumed="0.0111" totalEnergyConsumed="38.0211" totalEnergyRegenerated="9.1320" actualBatteryCapacity="9971.1109" maximumBatteryCapacity="35000.0000" chargingStationId="NULL" energyCharged="0.0000" energyChargedInTransit="0.0000" energyChargedStopped="0.0000" speed="0.0000" acceleration="0.0000" x="-952.0020" y="995.0500" lane="D2_0" posOnLane="47.9980" timeStopped="2"/>
    </timestep>
    <timestep time="23.00">
        <vehicle id="veh0" energyConsumed="5.3010" totalEnergyConsumed="67.9911" totalEnergyRegenerated="13.1020" actualBatteryCapacity="13077.1995" maximumBatteryCapacity="35000.0000" chargingStationId="NULL" energyCharged="0.0000" energyChargedInTransit="0.0000" energyChargedStopped="0.0000" speed="5.0000" acceleration="1.0000" x="-915.0000" y="998.3500" lane="D2_1" posOnLane="85.0000" timeStopped="0"/>
        <vehicle id="veh1" energyConsumed="0.0111" totalEnergyConsumed="47.9164" totalEnergyRegenerated="12.7444" actualBatteryCapacity="12149.5502" maximumBatteryCapacity="35000.0000" chargingStationId="CS1" energyCharged="26.3889" energyChargedInTransit="0.0000" energyChargedStopped="26.3889" speed="0.0000" acceleration="0.0000" x="-944.5010" y="995.0500" lane="D2_0" posOnLane="55.4990" timeStopped="7"/>
        <vehicle id="veh2" energyConsumed="0.0111" totalEnergyConsumed="38.0322" totalEnergyRegenerated="9.1320" actualBatteryCapacity="9971.0998" maximumBatteryCapacity="35000.0000" chargingStationId="NULL" energyCharged="0.0000" energyChargedInTransit="0.0000" energyChargedStopped="0.0000" speed="0.0000" acceleration="0.0000" x="-952.0020" y="995.0500" lane="D2_0" posOnLane="47.9980" timeStopped="3"/>
    </timestep>
    <timestep time="24.00">
        <vehicle id="veh0" energyConsumed="6.4256" totalEnergyConsumed="74.4167" totalEnergyRegenerated="13.1020" actualBatteryCapacity="13070.7739" maximumBatteryCapacity="35000.0000" chargingStationId="NULL" energyCharged="0.0000" energyChargedInTransit="0.0000" energyChargedStopped="0.0000" speed="6.0000" acceleration="1.0000" x="-909.0000" y="998.3500" lane="D2_1" posOnLane="91.0000" timeStopped="0"/>
        <vehicle id="veh1" energyConsumed="0.8391" totalEnergyConsumed="48.7555" totalEnergyRegenerated="12.7444" actualBatteryCapacity="12148.7111" maximumBatteryCapacity="35000.0000" chargingStationId="CS1" energyCharged="26.3889" energyChargedInTransit="0.0000" energyChargedStopped="26.3889" speed="1.0000" acceleration="1.0000" x="-943.5010" y="998.3500" lane="D2_1" posOnLane="56.4990" timeStopped="0"/>
        <vehicle id="veh2" energyConsumed="0.0111" totalEnergyConsumed="38.0433" totalEnergyRegenerated="9.1320" actualBatteryCapacity="9971.0887" maximumBatteryCapacity="35000.0000" chargingStationId="NULL" energyCharged="0.0000" energyChargedInTransit="0.0000" energyChargedStopped="0.0000" speed="0.0000" acceleration="0.0000" x="-952.0020" y="995.0500" lane="D2_0" posOnLane="47.9980" timeStopped="4"/>
    </timestep>
    <timestep time="25.00">
        <vehicle id="veh0" energyConsumed="7.5557" totalEnergyConsumed="81.9724" totalEnergyRegenerated="13.1020" actualBatteryCapacity="13063.2182" maximumBatteryCapacity="35000.0000" chargingStationId="NULL" energyCharged="0.0000" energyChargedInTransit="0.0000" energyChargedStopped="0.0000" speed="7.0000" acceleration="1.0000" x="-902.0000" y="998.3500" lane="D2_1" posOnLane="98.0000" timeStopped="0"/>
        <vehicle id="veh1" energyConsumed="1.9509" totalEnergyConsumed="50.7064" totalEnergyRegenerated="12.7444" actualBatteryCapacity="12146.7602" maximumBatteryCapacity="35000.0000" chargingStationId="NULL" energyCharged="0.0000" energyChargedInTransit="0.0000" energyChargedStopped="0.0000" speed="2.0000" acceleration="1.0000" x="-941.5010" y="998.3500" lane="D2_1" posOnLane="58.4990" timeStopped="0"/>
        <vehicle id="veh2" energyConsumed="0.8391" totalEnergyConsumed="38.8824" totalEnergyRegenerated="9.1320" actualBatteryCapacity="9970.2497" maximumBatteryCapacity="35000.0000" chargingStationId="NULL" energyCharged="0.0000" energyChargedInTransit="0.0000" energyChargedStopped="0.0000" speed="1.0000" acceleration="1.0000" x="-951.0020" y="995.0500" lane="D2_0" posOnLane="48.9980" timeStopped="0"/>
    </timestep>
    <timestep time="26.00">
        <vehicle id="veh0" energyConsumed="8.6921" totalEnergyConsumed="90.6645" totalEnergyRegenerated="13.1020" actualBatteryCapacity="13073.3544" maximumBatteryCapacity="35000.0000" chargingStationId="CS2" energyCharged="18.8283" energyChargedInTransit="18.8283" energyChargedStopped="0.0000" speed="8.0000" acceleration="1.0000" x="-894.0000" y="998.3500" lane="D2_1" posOnLane="106.0000" timeStopped="0"/>
        <vehicle id="veh1" energyConsumed="3.0646" totalEnergyConsumed="53.7710" totalEnergyRegenerated="12.7444" actualBatteryCapacity="12143.6957" maximumBatteryCapacity="35000.0000" chargingStationId="NULL" energyCharged="0.0000" energyChargedInTransit="0.0000" energyChargedStopped="0.0000" speed="3.0000" acceleration="1.0000" x="-938.5010" y="998.3500" lane="D2_1" posOnLane="61.4990" timeStopped="0"/>
        <vehicle id="veh2" energyConsumed="1.9509" totalEnergyConsumed="40.8333" totalEnergyRegenerated="9.1320" actualBatteryCapacity="9968.2987" maximumBatteryCapacity="35000.0000" chargingStationId="NULL" energyCharged="0.0000" energyChargedInTransit="0.0000" energyChargedStopped="0.0000" speed="2.0000" acceleration="1.0000" x="-949.0020" y="995.0500" lane="D2_0" posOnLane="50.9980" timeStopped="0"/>
    </timestep>
    <timestep time="27.00">