<routes>
	<flow id="f1" period="1" number="-1" route="1"/>
</routes>
