<?xml version="1.0" encoding="UTF-8"?>

<!-- generated on 04/01/14 13:45:06 by SUMO duarouter Version dev-SVN-r16088
<?xml version="1.0" encoding="UTF-8"?>

<configuration xmlns:xsi="http://www.w3.org/2001/XMLSchema-instance" xsi:noNamespaceSchemaLocation="http://sumo.dlr.de/xsd/duarouterConfiguration.xsd">

    <input>
        <net-file value="input_net.net.xml"/>
        <alternative-files value="input_alts.rou.alt.xml"/>
        <weight-files value="input_weights.dump.xml"/>
    </input>

    <output>
        <output-file value="routes.rou.xml"/>
    </output>

    <processing>
        <route-choice-method value="logit"/>
    </processing>

    <report>
        <xml-validation value="never"/>
        <no-step-log value="true"/>
    </report>

</configuration>
-->

<routes xmlns:xsi="http://www.w3.org/2001/XMLSchema-instance" xsi:noNamespaceSchemaLocation="http://sumo.dlr.de/xsd/routes_file.xsd">
    <vehicle id="0" depart="0.00">
        <routeDistribution last="3">
            <route cost="656.30" probability="0.31933406" edges="oa ab bd"/>
            <route cost="728.92" probability="0.27573995" edges="oa ab by yd"/>
            <route cost="825.33" probability="0.22693166" edges="oa ax xy yd"/>
            <route cost="945.62" probability="0.17799433" edges="ox xy yd"/>
        </routeDistribution>
    </vehicle>
</routes>
