<routes>
    <person id="2" depart="0" departPos="0">
        <walk edges="NC" arrivalPos="10"/>
        <ride from="NC" to="CE" lines="foo"/>
    </person>
</routes>
