<?xml version="1.0" encoding="UTF-8"?>

<!-- generated on 25.01.2019 11:09:42 by Eclipse SUMO netedit Version v1_1_0+0076-a16c2aae75
<configuration xmlns:xsi="http://www.w3.org/2001/XMLSchema-instance" xsi:noNamespaceSchemaLocation="http://sumo.dlr.de/xsd/netconvertConfiguration.xsd">

    <input>
        <new value="true"/>
    </input>

    <output>
        <output-file value="C:/Users/SUMO-Test/.texttest/tmp/netedit.gui.25Jan110917.3048/netedit.gui/netElements/edges/create\net.net.xml"/>
    </output>

    <netedit>
        <additionals-output value="C:/Users/SUMO-Test/.texttest/tmp/netedit.gui.25Jan110917.3048/netedit.gui/netElements/edges/create\additionals.xml"/>
        <demandelements-output value="C:/Users/SUMO-Test/.texttest/tmp/netedit.gui.25Jan110917.3048/netedit.gui/netElements/edges/create\routes.xml"/>
    </netedit>

    <visualisation>
        <gui-settings-file value="C:/Users/SUMO-Test/.texttest/tmp/netedit.gui.25Jan110917.3048/netedit.gui/netElements/edges/create\gui-settings.xml"/>
        <window-size value="700,500"/>
        <window-pos value="50,50"/>
        <gui-testing value="true"/>
        <gui-testing-debug value="true"/>
    </visualisation>

    <report>
        <no-warnings value="true"/>
        <error-log value="C:/Users/SUMO-Test/.texttest/tmp/netedit.gui.25Jan110917.3048/netedit.gui/netElements/edges/create\log.txt"/>
    </report>

</configuration>
-->

<net version="1.1" junctionCornerDetail="5" limitTurnSpeed="5.50" xmlns:xsi="http://www.w3.org/2001/XMLSchema-instance" xsi:noNamespaceSchemaLocation="http://sumo.dlr.de/xsd/net_file.xsd">

    <location netOffset="-10000000028.00,-10000000020.00" convBoundary="0.00,0.00,76.00,37.00" origBoundary="10000000000.00,10000000000.00,-10000000000.00,-10000000000.00" projParameter="!"/>

    <edge id=":gneJ0_0" function="internal">
        <lane id=":gneJ0_0_0" index="0" speed="3.90" length="2.58" shape="1.60,33.80 1.70,34.50 2.00,35.00 2.50,35.30 3.20,35.40"/>
    </edge>
    <edge id=":gneJ1_0" function="internal">
        <lane id=":gneJ1_0_0" index="0" speed="3.90" length="2.58" shape="72.80,35.40 73.50,35.30 74.00,35.00 74.30,34.50 74.40,33.80"/>
    </edge>

    <edge id="gneE0" from="gneJ0" to="gneJ1" priority="-1">
        <lane id="gneE0_0" index="0" speed="13.89" length="69.60" shape="3.20,35.40 72.80,35.40"/>
    </edge>
    <edge id="gneE1" from="gneJ2" to="gneJ3" priority="-1">
        <lane id="gneE1_0" index="0" speed="13.89" length="66.60" shape="4.70,-1.60 71.30,-1.60"/>
    </edge>
    <edge id="gneE2" from="gneJ2" to="gneJ0" priority="-1">
        <lane id="gneE2_0" index="0" speed="13.89" length="32.30" shape="1.60,1.50 1.60,33.80"/>
    </edge>
    <edge id="gneE3" from="gneJ1" to="gneJ3" priority="-1">
        <lane id="gneE3_0" index="0" speed="13.89" length="32.30" shape="74.40,33.80 74.40,1.50"/>
    </edge>

    <junction id="gneJ0" type="priority" x="0.00" y="37.00" incLanes="gneE2_0" intLanes=":gneJ0_0_0" shape="3.20,37.00 3.20,33.80 0.00,33.80 0.36,35.58 0.80,36.20 1.42,36.64 2.22,36.91">
        <request index="0" response="0" foes="0" cont="0"/>
    </junction>
    <junction id="gneJ1" type="priority" x="76.00" y="37.00" incLanes="gneE0_0" intLanes=":gneJ1_0_0" shape="76.00,33.80 72.80,33.80 72.80,37.00 74.58,36.64 75.20,36.20 75.64,35.58 75.91,34.78">
        <request index="0" response="0" foes="0" cont="0"/>
    </junction>
    <junction id="gneJ2" type="dead_end" x="0.00" y="0.00" incLanes="" intLanes="" shape="0.00,1.50 3.20,1.50 3.37,0.67 3.57,0.38 3.87,0.17 4.24,0.04 4.70,0.00 4.70,-3.20 2.09,-2.68 1.17,-2.02 0.52,-1.11 0.13,0.06"/>
    <junction id="gneJ3" type="dead_end" x="76.00" y="0.00" incLanes="gneE3_0 gneE1_0" intLanes="" shape="72.80,1.50 76.00,1.50 75.48,-1.11 74.83,-2.03 73.91,-2.68 72.74,-3.07 71.30,-3.20 71.30,0.00 72.13,0.17 72.43,0.38 72.63,0.67 72.76,1.04"/>

    <connection from="gneE0" to="gneE3" fromLane="0" toLane="0" via=":gneJ1_0_0" dir="r" state="M"/>
    <connection from="gneE2" to="gneE0" fromLane="0" toLane="0" via=":gneJ0_0_0" dir="r" state="M"/>

    <connection from=":gneJ0_0" to="gneE0" fromLane="0" toLane="0" dir="r" state="M"/>
    <connection from=":gneJ1_0" to="gneE3" fromLane="0" toLane="0" dir="r" state="M"/>

</net>
