<?xml version="1.0" encoding="UTF-8"?>

<!-- generated on 10.08.2020 16:28:11 by Eclipse SUMO netedit Version v1_6_0+1489-ee01cde108
<configuration xmlns:xsi="http://www.w3.org/2001/XMLSchema-instance" xsi:noNamespaceSchemaLocation="http://sumo.dlr.de/xsd/netconvertConfiguration.xsd">

    <input>
        <new value="true"/>
    </input>

    <output>
        <output-file value="C:\Users\alva_pa\.texttest\tmp\netedit.gui.10Aug162724.2824\netedit.gui\netElements\edges\create\net.net.xml"/>
    </output>

    <processing>
        <offset.disable-normalization value="true"/>
    </processing>

    <netedit>
        <additional-files value="C:\Users\alva_pa\.texttest\tmp\netedit.gui.10Aug162724.2824\netedit.gui\netElements\edges\create\additionals.xml"/>
        <additionals-output value="C:\Users\alva_pa\.texttest\tmp\netedit.gui.10Aug162724.2824\netedit.gui\netElements\edges\create\additionals.xml"/>
        <route-files value="C:\Users\alva_pa\.texttest\tmp\netedit.gui.10Aug162724.2824\netedit.gui\netElements\edges\create\routes.xml"/>
        <demandelements-output value="C:\Users\alva_pa\.texttest\tmp\netedit.gui.10Aug162724.2824\netedit.gui\netElements\edges\create\routes.xml"/>
        <data-files value="C:\Users\alva_pa\.texttest\tmp\netedit.gui.10Aug162724.2824\netedit.gui\netElements\edges\create\datas.xml"/>
        <dataelements-output value="C:\Users\alva_pa\.texttest\tmp\netedit.gui.10Aug162724.2824\netedit.gui\netElements\edges\create\datas.xml"/>
    </netedit>

    <visualisation>
        <gui-settings-file value="C:\Users\alva_pa\.texttest\tmp\netedit.gui.10Aug162724.2824\netedit.gui\netElements\edges\create\gui-settings.xml"/>
        <window-size value="700,500"/>
        <window-pos value="50,50"/>
        <gui-testing value="true"/>
        <gui-testing-debug value="true"/>
        <gui-testing.setting-output value="C:\Users\alva_pa\.texttest\tmp\netedit.gui.10Aug162724.2824\netedit.gui\netElements\edges\create\guisettingsoutput.xml"/>
    </visualisation>

    <report>
        <no-warnings value="true"/>
        <aggregate-warnings value="5"/>
        <error-log value="C:\Users\alva_pa\.texttest\tmp\netedit.gui.10Aug162724.2824\netedit.gui\netElements\edges\create\log.txt"/>
    </report>

</configuration>
-->

<net version="1.6" junctionCornerDetail="5" limitTurnSpeed="5.50" xmlns:xsi="http://www.w3.org/2001/XMLSchema-instance" xsi:noNamespaceSchemaLocation="http://sumo.dlr.de/xsd/net_file.xsd">

    <location netOffset="0.00,0.00" convBoundary="7.00,20.00,83.00,57.00" origBoundary="10000000000.00,10000000000.00,-10000000000.00,-10000000000.00" projParameter="!"/>

    <edge id=":gneJ0_0" function="internal">
        <lane id=":gneJ0_0_0" index="0" speed="6.17" length="10.79" shape="8.60,47.88 9.09,50.51 10.57,51.84 13.03,51.88 16.47,50.61"/>
    </edge>
    <edge id=":gneJ0_1" function="internal">
        <lane id=":gneJ0_1_0" index="0" speed="7.77" length="13.32" shape="8.60,47.88 9.16,51.17 10.84,53.52 13.65,54.93 17.57,55.40"/>
    </edge>

    <edge id="gneE0" from="gneJ0" to="gneJ1" priority="-1">
        <lane id="gneE0_0" index="0" speed="13.89" length="65.43" shape="17.57,55.40 83.00,55.40"/>
    </edge>
    <edge id="gneE1" from="gneJ2" to="gneJ3" priority="-1">
        <lane id="gneE1_0" index="0" speed="13.89" length="62.49" shape="11.70,18.40 74.19,18.40"/>
    </edge>
    <edge id="gneE2" from="gneJ2" to="gneJ0" priority="-1">
        <lane id="gneE2_0" index="0" speed="13.89" length="26.38" shape="8.60,21.50 8.60,47.88"/>
    </edge>
    <edge id="gneE3" from="gneJ0" to="gneJ3" priority="-1">
        <lane id="gneE3_0" index="0" speed="13.89" length="65.14" shape="16.47,50.61 75.04,22.10"/>
    </edge>

    <junction id="gneJ0" type="priority" x="7.00" y="57.00" incLanes="gneE2_0" intLanes=":gneJ0_0_0 :gneJ0_1_0" shape="17.57,57.00 17.57,53.80 17.17,52.05 15.77,49.17 12.67,50.23 11.59,50.21 10.82,49.80 10.35,49.03 10.20,47.88 7.00,47.88 7.29,50.67 8.17,52.95 9.64,54.72 11.70,55.99 14.34,56.75">
        <request index="0" response="00" foes="00" cont="0"/>
        <request index="1" response="00" foes="00" cont="0"/>
    </junction>
    <junction id="gneJ1" type="dead_end" x="83.00" y="57.00" incLanes="gneE0_0" intLanes="" shape="83.00,53.80 83.00,57.00"/>
    <junction id="gneJ2" type="dead_end" x="7.00" y="20.00" incLanes="" intLanes="" shape="7.00,21.50 10.20,21.50 10.37,20.67 10.57,20.38 10.87,20.17 11.24,20.04 11.70,20.00 11.70,16.80 9.09,17.32 8.17,17.97 7.52,18.89 7.13,20.06"/>
    <junction id="gneJ3" type="dead_end" x="83.00" y="20.00" incLanes="gneE1_0 gneE3_0" intLanes="" shape="74.19,16.80 74.19,20.00 74.34,20.66 75.74,23.53 79.54,21.48 81.72,19.79 82.27,18.48 81.20,17.55 78.51,16.99"/>

    <connection from="gneE2" to="gneE3" fromLane="0" toLane="0" via=":gneJ0_0_0" dir="r" state="M"/>
    <connection from="gneE2" to="gneE0" fromLane="0" toLane="0" via=":gneJ0_1_0" dir="R" state="M"/>

    <connection from=":gneJ0_0" to="gneE3" fromLane="0" toLane="0" dir="r" state="M"/>
    <connection from=":gneJ0_1" to="gneE0" fromLane="0" toLane="0" dir="R" state="M"/>

</net>
