<?xml version="1.0" encoding="UTF-8"?>

<!-- generated on Tue Apr 29 14:02:05 2014 by SUMO netconvert Version dev-SVN-r16274
<?xml version="1.0" encoding="UTF-8"?>

<configuration xmlns:xsi="http://www.w3.org/2001/XMLSchema-instance" xsi:noNamespaceSchemaLocation="http://sumo-sim.org/xsd/netconvertConfiguration.xsd">

    <input>
        <node-files value="input_plain.nod.xml"/>
        <edge-files value="input_plain.edg.xml"/>
    </input>

    <output>
        <output-file value="net.net.xml"/>
        <plain-output-prefix value="plain"/>
    </output>

    <processing>
        <no-turnarounds value="true"/>
        <crossings.guess value="true"/>
    </processing>

    <report>
        <xml-validation value="never"/>
    </report>

</configuration>
-->

<net version="0.13" xmlns:xsi="http://www.w3.org/2001/XMLSchema-instance" xsi:noNamespaceSchemaLocation="http://sumo-sim.org/xsd/net_file.xsd">

    <location netOffset="100.00,0.00" convBoundary="0.00,0.00,200.00,15.00" origBoundary="-10000000000.00,-10000000000.00,10000000000.00,10000000000.00" projParameter="!"/>

    <edge id=":C_0" function="internal">
        <lane id=":C_0_0" index="0" allow="passenger" speed="13.89" length="0.91" shape="100.66,4.95 100.00,4.95"/>
        <lane id=":C_0_1" index="1" allow="passenger" speed="13.89" length="0.91" shape="101.16,1.65 100.00,1.65"/>
    </edge>
    <edge id=":C_c0" function="crossing" crossingEdges="EC">
        <lane id=":C_c0_0" index="0" allow="pedestrian" speed="1.00" length="8.15" width="4.00" shape="99.16,0.05 98.29,8.15"/>
    </edge>
    <edge id=":C_c1" function="crossing" crossingEdges="CW">
        <lane id=":C_c1_0" index="0" allow="pedestrian" speed="1.00" length="8.10" width="4.00" shape="102.00,8.15 102.00,0.05"/>
    </edge>
    <edge id=":C_w0" function="walkingarea">
        <lane id=":C_w0_0" index="0" allow="pedestrian" speed="1.00" length="2.70" width="4.00" shape="104.00,8.25 100.00,8.25 100.00,11.25 100.00,11.25 100.00,8.25 96.00,8.25"/>
    </edge>
    <edge id=":C_w1" function="walkingarea">
        <lane id=":C_w1_0" index="0" allow="pedestrian" speed="1.00" length="2.18" width="4.00" shape="97.43,-0.44 101.38,0.16 101.83,-2.81 99.78,-3.05 100.22,-0.08 104.18,-0.68"/>
    </edge>

    <edge id="CNE" from="C" to="NE" priority="1">
        <lane id="CNE_0" index="0" allow="pedestrian" speed="3.00" length="99.73" width="3.00" shape="101.61,-1.33 200.23,13.47"/>
    </edge>
    <edge id="CW" from="C" to="W" priority="2">
        <lane id="CW_0" index="0" allow="pedestrian" speed="13.89" length="100.00" width="3.00" shape="100.00,9.75 0.00,9.75"/>
        <lane id="CW_1" index="1" disallow="all" speed="13.89" length="100.00" width="1.50" shape="100.00,7.40 0.00,7.40"/>
        <lane id="CW_2" index="2" allow="passenger" speed="13.89" length="100.00" shape="100.00,4.95 0.00,4.95"/>
        <lane id="CW_3" index="3" allow="passenger" speed="13.89" length="100.00" shape="100.00,1.65 0.00,1.65"/>
    </edge>
    <edge id="EC" from="E" to="C" priority="2">
        <lane id="EC_0" index="0" allow="pedestrian" speed="13.89" length="99.47" width="3.00" shape="200.00,9.75 100.00,9.75"/>
        <lane id="EC_1" index="1" disallow="all" speed="13.89" length="99.47" width="1.50" shape="200.00,7.40 100.29,7.40"/>
        <lane id="EC_2" index="2" allow="passenger" speed="13.89" length="99.47" shape="200.00,4.95 100.66,4.95"/>
        <lane id="EC_3" index="3" allow="passenger" speed="13.89" length="99.47" shape="200.00,1.65 101.16,1.65"/>
    </edge>
    <edge id="NWC" from="NW" to="C" priority="1">
        <lane id="NWC_0" index="0" allow="pedestrian" speed="3.00" length="101.35" width="3.00" shape="-0.23,13.47 100.00,-1.57"/>
    </edge>

    <junction id="C" type="priority" x="100.00" y="0.00" incLanes="EC_0 EC_1 EC_2 EC_3 NWC_0 :C_w1_0 :C_w0_0" intLanes=":C_0_0 :C_0_1 :C_c0_0 :C_c1_0" shape="99.69,11.35 101.85,-2.91 100.00,-3.19 100.00,11.35">
        <request index="0" response="0000" foes="1100" cont="0"/>
        <request index="1" response="0000" foes="1100" cont="0"/>
        <request index="2" response="0011" foes="0011" cont="0"/>
        <request index="3" response="0011" foes="0011" cont="0"/>
    </junction>
    <junction id="E" type="unregulated" x="200.00" y="0.00" incLanes="" intLanes="" shape="200.00,0.05 200.00,11.35"/>
    <junction id="NE" type="unregulated" x="200.00" y="15.00" incLanes="CNE_0" intLanes="" shape="200.47,11.88 199.99,15.05"/>
    <junction id="NW" type="unregulated" x="0.00" y="15.00" incLanes="" intLanes="" shape="0.01,15.05 -0.47,11.88"/>
    <junction id="W" type="unregulated" x="0.00" y="0.00" incLanes="CW_0 CW_1 CW_2 CW_3" intLanes="" shape="0.00,11.35 0.00,0.05"/>

    <connection from="EC" to="CW" fromLane="2" toLane="2" via=":C_0_0" dir="s" state="M"/>
    <connection from="EC" to="CW" fromLane="3" toLane="3" via=":C_0_1" dir="s" state="M"/>

    <connection from=":C_0" to="CW" fromLane="0" toLane="2" dir="s" state="M"/>
    <connection from=":C_0" to="CW" fromLane="1" toLane="3" dir="s" state="M"/>

    <connection from=":C_c0" to=":C_w0" fromLane="0" toLane="0" dir="s" state="M"/>
    <connection from=":C_c1" to=":C_w1" fromLane="0" toLane="0" dir="s" state="M"/>
    <connection from=":C_w0" to=":C_c1" fromLane="0" toLane="0" dir="s" state="m"/>
    <connection from=":C_w0" to="CW" fromLane="0" toLane="0" dir="s" state="M"/>
    <connection from="EC" to=":C_w0" fromLane="0" toLane="0" dir="s" state="M"/>
    <connection from=":C_w1" to=":C_c0" fromLane="0" toLane="0" dir="s" state="m"/>
    <connection from=":C_w1" to="CNE" fromLane="0" toLane="0" dir="s" state="M"/>
    <connection from="NWC" to=":C_w1" fromLane="0" toLane="0" dir="s" state="M"/>
</net>
