<?xml version="1.0" encoding="UTF-8"?>

<!-- generated on 2022-04-04 10:29:27 by Eclipse SUMO netedit Version v1_12_0+1909-c519ecb8a76
-->

<routes xmlns:xsi="http://www.w3.org/2001/XMLSchema-instance" xsi:noNamespaceSchemaLocation="http://sumo.dlr.de/xsd/routes_file.xsd">
    <!-- Vehicles, persons and containers (sorted by depart) -->
    <vehicle id="vehicle_0" depart="0.00">
        <route edges="gneE0 gneE1" color="yellow"/>
        <stop parkingArea="parkingArea" parking="1" speed="10.00"/>
    </vehicle>
    <vehicle id="vehicle_1" depart="0.00">
        <route edges="gneE0 gneE1" color="yellow"/>
        <stop parkingArea="parkingArea" parking="1" line=";;;;" speed="10.00"/>
    </vehicle>
    <vehicle id="vehicle_2" depart="0.00">
        <route edges="gneE0 gneE1" color="yellow"/>
        <stop parkingArea="parkingArea" parking="1" line="customLine" speed="10.00"/>
    </vehicle>
</routes>
