<?xml version="1.0" encoding="UTF-8"?>

<!-- generated on 2021-06-25 12:35:54 by Eclipse SUMO netedit Version v1_9_2+0656-adb6934d49
-->

<additional xmlns:xsi="http://www.w3.org/2001/XMLSchema-instance" xsi:noNamespaceSchemaLocation="http://sumo.dlr.de/xsd/additional_file.xsd">
    <e2Detector id="e2MultilaneDetector_0" lanes="gneE2_0 gneE3_0" pos="15.00" endPos="15.00" freq="900.00" file="e2MultilaneDetector_0.xml"/>
    <e2Detector id="e2MultilaneDetector_2" lanes="gneE2_0 gneE3_0" pos="15.00" endPos="15.00" freq="900.00" file="e2MultilaneDetector_2.xml" vTypes="Type1 Type2"/>
</additional>
