<?xml version="1.0" encoding="UTF-8"?>

<!-- generated on 12.03.2015 22:13:53 by Netedit Version dev-SVN-r18056
<?xml version="1.0" encoding="UTF-8"?>

<configuration xmlns:xsi="http://www.w3.org/2001/XMLSchema-instance" xsi:noNamespaceSchemaLocation="http://sumo.dlr.de/xsd/netedit.exeConfiguration.xsd">

    <output>
        <output-file value="net.net.xml"/>
        <plain-output-prefix value="D:\erdm_ja\sumo-dev\tests\netconvert\bugs\ticket1678\input_plain"/>
    </output>

    <processing>
        <no-turnarounds value="true"/>
        <offset.disable-normalization value="true"/>
    </processing>

</configuration>
-->

<nodes version="0.13" xmlns:xsi="http://www.w3.org/2001/XMLSchema-instance" xsi:noNamespaceSchemaLocation="http://sumo.dlr.de/xsd/nodes_file.xsd">
    <location netOffset="0.00,0.00" convBoundary="0.00,0.00,100.00,0.00" origBoundary="10000000000.00,10000000000.00,-10000000000.00,-10000000000.00" projParameter="!"/>

    <node id="gneJ0" x="0.00" y="0.00" type="unregulated"/>
    <node id="gneJ1" x="100.00" y="0.00" type="unregulated"/>
</nodes>
