<?xml version="1.0" encoding="UTF-8"?>

<!-- generated on Wed Sep 28 13:48:52 2016 by SUMO netconvert Version dev-SVN-r21560
<?xml version="1.0" encoding="UTF-8"?>

<configuration xmlns:xsi="http://www.w3.org/2001/XMLSchema-instance" xsi:noNamespaceSchemaLocation="http://sumo.dlr.de/xsd/netconvertConfiguration.xsd">

    <input>
        <node-files value="input_plain.nod.xml"/>
        <edge-files value="input_plain.edg.xml"/>
    </input>

    <report>
        <xml-validation value="never"/>
    </report>

</configuration>
-->

<net version="0.27" xmlns:xsi="http://www.w3.org/2001/XMLSchema-instance" xsi:noNamespaceSchemaLocation="http://sumo.dlr.de/xsd/net_file.xsd">

    <location netOffset="0.00,0.00" convBoundary="0.00,0.00,100.00,0.00" origBoundary="-10000000000.00,-10000000000.00,10000000000.00,10000000000.00" projParameter="!"/>

    <edge id="gneE0" from="gneJ0" to="gneJ1" priority="1" spreadType="center">
        <lane id="gneE0_0" index="0" allow="passenger" speed="13.89" length="100.00" shape="0.00,-2.20 100.00,-2.20"/>
        <lane id="gneE0_1" index="1" allow="bicycle" speed="13.89" length="100.00" shape="0.00,1.10 100.00,1.10"/>
        <lane id="gneE0_2" index="2" allow="pedestrian" speed="13.89" length="100.00" width="1.00" shape="0.00,3.30 100.00,3.30"/>
    </edge>
    <edge id="gneE1" from="gneJ0" to="gneJ1" priority="1">
        <lane id="gneE1_0" index="0" allow="rail" speed="13.89" length="95.00" endOffset="5.00" shape="0.00,-4.95 95.00,-4.95"/>
        <lane id="gneE1_1" index="1" allow="rail" speed="13.89" length="100.00" shape="0.00,-1.65 100.00,-1.65"/>
    </edge>

    <junction id="gneJ0" type="unregulated" x="0.00" y="0.00" incLanes="" intLanes="" shape="0.00,3.80 0.00,-0.05 0.00,-6.55"/>
    <junction id="gneJ1" type="unregulated" x="100.00" y="0.00" incLanes="gneE0_0 gneE0_1 gneE0_2 gneE1_0 gneE1_1" intLanes="" shape="100.00,-3.80 100.00,-6.55 100.00,-0.05"/>

</net>
