<additional>
    <timed_event type="SaveTLSStates" source="1/1" dest="tls_state.xml"/>
</additional>