<?xml version="1.0" encoding="UTF-8"?>

<!-- generated on 2025-07-14 13:23:06.705086 by randomTrips.py v1_23_1+1056-485580ee618
<configuration>
    <net-file value="net2.net.xml"/>
    <route-file value="out.rou.xml"/>
    <vtype-output value="out.add.xml"/>
    <vehicle-class value="passenger"/>
    <allow-fringe value="True"/>
    <remove-loops value="True"/>
    <end value="20.0"/>
    <duarouter-exit-times value="true"/>
    <duarouter-route-length value="true"/>
</configuration>
-->

<!-- generated on 2025-07-14 13:23:06 by Eclipse SUMO duarouter Version v1_23_1+1052-42c38246850
<duarouterConfiguration xmlns:xsi="http://www.w3.org/2001/XMLSchema-instance" xsi:noNamespaceSchemaLocation="http://sumo.dlr.de/xsd/duarouterConfiguration.xsd">

    <input>
        <net-file value="net2.net.xml"/>
        <additional-files value="out.add.xml"/>
        <route-files value="trips.trips.xml"/>
    </input>

    <output>
        <output-file value="out.rou.xml"/>
        <vtype-output value="out.add.xml"/>
        <alternatives-output value="NUL"/>
        <exit-times value="true"/>
        <route-length value="true"/>
    </output>

    <processing>
        <remove-loops value="true"/>
    </processing>

    <time>
        <begin value="0"/>
        <end value="20.0"/>
    </time>

    <report>
        <no-warnings value="true"/>
        <ignore-errors value="true"/>
        <no-step-log value="true"/>
    </report>

</duarouterConfiguration>
-->

<routes xmlns:xsi="http://www.w3.org/2001/XMLSchema-instance" xsi:noNamespaceSchemaLocation="http://sumo.dlr.de/xsd/routes_file.xsd">
    <vehicle id="0" type="passenger" depart="0.00">
        <route edges="beg2left" exitTimes="18.10" routeLength="503.09"/>
    </vehicle>
    <vehicle id="1" type="passenger" depart="1.00">
        <route edges="beg2left left" exitTimes="19.10 55.29" routeLength="1509.27"/>
    </vehicle>
    <vehicle id="2" type="passenger" depart="2.00">
        <route edges="beg beg2left" exitTimes="19.99 38.08" routeLength="1003.09"/>
    </vehicle>
    <vehicle id="3" type="passenger" depart="3.00">
        <route edges="beg2left left left2end" exitTimes="21.10 57.29 75.39" routeLength="2012.36"/>
    </vehicle>
    <vehicle id="4" type="passenger" depart="4.00">
        <route edges="beg" exitTimes="21.99" routeLength="500.00"/>
    </vehicle>
    <vehicle id="5" type="passenger" depart="5.00">
        <route edges="middle" exitTimes="76.94" routeLength="1000.00"/>
    </vehicle>
    <vehicle id="6" type="passenger" depart="6.00">
        <route edges="left left2end end rend" exitTimes="42.19 60.29 78.28 96.26" routeLength="2509.27"/>
    </vehicle>
    <vehicle id="7" type="passenger" depart="7.00">
        <route edges="beg2left left left2end end" exitTimes="25.10 61.29 79.39 97.37" routeLength="2512.36"/>
    </vehicle>
    <vehicle id="8" type="passenger" depart="8.00">
        <route edges="beg beg2left" exitTimes="25.99 44.08" routeLength="1003.09"/>
    </vehicle>
    <vehicle id="9" type="passenger" depart="9.00">
        <route edges="beg beg2left" exitTimes="26.99 45.08" routeLength="1003.09"/>
    </vehicle>
    <vehicle id="10" type="passenger" depart="10.00">
        <route edges="left2end end" exitTimes="28.10 46.08" routeLength="1003.09"/>
    </vehicle>
    <vehicle id="11" type="passenger" depart="11.00">
        <route edges="beg2left left left2end end rend" exitTimes="29.10 65.29 83.39 101.37 119.36" routeLength="3012.36"/>
    </vehicle>
    <vehicle id="12" type="passenger" depart="12.00">
        <route edges="left2end" exitTimes="30.10" routeLength="503.09"/>
    </vehicle>
    <vehicle id="13" type="passenger" depart="13.00">
        <route edges="beg2left left left2end end" exitTimes="31.10 67.29 85.39 103.37" routeLength="2512.36"/>
    </vehicle>
    <vehicle id="14" type="passenger" depart="14.00">
        <route edges="left left2end" exitTimes="50.19 68.29" routeLength="1509.27"/>
    </vehicle>
    <vehicle id="15" type="passenger" depart="15.00">
        <route edges="middle" exitTimes="86.94" routeLength="1000.00"/>
    </vehicle>
    <vehicle id="16" type="passenger" depart="16.00">
        <route edges="beg2left left left2end end rend" exitTimes="34.10 70.29 88.39 106.37 124.36" routeLength="3012.36"/>
    </vehicle>
    <vehicle id="17" type="passenger" depart="17.00">
        <route edges="left2end end" exitTimes="35.10 53.08" routeLength="1003.09"/>
    </vehicle>
    <vehicle id="18" type="passenger" depart="18.00">
        <route edges="beg2left" exitTimes="36.10" routeLength="503.09"/>
    </vehicle>
    <vehicle id="19" type="passenger" depart="19.00">
        <route edges="left2end end rend" exitTimes="37.10 55.08 73.07" routeLength="1503.09"/>
    </vehicle>
</routes>
