<?xml version="1.0" encoding="UTF-8"?>

<!-- generated on 2023-01-06 08:14:46 by Eclipse SUMO netconvert Version v1_15_0+1362-339c192
This data file and the accompanying materials
are made available under the terms of the Eclipse Public License v2.0
which accompanies this distribution, and is available at
http://www.eclipse.org/legal/epl-v20.html
This file may also be made available under the following Secondary
Licenses when the conditions for such availability set forth in the Eclipse
Public License 2.0 are satisfied: GNU General Public License, version 2
or later which is available at
https://www.gnu.org/licenses/old-licenses/gpl-2.0-standalone.html
SPDX-License-Identifier: EPL-2.0 OR GPL-2.0-or-later
<configuration xmlns:xsi="http://www.w3.org/2001/XMLSchema-instance" xsi:noNamespaceSchemaLocation="http://sumo.dlr.de/xsd/netconvertConfiguration.xsd">

    <input>
        <dlr-navteq-prefix value="elmar"/>
    </input>

    <output>
        <write-license value="true"/>
        <plain-output-prefix value="plain"/>
        <output.street-names value="true"/>
    </output>

    <projection>
        <proj.utm value="true"/>
    </projection>

    <report>
        <xml-validation value="never"/>
    </report>

</configuration>
-->

<connections version="1.16" xmlns:xsi="http://www.w3.org/2001/XMLSchema-instance" xsi:noNamespaceSchemaLocation="http://sumo.dlr.de/xsd/connections_file.xsd">
    <connection from="-1" to="1" fromLane="2" toLane="2"/>

    <connection from="-2" to="2" fromLane="2" toLane="2"/>

    <connection from="-3" to="3" fromLane="2" toLane="1"/>

    <connection from="-4" to="4" fromLane="2" toLane="1"/>

    <connection from="1" to="-3" fromLane="0" toLane="0"/>
    <connection from="1" to="-2" fromLane="0" toLane="0"/>
    <connection from="1" to="-2" fromLane="1" toLane="1"/>
    <connection from="1" to="-2" fromLane="2" toLane="2"/>
    <connection from="1" to="-4" fromLane="2" toLane="2"/>
    <connection from="1" to="-1" fromLane="2" toLane="2"/>

    <connection from="2" to="-4" fromLane="0" toLane="0"/>
    <connection from="2" to="-1" fromLane="0" toLane="0"/>
    <connection from="2" to="-1" fromLane="1" toLane="1"/>
    <connection from="2" to="-1" fromLane="2" toLane="2"/>
    <connection from="2" to="-3" fromLane="2" toLane="2"/>
    <connection from="2" to="-2" fromLane="2" toLane="2"/>

    <connection from="3" to="-2" fromLane="0" toLane="0"/>
    <connection from="3" to="-4" fromLane="0" toLane="0"/>
    <connection from="3" to="-4" fromLane="1" toLane="1"/>
    <connection from="3" to="-4" fromLane="1" toLane="2"/>
    <connection from="3" to="-1" fromLane="1" toLane="2"/>
    <connection from="3" to="-3" fromLane="1" toLane="2"/>

    <connection from="4" to="-1" fromLane="0" toLane="0"/>
    <connection from="4" to="-3" fromLane="0" toLane="0"/>
    <connection from="4" to="-3" fromLane="1" toLane="1"/>
    <connection from="4" to="-3" fromLane="1" toLane="2"/>
    <connection from="4" to="-2" fromLane="1" toLane="2"/>
    <connection from="4" to="-4" fromLane="1" toLane="2"/>

</connections>
