<?xml version="1.0" encoding="UTF-8"?>
<!-- generated on 2020-12-15 07:18:49.365095 by netdiff.py v1_8_0+0245-a8a7ca15b4
  options: source.net.xml dest.net.xml diff <doubleminus>copy location
-->
<nodes version="1.9" xmlns:xsi="http://www.w3.org/2001/XMLSchema-instance" xsi:noNamespaceSchemaLocation="http://sumo.dlr.de/xsd/nodes_file.xsd">
    <!-- Copied Elements -->
    <!-- Deleted Elements -->
    <delete id="W"/>
    <!-- Created Elements -->
    <!-- Changed Elements -->
</nodes>
