<?xml version="1.0" encoding="UTF-8"?>
<edges version="1.6" xmlns:xsi="http://www.w3.org/2001/XMLSchema-instance" xsi:noNamespaceSchemaLocation="http://sumo.dlr.de/xsd/edgediff_file.xsd">
    <!-- Copied Elements -->
    <!-- Deleted Elements -->
    <delete id="CW"/>
    <delete id="WC"/>
    <!-- Created Elements -->
    <!-- Changed Elements -->
</edges>
