<?xml version="1.0" encoding="UTF-8"?>

<!-- generated on Thu 21 Mar 2019 10:16:58 PM CET by Eclipse SUMO netedit Version v1_1_0+0435-678c69824b
<configuration xmlns:xsi="http://www.w3.org/2001/XMLSchema-instance" xsi:noNamespaceSchemaLocation="http://sumo.dlr.de/xsd/netconvertConfiguration.xsd">

    <input>
        <new value="true"/>
    </input>

    <output>
        <output-file value="/home/kobo/dlr/debug/5350/input_net.net.xml"/>
    </output>

</configuration>
-->

<net version="1.1" junctionCornerDetail="5" limitTurnSpeed="5.50" xmlns:xsi="http://www.w3.org/2001/XMLSchema-instance" xsi:noNamespaceSchemaLocation="http://sumo.dlr.de/xsd/net_file.xsd">

    <location netOffset="0.00,0.00" convBoundary="0.00,0.00,100.00,20.95" origBoundary="10000000000.00,10000000000.00,-10000000000.00,-10000000000.00" projParameter="!"/>

    <edge id="gneE0" from="gneJ0" to="gneJ1" priority="-1" shape="0.00,0.00 48.97,20.95 100.00,0.00">
        <lane id="gneE0_0" index="0" speed="13.89" length="107.08" shape="0.63,-1.47 48.98,19.22 99.39,-1.48"/>
    </edge>

    <junction id="gneJ0" type="dead_end" x="0.00" y="0.00" incLanes="" intLanes="" shape="-0.00,-0.00 1.26,-2.94"/>
    <junction id="gneJ1" type="dead_end" x="100.00" y="0.00" incLanes="gneE0_0" intLanes="" shape="98.78,-2.96 100.00,0.00"/>

</net>
