<?xml version="1.0" encoding="UTF-8"?>

<!-- generated on 01.09.2020 13:31:41 by Eclipse SUMO netedit Version v1_6_0+1866-3a89286b31
<configuration xmlns:xsi="http://www.w3.org/2001/XMLSchema-instance" xsi:noNamespaceSchemaLocation="http://sumo.dlr.de/xsd/netconvertConfiguration.xsd">

    <input>
        <sumo-net-file value="C:\Users\alva_pa\.texttest\tmp\netedit.gui.3_from_01Sep123353.8692\netedit.gui\demandElements\stop\stopContainerStop\inspect_selection\triggered\input_net.net.xml"/>
    </input>

    <output>
        <output-file value="C:\Users\alva_pa\.texttest\tmp\netedit.gui.3_from_01Sep123353.8692\netedit.gui\demandElements\stop\stopContainerStop\inspect_selection\triggered\net.net.xml"/>
    </output>

    <processing>
        <geometry.min-radius.fix.railways value="false"/>
        <geometry.max-grade.fix value="false"/>
        <offset.disable-normalization value="true"/>
        <lefthand value="false"/>
    </processing>

    <junctions>
        <no-turnarounds value="true"/>
        <junctions.corner-detail value="5"/>
        <junctions.limit-turn-speed value="5.5"/>
        <rectangular-lane-cut value="false"/>
    </junctions>

    <pedestrian>
        <walkingareas value="false"/>
    </pedestrian>

    <netedit>
        <additional-files value="C:\Users\alva_pa\.texttest\tmp\netedit.gui.3_from_01Sep123353.8692\netedit.gui\demandElements\stop\stopContainerStop\inspect_selection\triggered\additionals.xml"/>
        <additionals-output value="C:\Users\alva_pa\.texttest\tmp\netedit.gui.3_from_01Sep123353.8692\netedit.gui\demandElements\stop\stopContainerStop\inspect_selection\triggered\additionals.xml"/>
        <route-files value="C:\Users\alva_pa\.texttest\tmp\netedit.gui.3_from_01Sep123353.8692\netedit.gui\demandElements\stop\stopContainerStop\inspect_selection\triggered\routes.xml"/>
        <demandelements-output value="C:\Users\alva_pa\.texttest\tmp\netedit.gui.3_from_01Sep123353.8692\netedit.gui\demandElements\stop\stopContainerStop\inspect_selection\triggered\routes.xml"/>
        <data-files value="C:\Users\alva_pa\.texttest\tmp\netedit.gui.3_from_01Sep123353.8692\netedit.gui\demandElements\stop\stopContainerStop\inspect_selection\triggered\datas.xml"/>
        <dataelements-output value="C:\Users\alva_pa\.texttest\tmp\netedit.gui.3_from_01Sep123353.8692\netedit.gui\demandElements\stop\stopContainerStop\inspect_selection\triggered\datas.xml"/>
    </netedit>

    <visualisation>
        <gui-settings-file value="C:\Users\alva_pa\.texttest\tmp\netedit.gui.3_from_01Sep123353.8692\netedit.gui\demandElements\stop\stopContainerStop\inspect_selection\triggered\gui-settings.xml"/>
        <window-size value="700,500"/>
        <window-pos value="50,50"/>
        <gui-testing value="true"/>
        <gui-testing-debug value="true"/>
        <gui-testing-debug-gl value="true"/>
        <gui-testing.setting-output value="C:\Users\alva_pa\.texttest\tmp\netedit.gui.3_from_01Sep123353.8692\netedit.gui\demandElements\stop\stopContainerStop\inspect_selection\triggered\guisettingsoutput.xml"/>
    </visualisation>

    <report>
        <no-warnings value="true"/>
        <aggregate-warnings value="5"/>
        <error-log value="C:\Users\alva_pa\.texttest\tmp\netedit.gui.3_from_01Sep123353.8692\netedit.gui\demandElements\stop\stopContainerStop\inspect_selection\triggered\log.txt"/>
    </report>

</configuration>
-->

<routes xmlns:xsi="http://www.w3.org/2001/XMLSchema-instance" xsi:noNamespaceSchemaLocation="http://sumo.dlr.de/xsd/routes_file.xsd">
    <trip id="trip" depart="0.00" from="gneE0" to="gneE1">
        <stop containerStop="containerStopA" duration="70.00" until="12.00" extension="10.00" triggered="person container" parking="1" expected="IDA" expectedContainers="IDB" tripId="IDC"/>
        <stop containerStop="containerStopB" duration="60.00" extension="20.00" triggered="person"/>
    </trip>
</routes>
