<routes>
    <vType id="slow" sigma="0" maxSpeed="2"/>
    <vType id="fast" sigma="0"/>
    <route id="r0" edges="SC CN"/>
    <vehicle id="leader" type="slow" route="r0" depart="0" departPos="-10" arrivalLane="0"/>
    <vehicle id="follower" type="fast" route="r0" depart="1" departPos="-10" arrivalLane="1"/>
</routes>
