<?xml version="1.0" encoding="UTF-8"?>

<!-- generated on 2022-02-22 12:36:11 by Eclipse SUMO netedit Version v1_12_0+0728-c7bfe9a0f6f
<configuration xmlns:xsi="http://www.w3.org/2001/XMLSchema-instance" xsi:noNamespaceSchemaLocation="http://sumo.dlr.de/xsd/netconvertConfiguration.xsd">

    <input>
        <sumo-net-file value="C:\Users\SUMO-Test\.texttest\tmp\netedit.gui.22Feb123347.7796\netedit.gui\additionalElements\e2multilanedetector\load\pos\input_net.net.xml"/>
    </input>

    <output>
        <output-file value="C:\Users\SUMO-Test\.texttest\tmp\netedit.gui.22Feb123347.7796\netedit.gui\additionalElements\e2multilanedetector\load\pos\net.net.xml"/>
    </output>

    <processing>
        <geometry.min-radius.fix.railways value="false"/>
        <geometry.max-grade.fix value="false"/>
        <offset.disable-normalization value="true"/>
        <lefthand value="false"/>
    </processing>

    <junctions>
        <no-turnarounds value="true"/>
        <junctions.corner-detail value="5"/>
        <junctions.limit-turn-speed value="5.5"/>
        <rectangular-lane-cut value="false"/>
    </junctions>

    <pedestrian>
        <walkingareas value="false"/>
    </pedestrian>

    <netedit>
        <additional-files value="C:\Users\SUMO-Test\.texttest\tmp\netedit.gui.22Feb123347.7796\netedit.gui\additionalElements\e2multilanedetector\load\pos\additionals.xml"/>
        <additionals-output value="C:\Users\SUMO-Test\.texttest\tmp\netedit.gui.22Feb123347.7796\netedit.gui\additionalElements\e2multilanedetector\load\pos\additionals.xml"/>
        <route-files value="C:\Users\SUMO-Test\.texttest\tmp\netedit.gui.22Feb123347.7796\netedit.gui\additionalElements\e2multilanedetector\load\pos\routes.xml"/>
        <demandelements-output value="C:\Users\SUMO-Test\.texttest\tmp\netedit.gui.22Feb123347.7796\netedit.gui\additionalElements\e2multilanedetector\load\pos\routes.xml"/>
        <data-files value="C:\Users\SUMO-Test\.texttest\tmp\netedit.gui.22Feb123347.7796\netedit.gui\additionalElements\e2multilanedetector\load\pos\datas.xml"/>
        <dataelements-output value="C:\Users\SUMO-Test\.texttest\tmp\netedit.gui.22Feb123347.7796\netedit.gui\additionalElements\e2multilanedetector\load\pos\datas.xml"/>
    </netedit>

    <visualisation>
        <gui-settings-file value="C:\Users\SUMO-Test\.texttest\tmp\netedit.gui.22Feb123347.7796\netedit.gui\additionalElements\e2multilanedetector\load\pos\gui-settings.xml"/>
        <window-size value="936,697"/>
        <window-pos value="50,50"/>
        <gui-testing value="true"/>
        <gui-testing-debug value="true"/>
        <gui-testing-debug-gl value="true"/>
        <gui-testing.setting-output value="C:\Users\SUMO-Test\.texttest\tmp\netedit.gui.22Feb123347.7796\netedit.gui\additionalElements\e2multilanedetector\load\pos\guisettingsoutput.xml"/>
    </visualisation>

    <report>
        <no-warnings value="true"/>
        <aggregate-warnings value="5"/>
        <error-log value="C:\Users\SUMO-Test\.texttest\tmp\netedit.gui.22Feb123347.7796\netedit.gui\additionalElements\e2multilanedetector\load\pos\log.txt"/>
    </report>

</configuration>
-->

<additional xmlns:xsi="http://www.w3.org/2001/XMLSchema-instance" xsi:noNamespaceSchemaLocation="http://sumo.dlr.de/xsd/additional_file.xsd">
    <e2Detector id="e2MultilaneDetector_2" lanes="gneE2_0 gneE3_0" pos="10.00" endPos="15.00" freq="900.00" file="e2MultilaneDetector_2.xml"/>
    <e2Detector id="e2MultilaneDetector_3" lanes="gneE2_0 gneE3_0" pos="-15.00" endPos="15.00" freq="900.00" file="e2MultilaneDetector_3.xml" friendlyPos="1"/>
    <e2Detector id="e2MultilaneDetector_5" lanes="gneE2_0 gneE3_0" pos="600.00" endPos="15.00" freq="900.00" file="e2MultilaneDetector_5.xml" friendlyPos="1"/>
    <e2Detector id="e2MultilaneDetector_6" lanes="gneE2_0 gneE3_0" pos="12.50" endPos="15.00" freq="900.00" file="e2MultilaneDetector_6.xml"/>
</additional>
