<?xml version="1.0"?>

<!-- generated on 07/20/09 15:12:18 by SUMO sumo Version dev-SVN-r7459
<configuration>

    <input
        net-file="net.net.xml"
        additional-files="input_additional.add.xml,input_additional2.add.xml"
    />

    <time
        begin="0"
        end="200"
    />

    <report
        no-duration-log="true"
        no-step-log="true"
    />

    <traci_server
        remote-port="8863"
        penetration="0.7"
    />

</configuration>
-->

<tls-states>
    <tlsstate time="0" id="1/1" subid="prog1" phase="0">GGGGGGGGGGGGGGGG</tlsstate>
    <tlsstate time="1" id="1/1" subid="prog1" phase="0">GGGGGGGGGGGGGGGG</tlsstate>
    <tlsstate time="2" id="1/1" subid="prog1" phase="0">GGGGGGGGGGGGGGGG</tlsstate>
    <tlsstate time="3" id="1/1" subid="prog1" phase="0">GGGGGGGGGGGGGGGG</tlsstate>
    <tlsstate time="4" id="1/1" subid="prog1" phase="0">GGGGGGGGGGGGGGGG</tlsstate>
    <tlsstate time="5" id="1/1" subid="prog1" phase="0">GGGGGGGGGGGGGGGG</tlsstate>
    <tlsstate time="6" id="1/1" subid="prog1" phase="0">GGGGGGGGGGGGGGGG</tlsstate>
    <tlsstate time="7" id="1/1" subid="prog1" phase="0">GGGGGGGGGGGGGGGG</tlsstate>
    <tlsstate time="8" id="1/1" subid="prog1" phase="0">GGGGGGGGGGGGGGGG</tlsstate>
    <tlsstate time="9" id="1/1" subid="prog1" phase="0">GGGGGGGGGGGGGGGG</tlsstate>
    <tlsstate time="10" id="1/1" subid="prog1" phase="1">yyyyyyyyyyyyyyyy</tlsstate>
    <tlsstate time="11" id="1/1" subid="prog1" phase="1">yyyyyyyyyyyyyyyy</tlsstate>
    <tlsstate time="12" id="1/1" subid="prog1" phase="1">yyyyyyyyyyyyyyyy</tlsstate>
    <tlsstate time="13" id="1/1" subid="prog1" phase="1">yyyyyyyyyyyyyyyy</tlsstate>
    <tlsstate time="14" id="1/1" subid="prog1" phase="1">yyyyyyyyyyyyyyyy</tlsstate>
    <tlsstate time="15" id="1/1" subid="prog1" phase="1">yyyyyyyyyyyyyyyy</tlsstate>
    <tlsstate time="16" id="1/1" subid="prog1" phase="1">yyyyyyyyyyyyyyyy</tlsstate>
    <tlsstate time="17" id="1/1" subid="prog1" phase="1">yyyyyyyyyyyyyyyy</tlsstate>
    <tlsstate time="18" id="1/1" subid="prog1" phase="1">yyyyyyyyyyyyyyyy</tlsstate>
    <tlsstate time="19" id="1/1" subid="prog1" phase="1">yyyyyyyyyyyyyyyy</tlsstate>
    <tlsstate time="20" id="1/1" subid="prog1" phase="0">rrrrrrrrrrrrrrrr</tlsstate>
    <tlsstate time="21" id="1/1" subid="prog1" phase="0">rrrrrrrrrrrrrrrr</tlsstate>
    <tlsstate time="22" id="1/1" subid="prog1" phase="0">rrrrrrrrrrrrrrrr</tlsstate>
    <tlsstate time="23" id="1/1" subid="prog1" phase="0">rrrrrrrrrrrrrrrr</tlsstate>
    <tlsstate time="24" id="1/1" subid="prog1" phase="0">rrrrrrrrrrrrrrrr</tlsstate>
    <tlsstate time="25" id="1/1" subid="prog1" phase="0">rrrrrrrrrrrrrrrr</tlsstate>
    <tlsstate time="26" id="1/1" subid="prog1" phase="0">rrrrrrrrrrrrrrrr</tlsstate>
    <tlsstate time="27" id="1/1" subid="prog1" phase="0">rrrrrrrrrrrrrrrr</tlsstate>
    <tlsstate time="28" id="1/1" subid="prog1" phase="0">rrrrrrrrrrrrrrrr</tlsstate>
    <tlsstate time="29" id="1/1" subid="prog1" phase="0">rrrrrrrrrrrrrrrr</tlsstate>
    <tlsstate time="30" id="1/1" subid="prog1" phase="1">yyyyyyyyyyyyyyyy</tlsstate>
    <tlsstate time="31" id="1/1" subid="prog1" phase="1">yyyyyyyyyyyyyyyy</tlsstate>
    <tlsstate time="32" id="1/1" subid="prog1" phase="1">yyyyyyyyyyyyyyyy</tlsstate>
    <tlsstate time="33" id="1/1" subid="prog1" phase="1">yyyyyyyyyyyyyyyy</tlsstate>
    <tlsstate time="34" id="1/1" subid="prog1" phase="1">yyyyyyyyyyyyyyyy</tlsstate>
    <tlsstate time="35" id="1/1" subid="prog1" phase="1">yyyyyyyyyyyyyyyy</tlsstate>
    <tlsstate time="36" id="1/1" subid="prog1" phase="1">yyyyyyyyyyyyyyyy</tlsstate>
    <tlsstate time="37" id="1/1" subid="prog1" phase="1">yyyyyyyyyyyyyyyy</tlsstate>
    <tlsstate time="38" id="1/1" subid="prog1" phase="1">yyyyyyyyyyyyyyyy</tlsstate>
    <tlsstate time="39" id="1/1" subid="prog1" phase="1">yyyyyyyyyyyyyyyy</tlsstate>
    <tlsstate time="40" id="1/1" subid="prog1" phase="0">rrrrrrrrrrrrrrrr</tlsstate>
    <tlsstate time="41" id="1/1" subid="prog1" phase="0">rrrrrrrrrrrrrrrr</tlsstate>
    <tlsstate time="42" id="1/1" subid="prog1" phase="0">rrrrrrrrrrrrrrrr</tlsstate>
    <tlsstate time="43" id="1/1" subid="prog1" phase="0">rrrrrrrrrrrrrrrr</tlsstate>
    <tlsstate time="44" id="1/1" subid="prog1" phase="0">rrrrrrrrrrrrrrrr</tlsstate>
    <tlsstate time="45" id="1/1" subid="prog1" phase="1">yyyyyyyyyyyyyyyy</tlsstate>
    <tlsstate time="46" id="1/1" subid="prog1" phase="1">yyyyyyyyyyyyyyyy</tlsstate>
    <tlsstate time="47" id="1/1" subid="prog1" phase="1">yyyyyyyyyyyyyyyy</tlsstate>
    <tlsstate time="48" id="1/1" subid="prog1" phase="1">yyyyyyyyyyyyyyyy</tlsstate>
    <tlsstate time="49" id="1/1" subid="prog1" phase="1">yyyyyyyyyyyyyyyy</tlsstate>
    <tlsstate time="50" id="1/1" subid="prog1" phase="0">rrrrrrrrrrrrrrrr</tlsstate>
    <tlsstate time="51" id="1/1" subid="prog1" phase="0">rrrrrrrrrrrrrrrr</tlsstate>
</tls-states>
