<?xml version="1.0"?>

<!-- generated on 07/22/09 08:11:50 by SUMO sumo Version dev-SVN-r7459
<configuration>

    <input
        net-file="net.net.xml"
        route-files="input_routes.rou.xml"
    />

    <output
        netstate-dump="rawdump.xml"
    />

    <report
        no-duration-log="true"
        no-step-log="true"
    />

</configuration>
-->

<sumo-netstate>
   <timestep time="0.00">
   </timestep>
   <timestep time="1.00">
      <edge id="1fi">
         <lane id="1fi_0">
            <vehicle id="veh0" pos="0.00" speed="0.00"/>
         </lane>
         <lane id="1fi_1"/>
      </edge>
   </timestep>
   <timestep time="2.00">
      <edge id="1fi">
         <lane id="1fi_0">
            <vehicle id="veh0" pos="1.48" speed="1.48"/>
         </lane>
         <lane id="1fi_1"/>
      </edge>
   </timestep>
   <timestep time="3.00">
      <edge id="1fi">
         <lane id="1fi_0">
            <vehicle id="veh0" pos="2.80" speed="1.32"/>
         </lane>
         <lane id="1fi_1"/>
      </edge>
   </timestep>
   <timestep time="4.00">
      <edge id="1fi">
         <lane id="1fi_0">
            <vehicle id="veh0" pos="3.85" speed="1.04"/>
         </lane>
         <lane id="1fi_1"/>
      </edge>
   </timestep>
   <timestep time="5.00">
      <edge id="1fi">
         <lane id="1fi_0">
            <vehicle id="veh0" pos="3.96" speed="0.11"/>
         </lane>
         <lane id="1fi_1"/>
      </edge>
   </timestep>
   <timestep time="6.00">
      <edge id="1fi">
         <lane id="1fi_0">
            <vehicle id="veh0" pos="3.96" speed="0.00"/>
         </lane>
         <lane id="1fi_1"/>
      </edge>
   </timestep>
   <timestep time="7.00">
      <edge id="1fi">
         <lane id="1fi_0">
            <vehicle id="veh0" pos="3.96" speed="0.00"/>
         </lane>
         <lane id="1fi_1"/>
      </edge>
   </timestep>
   <timestep time="8.00">
      <edge id="1fi">
         <lane id="1fi_0">
            <vehicle id="veh0" pos="3.96" speed="0.00"/>
         </lane>
         <lane id="1fi_1"/>
      </edge>
   </timestep>
   <timestep time="9.00">
      <edge id="1fi">
         <lane id="1fi_0">
            <vehicle id="veh0" pos="3.96" speed="0.00"/>
         </lane>
         <lane id="1fi_1"/>
      </edge>
   </timestep>
   <timestep time="10.00">
      <edge id="1fi">
         <lane id="1fi_0">
            <vehicle id="veh0" pos="3.96" speed="0.00"/>
         </lane>
         <lane id="1fi_1"/>
      </edge>
   </timestep>
   <timestep time="11.00">
      <edge id="1fi">
         <lane id="1fi_0">
            <vehicle id="veh0" pos="3.96" speed="0.00"/>
         </lane>
         <lane id="1fi_1"/>
      </edge>
   </timestep>
   <timestep time="12.00">
      <edge id="1fi">
         <lane id="1fi_0">
            <vehicle id="veh0" pos="3.96" speed="0.00"/>
         </lane>
         <lane id="1fi_1"/>
      </edge>
   </timestep>
   <timestep time="13.00">
      <edge id="1fi">
         <lane id="1fi_0">
            <vehicle id="veh0" pos="3.96" speed="0.00"/>
         </lane>
         <lane id="1fi_1"/>
      </edge>
   </timestep>
   <timestep time="14.00">
      <edge id="1fi">
         <lane id="1fi_0">
            <vehicle id="veh0" pos="3.96" speed="0.00"/>
         </lane>
         <lane id="1fi_1"/>
      </edge>
   </timestep>
   <timestep time="15.00">
      <edge id="1fi">
         <lane id="1fi_0">
            <vehicle id="veh0" pos="3.96" speed="0.00"/>
         </lane>
         <lane id="1fi_1"/>
      </edge>
   </timestep>
   <timestep time="16.00">
      <edge id="1fi">
         <lane id="1fi_0">
            <vehicle id="veh0" pos="3.99" speed="0.03"/>
         </lane>
         <lane id="1fi_1"/>
      </edge>
   </timestep>
   <timestep time="17.00">
      <edge id="1fi">
         <lane id="1fi_0">
            <vehicle id="veh0" pos="6.28" speed="2.30"/>
         </lane>
         <lane id="1fi_1"/>
      </edge>
   </timestep>
   <timestep time="18.00">
      <edge id="1fi">
         <lane id="1fi_0">
            <vehicle id="veh0" pos="11.02" speed="4.74"/>
         </lane>
         <lane id="1fi_1"/>
      </edge>
   </timestep>
   <timestep time="19.00">
      <edge id="1fi">
         <lane id="1fi_0">
            <vehicle id="veh0" pos="17.16" speed="6.14"/>
         </lane>
         <lane id="1fi_1"/>
      </edge>
   </timestep>
   <timestep time="20.00">
      <edge id="1fi">
         <lane id="1fi_0">
            <vehicle id="veh0" pos="25.31" speed="8.14"/>
         </lane>
         <lane id="1fi_1"/>
      </edge>
   </timestep>
   <timestep time="21.00">
      <edge id="1fi">
         <lane id="1fi_0">
            <vehicle id="veh0" pos="34.99" speed="9.69"/>
         </lane>
         <lane id="1fi_1"/>
      </edge>
   </timestep>
   <timestep time="22.00">
      <edge id="1fi">
         <lane id="1fi_0">
            <vehicle id="veh0" pos="46.05" speed="11.06"/>
         </lane>
         <lane id="1fi_1"/>
      </edge>
   </timestep>
   <timestep time="23.00">
      <edge id="1fi">
         <lane id="1fi_0">
            <vehicle id="veh0" pos="56.60" speed="10.55"/>
         </lane>
         <lane id="1fi_1"/>
      </edge>
   </timestep>
   <timestep time="24.00">
      <edge id="1fi">
         <lane id="1fi_0">
            <vehicle id="veh0" pos="67.37" speed="10.77"/>
         </lane>
         <lane id="1fi_1"/>
      </edge>
   </timestep>
   <timestep time="25.00">
      <edge id="1fi">
         <lane id="1fi_0">
            <vehicle id="veh0" pos="77.79" speed="10.42"/>
         </lane>
         <lane id="1fi_1"/>
      </edge>
   </timestep>
   <timestep time="26.00">
      <edge id="1fi">
         <lane id="1fi_0">
            <vehicle id="veh0" pos="87.87" speed="10.08"/>
         </lane>
         <lane id="1fi_1"/>
      </edge>
   </timestep>
   <timestep time="27.00">
      <edge id="1fi">
         <lane id="1fi_0">
            <vehicle id="veh0" pos="98.08" speed="10.21"/>
         </lane>
         <lane id="1fi_1"/>
      </edge>
   </timestep>
   <timestep time="28.00">
      <edge id="1fi">
         <lane id="1fi_0">
            <vehicle id="veh0" pos="108.22" speed="10.14"/>
         </lane>
         <lane id="1fi_1"/>
      </edge>
   </timestep>
   <timestep time="29.00">
      <edge id="1fi">
         <lane id="1fi_0">
            <vehicle id="veh0" pos="118.90" speed="10.68"/>
         </lane>
         <lane id="1fi_1"/>
      </edge>
   </timestep>
   <timestep time="30.00">
      <edge id="1fi">
         <lane id="1fi_0">
            <vehicle id="veh0" pos="129.41" speed="10.51"/>
         </lane>
         <lane id="1fi_1"/>
      </edge>
   </timestep>
   <timestep time="31.00">
      <edge id="1fi">
         <lane id="1fi_0">
            <vehicle id="veh0" pos="140.26" speed="10.85"/>
         </lane>
         <lane id="1fi_1"/>
      </edge>
   </timestep>
   <timestep time="32.00">
      <edge id="1fi">
         <lane id="1fi_0">
            <vehicle id="veh0" pos="151.34" speed="11.07"/>
         </lane>
         <lane id="1fi_1"/>
      </edge>
   </timestep>
   <timestep time="33.00">
      <edge id="1fi">
         <lane id="1fi_0">
            <vehicle id="veh0" pos="162.12" speed="10.78"/>
         </lane>
         <lane id="1fi_1"/>
      </edge>
   </timestep>
   <timestep time="34.00">
      <edge id="1fi">
         <lane id="1fi_0">
            <vehicle id="veh0" pos="172.39" speed="10.27"/>
         </lane>
         <lane id="1fi_1"/>
      </edge>
   </timestep>
   <timestep time="35.00">
      <edge id="1fi">
         <lane id="1fi_0">
            <vehicle id="veh0" pos="183.33" speed="10.94"/>
         </lane>
         <lane id="1fi_1"/>
      </edge>
   </timestep>
   <timestep time="36.00">
      <edge id="1fi">
         <lane id="1fi_0">
            <vehicle id="veh0" pos="193.39" speed="10.06"/>
         </lane>
         <lane id="1fi_1"/>
      </edge>
   </timestep>
   <timestep time="37.00">
      <edge id="1fi">
         <lane id="1fi_0">
            <vehicle id="veh0" pos="204.47" speed="11.08"/>
         </lane>
         <lane id="1fi_1"/>
      </edge>
   </timestep>
   <timestep time="38.00">
      <edge id="1fi">
         <lane id="1fi_0">
            <vehicle id="veh0" pos="214.83" speed="10.36"/>
         </lane>
         <lane id="1fi_1"/>
      </edge>
   </timestep>
   <timestep time="39.00">
      <edge id="1fi">
         <lane id="1fi_0">
            <vehicle id="veh0" pos="225.58" speed="10.75"/>
         </lane>
         <lane id="1fi_1"/>
      </edge>
   </timestep>
   <timestep time="40.00">
      <edge id="1fi">
         <lane id="1fi_0">
            <vehicle id="veh0" pos="236.55" speed="10.97"/>
         </lane>
         <lane id="1fi_1"/>
      </edge>
   </timestep>
   <timestep time="41.00">
      <edge id="1fi">
         <lane id="1fi_0">
            <vehicle id="veh0" pos="246.19" speed="9.64"/>
         </lane>
         <lane id="1fi_1"/>
      </edge>
   </timestep>
   <timestep time="42.00">
      <edge id=":m1_0">
         <lane id=":m1_0_0">
            <vehicle id="veh0" pos="3.53" speed="5.84"/>
         </lane>
      </edge>
   </timestep>
   <timestep time="43.00">
      <edge id="1si">
         <lane id="1si_0">
            <vehicle id="veh0" pos="1.42" speed="2.35"/>
         </lane>
         <lane id="1si_1"/>
         <lane id="1si_2"/>
      </edge>
   </timestep>
   <timestep time="44.00">
      <edge id="1si">
         <lane id="1si_0">
            <vehicle id="veh0" pos="3.24" speed="1.82"/>
         </lane>
         <lane id="1si_1"/>
         <lane id="1si_2"/>
      </edge>
   </timestep>
   <timestep time="45.00">
      <edge id="1si">
         <lane id="1si_0">
            <vehicle id="veh0" pos="3.87" speed="0.63"/>
         </lane>
         <lane id="1si_1"/>
         <lane id="1si_2"/>
      </edge>
   </timestep>
   <timestep time="46.00">
      <edge id="1si">
         <lane id="1si_0">
            <vehicle id="veh0" pos="3.99" speed="0.12"/>
         </lane>
         <lane id="1si_1"/>
         <lane id="1si_2"/>
      </edge>
   </timestep>
   <timestep time="47.00">
      <edge id="1si">
         <lane id="1si_0">
            <vehicle id="veh0" pos="3.99" speed="0.00"/>
         </lane>
         <lane id="1si_1"/>
         <lane id="1si_2"/>
      </edge>
   </timestep>
   <timestep time="48.00">
      <edge id="1si">
         <lane id="1si_0">
            <vehicle id="veh0" pos="3.99" speed="0.00"/>
         </lane>
         <lane id="1si_1"/>
         <lane id="1si_2"/>
      </edge>
   </timestep>
   <timestep time="49.00">
      <edge id="1si">
         <lane id="1si_0">
            <vehicle id="veh0" pos="3.99" speed="0.00"/>
         </lane>
         <lane id="1si_1"/>
         <lane id="1si_2"/>
      </edge>
   </timestep>
   <timestep time="50.00">
      <edge id="1si">
         <lane id="1si_0">
            <vehicle id="veh0" pos="3.99" speed="0.00"/>
         </lane>
         <lane id="1si_1"/>
         <lane id="1si_2"/>
      </edge>
   </timestep>
   <timestep time="51.00">
      <edge id="1si">
         <lane id="1si_0">
            <vehicle id="veh0" pos="3.99" speed="0.00"/>
         </lane>
         <lane id="1si_1"/>
         <lane id="1si_2"/>
      </edge>
   </timestep>
   <timestep time="52.00">
      <edge id="1si">
         <lane id="1si_0">
            <vehicle id="veh0" pos="3.99" speed="0.00"/>
         </lane>
         <lane id="1si_1"/>
         <lane id="1si_2"/>
      </edge>
   </timestep>
   <timestep time="53.00">
      <edge id="1si">
         <lane id="1si_0">
            <vehicle id="veh0" pos="3.99" speed="0.00"/>
         </lane>
         <lane id="1si_1"/>
         <lane id="1si_2"/>
      </edge>
   </timestep>
   <timestep time="54.00">
      <edge id="1si">
         <lane id="1si_0">
            <vehicle id="veh0" pos="3.99" speed="0.00"/>
         </lane>
         <lane id="1si_1"/>
         <lane id="1si_2"/>
      </edge>
   </timestep>
   <timestep time="55.00">
      <edge id="1si">
         <lane id="1si_0">
            <vehicle id="veh0" pos="3.99" speed="0.00"/>
         </lane>
         <lane id="1si_1"/>
         <lane id="1si_2"/>
      </edge>
   </timestep>
   <timestep time="56.00">
      <edge id="1si">
         <lane id="1si_0">
            <vehicle id="veh0" pos="3.99" speed="0.00"/>
         </lane>
         <lane id="1si_1"/>
         <lane id="1si_2"/>
      </edge>
   </timestep>
   <timestep time="57.00">
      <edge id="1si">
         <lane id="1si_0"/>
         <lane id="1si_1">
            <vehicle id="veh0" pos="4.00" speed="0.01"/>
         </lane>
         <lane id="1si_2"/>
      </edge>
   </timestep>
   <timestep time="58.00">
      <edge id="1si">
         <lane id="1si_0"/>
         <lane id="1si_1"/>
         <lane id="1si_2">
            <vehicle id="veh0" pos="5.99" speed="1.99"/>
         </lane>
      </edge>
   </timestep>
   <timestep time="59.00">
      <edge id="1si">
         <lane id="1si_0"/>
         <lane id="1si_1"/>
         <lane id="1si_2">
            <vehicle id="veh0" pos="9.81" speed="3.81"/>
         </lane>
      </edge>
   </timestep>
   <timestep time="60.00">
      <edge id="1si">
         <lane id="1si_0"/>
         <lane id="1si_1"/>
         <lane id="1si_2">
            <vehicle id="veh0" pos="15.88" speed="6.07"/>
         </lane>
      </edge>
   </timestep>
   <timestep time="61.00">
      <edge id="1si">
         <lane id="1si_0"/>
         <lane id="1si_1"/>
         <lane id="1si_2">
            <vehicle id="veh0" pos="23.24" speed="7.36"/>
         </lane>
      </edge>
   </timestep>
   <timestep time="62.00">
      <edge id="1si">
         <lane id="1si_0"/>
         <lane id="1si_1"/>
         <lane id="1si_2">
            <vehicle id="veh0" pos="32.72" speed="9.48"/>
         </lane>
      </edge>
   </timestep>
   <timestep time="63.00">
      <edge id="1si">
         <lane id="1si_0"/>
         <lane id="1si_1"/>
         <lane id="1si_2">
            <vehicle id="veh0" pos="43.75" speed="11.03"/>
         </lane>
      </edge>
   </timestep>
   <timestep time="64.00">
      <edge id="1si">
         <lane id="1si_0"/>
         <lane id="1si_1"/>
         <lane id="1si_2">
            <vehicle id="veh0" pos="56.81" speed="13.06"/>
         </lane>
      </edge>
   </timestep>
   <timestep time="65.00">
      <edge id="1si">
         <lane id="1si_0"/>
         <lane id="1si_1"/>
         <lane id="1si_2">
            <vehicle id="veh0" pos="70.67" speed="13.86"/>
         </lane>
      </edge>
   </timestep>
   <timestep time="66.00">
      <edge id="1si">
         <lane id="1si_0"/>
         <lane id="1si_1"/>
         <lane id="1si_2">
            <vehicle id="veh0" pos="84.27" speed="13.60"/>
         </lane>
      </edge>
   </timestep>
   <timestep time="67.00">
      <edge id="1si">
         <lane id="1si_0"/>
         <lane id="1si_1"/>
         <lane id="1si_2">
            <vehicle id="veh0" pos="97.59" speed="13.32"/>
         </lane>
      </edge>
   </timestep>
   <timestep time="68.00">
      <edge id="1si">
         <lane id="1si_0"/>
         <lane id="1si_1"/>
         <lane id="1si_2">
            <vehicle id="veh0" pos="110.51" speed="12.92"/>
         </lane>
      </edge>
   </timestep>
   <timestep time="69.00">
      <edge id="1si">
         <lane id="1si_0"/>
         <lane id="1si_1"/>
         <lane id="1si_2">
            <vehicle id="veh0" pos="124.33" speed="13.82"/>
         </lane>
      </edge>
   </timestep>
   <timestep time="70.00">
      <edge id="1si">
         <lane id="1si_0"/>
         <lane id="1si_1"/>
         <lane id="1si_2">
            <vehicle id="veh0" pos="138.04" speed="13.70"/>
         </lane>
      </edge>
   </timestep>
   <timestep time="71.00">
      <edge id="1si">
         <lane id="1si_0"/>
         <lane id="1si_1"/>
         <lane id="1si_2">
            <vehicle id="veh0" pos="150.89" speed="12.86"/>
         </lane>
      </edge>
   </timestep>
   <timestep time="72.00">
      <edge id="1si">
         <lane id="1si_0"/>
         <lane id="1si_1"/>
         <lane id="1si_2">
            <vehicle id="veh0" pos="164.45" speed="13.56"/>
         </lane>
      </edge>
   </timestep>
   <timestep time="73.00">
      <edge id="1si">
         <lane id="1si_0"/>
         <lane id="1si_1"/>
         <lane id="1si_2">
            <vehicle id="veh0" pos="177.99" speed="13.54"/>
         </lane>
      </edge>
   </timestep>
   <timestep time="74.00">
      <edge id="1si">
         <lane id="1si_0"/>
         <lane id="1si_1"/>
         <lane id="1si_2">
            <vehicle id="veh0" pos="191.79" speed="13.80"/>
         </lane>
      </edge>
   </timestep>
   <timestep time="75.00">
      <edge id="1si">
         <lane id="1si_0"/>
         <lane id="1si_1"/>
         <lane id="1si_2">
            <vehicle id="veh0" pos="205.09" speed="13.30"/>
         </lane>
      </edge>
   </timestep>
   <timestep time="76.00">
      <edge id="1si">
         <lane id="1si_0"/>
         <lane id="1si_1"/>
         <lane id="1si_2">
            <vehicle id="veh0" pos="217.94" speed="12.85"/>
         </lane>
      </edge>
   </timestep>
   <timestep time="77.00">
      <edge id="1si">
         <lane id="1si_0"/>
         <lane id="1si_1"/>
         <lane id="1si_2">
            <vehicle id="veh0" pos="227.14" speed="9.19"/>
         </lane>
      </edge>
   </timestep>
   <timestep time="78.00">
      <edge id="1si">
         <lane id="1si_0"/>
         <lane id="1si_1"/>
         <lane id="1si_2">
            <vehicle id="veh0" pos="233.09" speed="5.95"/>
         </lane>
      </edge>
   </timestep>
   <timestep time="79.00">
      <edge id="1si">
         <lane id="1si_0"/>
         <lane id="1si_1"/>
         <lane id="1si_2">
            <vehicle id="veh0" pos="236.03" speed="2.94"/>
         </lane>
      </edge>
   </timestep>
   <timestep time="80.00">
      <edge id=":0_23">
         <lane id=":0_23_0">
            <vehicle id="veh0" pos="3.34" speed="4.56"/>
         </lane>
      </edge>
   </timestep>
   <timestep time="81.00">
      <edge id="1o">
         <lane id="1o_0">
            <vehicle id="veh0" pos="5.20" speed="6.58"/>
         </lane>
      </edge>
   </timestep>
   <timestep time="82.00">
      <edge id="1o">
         <lane id="1o_0">
            <vehicle id="veh0" pos="13.81" speed="8.61"/>
         </lane>
      </edge>
   </timestep>
   <timestep time="83.00">
      <edge id="1o">
         <lane id="1o_0">
            <vehicle id="veh0" pos="24.47" speed="10.66"/>
         </lane>
      </edge>
   </timestep>
   <timestep time="84.00">
      <edge id="1o">
         <lane id="1o_0">
            <vehicle id="veh0" pos="34.83" speed="10.37"/>
         </lane>
      </edge>
   </timestep>
   <timestep time="85.00">
      <edge id="1o">
         <lane id="1o_0">
            <vehicle id="veh0" pos="45.48" speed="10.65"/>
         </lane>
      </edge>
   </timestep>
   <timestep time="86.00">
      <edge id="1o">
         <lane id="1o_0">
            <vehicle id="veh0" pos="55.92" speed="10.44"/>
         </lane>
      </edge>
   </timestep>
   <timestep time="87.00">
      <edge id="1o">
         <lane id="1o_0">
            <vehicle id="veh0" pos="66.60" speed="10.68"/>
         </lane>
      </edge>
   </timestep>
   <timestep time="88.00">
      <edge id="1o">
         <lane id="1o_0">
            <vehicle id="veh0" pos="77.15" speed="10.55"/>
         </lane>
      </edge>
   </timestep>
   <timestep time="89.00">
      <edge id="1o">
         <lane id="1o_0">
            <vehicle id="veh0" pos="87.36" speed="10.21"/>
         </lane>
      </edge>
   </timestep>
   <timestep time="90.00">
      <edge id="1o">
         <lane id="1o_0">
            <vehicle id="veh0" pos="97.83" speed="10.47"/>
         </lane>
      </edge>
   </timestep>
   <timestep time="91.00">
      <edge id="1o">
         <lane id="1o_0">
            <vehicle id="veh0" pos="108.48" speed="10.65"/>
         </lane>
      </edge>
   </timestep>
   <timestep time="92.00">
      <edge id="1o">
         <lane id="1o_0">
            <vehicle id="veh0" pos="119.19" speed="10.71"/>
         </lane>
      </edge>
   </timestep>
   <timestep time="93.00">
      <edge id="1o">
         <lane id="1o_0">
            <vehicle id="veh0" pos="129.23" speed="10.04"/>
         </lane>
      </edge>
   </timestep>
   <timestep time="94.00">
      <edge id="1o">
         <lane id="1o_0">
            <vehicle id="veh0" pos="140.32" speed="11.08"/>
         </lane>
      </edge>
   </timestep>
   <timestep time="95.00">
      <edge id="1o">
         <lane id="1o_0">
            <vehicle id="veh0" pos="151.10" speed="10.78"/>
         </lane>
      </edge>
   </timestep>
   <timestep time="96.00">
      <edge id="1o">
         <lane id="1o_0">
            <vehicle id="veh0" pos="162.09" speed="11.00"/>
         </lane>
      </edge>
   </timestep>
   <timestep time="97.00">
      <edge id="1o">
         <lane id="1o_0">
            <vehicle id="veh0" pos="172.25" speed="10.15"/>
         </lane>
      </edge>
   </timestep>
   <timestep time="98.00">
      <edge id="1o">
         <lane id="1o_0">
            <vehicle id="veh0" pos="182.67" speed="10.43"/>
         </lane>
      </edge>
   </timestep>
   <timestep time="99.00">
      <edge id="1o">
         <lane id="1o_0">
            <vehicle id="veh0" pos="192.77" speed="10.10"/>
         </lane>
      </edge>
   </timestep>
   <timestep time="100.00">
      <edge id="1o">
         <lane id="1o_0">
            <vehicle id="veh0" pos="203.34" speed="10.57"/>
         </lane>
      </edge>
   </timestep>
   <timestep time="101.00">
      <edge id="1o">
         <lane id="1o_0">
            <vehicle id="veh0" pos="213.99" speed="10.65"/>
         </lane>
      </edge>
   </timestep>
   <timestep time="102.00">
      <edge id="1o">
         <lane id="1o_0">
            <vehicle id="veh0" pos="224.32" speed="10.33"/>
         </lane>
      </edge>
   </timestep>
   <timestep time="103.00">
      <edge id="1o">
         <lane id="1o_0">
            <vehicle id="veh0" pos="234.93" speed="10.61"/>
         </lane>
      </edge>
   </timestep>
   <timestep time="104.00">
      <edge id="1o">
         <lane id="1o_0">
            <vehicle id="veh0" pos="245.08" speed="10.15"/>
         </lane>
      </edge>
   </timestep>
   <timestep time="105.00">
      <edge id="1o">
         <lane id="1o_0">
            <vehicle id="veh0" pos="255.57" speed="10.48"/>
         </lane>
      </edge>
   </timestep>
   <timestep time="106.00">
      <edge id="1o">
         <lane id="1o_0">
            <vehicle id="veh0" pos="265.61" speed="10.05"/>
         </lane>
      </edge>
   </timestep>
   <timestep time="107.00">
      <edge id="1o">
         <lane id="1o_0">
            <vehicle id="veh0" pos="276.40" speed="10.79"/>
         </lane>
      </edge>
   </timestep>
   <timestep time="108.00">
      <edge id="1o">
         <lane id="1o_0">
            <vehicle id="veh0" pos="287.06" speed="10.66"/>
         </lane>
      </edge>
   </timestep>
   <timestep time="109.00">
      <edge id="1o">
         <lane id="1o_0">
            <vehicle id="veh0" pos="297.80" speed="10.74"/>
         </lane>
      </edge>
   </timestep>
   <timestep time="110.00">
      <edge id="1o">
         <lane id="1o_0">
            <vehicle id="veh0" pos="308.14" speed="10.34"/>
         </lane>
      </edge>
   </timestep>
   <timestep time="111.00">
      <edge id="1o">
         <lane id="1o_0">
            <vehicle id="veh0" pos="319.14" speed="11.00"/>
         </lane>
      </edge>
   </timestep>
   <timestep time="112.00">
      <edge id="1o">
         <lane id="1o_0">
            <vehicle id="veh0" pos="329.74" speed="10.60"/>
         </lane>
      </edge>
   </timestep>
   <timestep time="113.00">
      <edge id="1o">
         <lane id="1o_0">
            <vehicle id="veh0" pos="340.13" speed="10.39"/>
         </lane>
      </edge>
   </timestep>
   <timestep time="114.00">
      <edge id="1o">
         <lane id="1o_0">
            <vehicle id="veh0" pos="350.38" speed="10.26"/>
         </lane>
      </edge>
   </timestep>
   <timestep time="115.00">
      <edge id="1o">
         <lane id="1o_0">
            <vehicle id="veh0" pos="361.18" speed="10.80"/>
         </lane>
      </edge>
   </timestep>
   <timestep time="116.00">
      <edge id="1o">
         <lane id="1o_0">
            <vehicle id="veh0" pos="371.52" speed="10.33"/>
         </lane>
      </edge>
   </timestep>
   <timestep time="117.00">
      <edge id="1o">
         <lane id="1o_0">
            <vehicle id="veh0" pos="382.49" speed="10.97"/>
         </lane>
      </edge>
   </timestep>
   <timestep time="118.00">
      <edge id="1o">
         <lane id="1o_0">
            <vehicle id="veh0" pos="392.82" speed="10.33"/>
         </lane>
      </edge>
   </timestep>
   <timestep time="119.00">
      <edge id="1o">
         <lane id="1o_0">
            <vehicle id="veh0" pos="403.78" speed="10.96"/>
         </lane>
      </edge>
   </timestep>
   <timestep time="120.00">
      <edge id="1o">
         <lane id="1o_0">
            <vehicle id="veh0" pos="413.92" speed="10.15"/>
         </lane>
      </edge>
   </timestep>
   <timestep time="121.00">
      <edge id="1o">
         <lane id="1o_0">
            <vehicle id="veh0" pos="424.62" speed="10.70"/>
         </lane>
      </edge>
   </timestep>
   <timestep time="122.00">
      <edge id="1o">
         <lane id="1o_0">
            <vehicle id="veh0" pos="435.21" speed="10.59"/>
         </lane>
      </edge>
   </timestep>
   <timestep time="123.00">
      <edge id="1o">
         <lane id="1o_0">
            <vehicle id="veh0" pos="446.27" speed="11.06"/>
         </lane>
      </edge>
   </timestep>
   <timestep time="124.00">
      <edge id="1o">
         <lane id="1o_0">
            <vehicle id="veh0" pos="456.96" speed="10.68"/>
         </lane>
      </edge>
   </timestep>
   <timestep time="125.00">
      <edge id="1o">
         <lane id="1o_0">
            <vehicle id="veh0" pos="467.33" speed="10.37"/>
         </lane>
      </edge>
   </timestep>
   <timestep time="126.00">
      <edge id="1o">
         <lane id="1o_0">
            <vehicle id="veh0" pos="477.37" speed="10.04"/>
         </lane>
      </edge>
   </timestep>
   <timestep time="127.00">
      <edge id="1o">
         <lane id="1o_0">
            <vehicle id="veh0" pos="487.29" speed="9.92"/>
         </lane>
      </edge>
   </timestep>
   <timestep time="128.00">
      <edge id=":1_0">
         <lane id=":1_0_0">
            <vehicle id="veh0" pos="6.05" speed="7.42"/>
         </lane>
      </edge>
   </timestep>
   <timestep time="129.00">
      <edge id=":1_0">
         <lane id=":1_0_0">
            <vehicle id="veh0" pos="9.37" speed="3.32"/>
         </lane>
      </edge>
   </timestep>
   <timestep time="130.00">
      <edge id="1fi">
         <lane id="1fi_0">
            <vehicle id="veh0" pos="1.84" speed="2.11"/>
         </lane>
         <lane id="1fi_1"/>
      </edge>
   </timestep>
   <timestep time="131.00">
      <edge id="1fi">
         <lane id="1fi_0">
            <vehicle id="veh0" pos="2.53" speed="0.70"/>
         </lane>
         <lane id="1fi_1"/>
      </edge>
   </timestep>
   <timestep time="132.00">
      <edge id="1fi">
         <lane id="1fi_0">
            <vehicle id="veh0" pos="2.88" speed="0.35"/>
         </lane>
         <lane id="1fi_1"/>
      </edge>
   </timestep>
   <timestep time="133.00">
      <edge id="1fi">
         <lane id="1fi_0">
            <vehicle id="veh0" pos="2.88" speed="0.00"/>
         </lane>
         <lane id="1fi_1"/>
      </edge>
   </timestep>
   <timestep time="134.00">
      <edge id="1fi">
         <lane id="1fi_0">
            <vehicle id="veh0" pos="2.88" speed="0.00"/>
         </lane>
         <lane id="1fi_1"/>
      </edge>
   </timestep>
   <timestep time="135.00">
      <edge id="1fi">
         <lane id="1fi_0">
            <vehicle id="veh0" pos="2.88" speed="0.00"/>
         </lane>
         <lane id="1fi_1"/>
      </edge>
   </timestep>
   <timestep time="136.00">
      <edge id="1fi">
         <lane id="1fi_0">
            <vehicle id="veh0" pos="2.88" speed="0.00"/>
         </lane>
         <lane id="1fi_1"/>
      </edge>
   </timestep>
   <timestep time="137.00">
      <edge id="1fi">
         <lane id="1fi_0">
            <vehicle id="veh0" pos="2.88" speed="0.00"/>
         </lane>
         <lane id="1fi_1"/>
      </edge>
   </timestep>
   <timestep time="138.00">
      <edge id="1fi">
         <lane id="1fi_0">
            <vehicle id="veh0" pos="2.88" speed="0.00"/>
         </lane>
         <lane id="1fi_1"/>
      </edge>
   </timestep>
   <timestep time="139.00">
      <edge id="1fi">
         <lane id="1fi_0">
            <vehicle id="veh0" pos="2.88" speed="0.00"/>
         </lane>
         <lane id="1fi_1"/>
      </edge>
   </timestep>
   <timestep time="140.00">
      <edge id="1fi">
         <lane id="1fi_0">
            <vehicle id="veh0" pos="2.88" speed="0.00"/>
         </lane>
         <lane id="1fi_1"/>
      </edge>
   </timestep>
   <timestep time="141.00">
      <edge id="1fi">
         <lane id="1fi_0">
            <vehicle id="veh0" pos="2.88" speed="0.00"/>
         </lane>
         <lane id="1fi_1"/>
      </edge>
   </timestep>
   <timestep time="142.00">
      <edge id="1fi">
         <lane id="1fi_0">
            <vehicle id="veh0" pos="2.88" speed="0.00"/>
         </lane>
         <lane id="1fi_1"/>
      </edge>
   </timestep>
   <timestep time="143.00">
      <edge id="1fi">
         <lane id="1fi_0">
            <vehicle id="veh0" pos="2.94" speed="0.06"/>
         </lane>
         <lane id="1fi_1"/>
      </edge>
   </timestep>
   <timestep time="144.00">
      <edge id="1fi">
         <lane id="1fi_0">
            <vehicle id="veh0" pos="4.92" speed="1.97"/>
         </lane>
         <lane id="1fi_1"/>