<?xml version="1.0" encoding="UTF-8"?>

<!-- generated on 2023-06-29 14:40:36.971629 by routeSampler.py v1_17_0+1318-85f891f765f
<configuration>
    <route-files value="input_routes.rou.xml"/>
    <turn-files value="input_turns.xml"/>
</configuration>
-->

<routes xmlns:xsi="http://www.w3.org/2001/XMLSchema-instance" xsi:noNamespaceSchemaLocation="http://sumo.dlr.de/xsd/routes_file.xsd">
<!-- begin="0.0" end="200.0" -->
    <vehicle id="0_0" depart="4.12">
        <route edges="-3 -3.180.00 5"/>
    </vehicle>
    <vehicle id="0_1" depart="11.62">
        <route edges="-3 -3.180.00 5"/>
    </vehicle>
    <vehicle id="0_2" depart="31.20">
        <route edges="-3 -3.180.00 5"/>
    </vehicle>
    <vehicle id="0_3" depart="36.36">
        <route edges="-3 -3.180.00 5"/>
    </vehicle>
    <vehicle id="0_4" depart="42.47">
        <route edges="-3 -3.180.00 5"/>
    </vehicle>
    <vehicle id="0_5" depart="120.22">
        <route edges="-3 -3.180.00 5"/>
    </vehicle>
    <vehicle id="0_6" depart="141.61">
        <route edges="-3 -3.180.00 5"/>
    </vehicle>
    <vehicle id="0_7" depart="166.49">
        <route edges="-3 -3.180.00 5"/>
    </vehicle>
    <vehicle id="0_8" depart="173.24">
        <route edges="-3 -3.180.00 5"/>
    </vehicle>
    <vehicle id="0_9" depart="193.98">
        <route edges="-3 -3.180.00 5"/>
    </vehicle>
<!-- begin="200.0" end="400.0" -->
    <vehicle id="200_0" depart="204.61">
        <route edges="-3 -3.180.00 11"/>
    </vehicle>
    <vehicle id="200_1" depart="209.33">
        <route edges="-3 -3.180.00 11"/>
    </vehicle>
    <vehicle id="200_2" depart="218.12">
        <route edges="-3 -3.180.00 11"/>
    </vehicle>
    <vehicle id="200_3" depart="246.55">
        <route edges="-3 -3.180.00 11"/>
    </vehicle>
    <vehicle id="200_4" depart="279.97">
        <route edges="-3 -3.180.00 11"/>
    </vehicle>
    <vehicle id="200_5" depart="304.95">
        <route edges="-3 -3.180.00 11"/>
    </vehicle>
    <vehicle id="200_6" depart="323.68">
        <route edges="-3 -3.180.00 11"/>
    </vehicle>
    <vehicle id="200_7" depart="394.75">
        <route edges="-3 -3.180.00 11"/>
    </vehicle>
</routes>
