<routes>
	<flow id="f1" period="1" arrivalPos="10">
	    <route edges="beg end">
	        <stop lane="end_0" pos="5" duration="1"/>
	    </route>
	</flow>
</routes>
