<?xml version="1.0" encoding="UTF-8"?>

<!-- generated on Fri 04 Sep 2020 09:04:36 AM CEST by Eclipse SUMO netedit Version v1_6_0+1974-e63e6eaa31
<configuration xmlns:xsi="http://www.w3.org/2001/XMLSchema-instance" xsi:noNamespaceSchemaLocation="http://sumo.dlr.de/xsd/netconvertConfiguration.xsd">

    <input>
        <sumo-net-file value="net.net.xml"/>
    </input>

    <output>
        <output-file value="net.net.xml"/>
    </output>

    <processing>
        <geometry.min-radius.fix.railways value="false"/>
        <geometry.max-grade.fix value="false"/>
        <offset.disable-normalization value="true"/>
        <lefthand value="false"/>
    </processing>

    <junctions>
        <no-turnarounds value="true"/>
        <junctions.corner-detail value="5"/>
        <junctions.limit-turn-speed value="5.5"/>
        <rectangular-lane-cut value="false"/>
    </junctions>

    <pedestrian>
        <walkingareas value="false"/>
    </pedestrian>

    <report>
        <aggregate-warnings value="5"/>
    </report>

</configuration>
-->

<net version="1.6" junctionCornerDetail="5" limitTurnSpeed="5.50" xmlns:xsi="http://www.w3.org/2001/XMLSchema-instance" xsi:noNamespaceSchemaLocation="http://sumo.dlr.de/xsd/net_file.xsd">

    <location netOffset="0.00,0.00" convBoundary="0.00,0.00,600.00,50.00" origBoundary="-10000000000.00,-10000000000.00,10000000000.00,10000000000.00" projParameter="!"/>

    <edge id=":-A_0" function="internal">
        <lane id=":-A_0_0" index="0" allow="rail" speed="13.89" length="0.75" shape="100.34,49.83 100.14,49.93 99.99,49.98 99.84,50.00 99.62,50.00"/>
    </edge>
    <edge id=":A_0" function="internal">
        <lane id=":A_0_0" index="0" allow="rail" speed="13.89" length="0.10" shape="100.00,0.00 100.00,0.00"/>
    </edge>
    <edge id=":B_0" function="internal">
        <lane id=":B_0_0" index="0" allow="rail" speed="13.89" length="10.19" shape="201.88,0.00 198.95,0.26 197.04,1.01 195.23,2.18 192.60,3.70"/>
    </edge>
    <edge id=":B_1" function="internal">
        <lane id=":B_1_0" index="0" allow="rail" speed="13.89" length="10.16" shape="191.72,0.00 201.88,0.00"/>
    </edge>
    <edge id=":C_0" function="internal" bidi=":C_1">
        <lane id=":C_0_0" index="0" allow="rail" speed="13.89" length="0.10" shape="300.00,0.00 300.00,0.00"/>
    </edge>
    <edge id=":C_1" function="internal" bidi=":C_0">
        <lane id=":C_1_0" index="0" allow="rail" speed="13.89" length="0.10" shape="300.00,0.00 300.00,0.00"/>
    </edge>
    <edge id=":D_0" function="internal" bidi=":D_1">
        <lane id=":D_0_0" index="0" allow="rail" speed="13.89" length="0.10" shape="400.00,0.00 400.00,0.00"/>
    </edge>
    <edge id=":D_1" function="internal" bidi=":D_0">
        <lane id=":D_1_0" index="0" allow="rail" speed="13.89" length="0.10" shape="400.00,0.00 400.00,0.00"/>
    </edge>
    <edge id=":E_0" function="internal" bidi=":E_1">
        <lane id=":E_0_0" index="0" allow="rail" speed="13.89" length="0.10" shape="500.00,0.00 500.00,0.00"/>
    </edge>
    <edge id=":E_1" function="internal" bidi=":E_0">
        <lane id=":E_1_0" index="0" allow="rail" speed="13.89" length="0.10" shape="500.00,0.00 500.00,0.00"/>
    </edge>
    <edge id=":F_0" function="internal">
        <lane id=":F_0_0" index="0" allow="rail" speed="0.10" length="0.10" shape="600.00,0.00 600.00,0.00"/>
    </edge>

    <edge id="-a" from="-A" to="gneJ5" priority="-1" spreadType="center">
        <lane id="-a_0" index="0" allow="rail" speed="13.89" length="99.62" shape="99.62,50.00 0.00,50.00"/>
    </edge>
    <edge id="-b" from="B" to="-A" priority="-1" spreadType="center">
        <lane id="-b_0" index="0" allow="rail" speed="13.89" length="103.15" shape="192.60,3.70 100.34,49.83"/>
    </edge>
    <edge id="-c" from="C" to="B" priority="-1" spreadType="center" bidi="c">
        <lane id="-c_0" index="0" allow="rail" speed="13.89" length="98.12" shape="300.00,0.00 201.88,0.00"/>
    </edge>
    <edge id="-d" from="D" to="C" priority="-1" spreadType="center" bidi="d">
        <lane id="-d_0" index="0" allow="rail" speed="13.89" length="100.00" shape="400.00,0.00 300.00,0.00"/>
    </edge>
    <edge id="-e" from="E" to="D" priority="-1" spreadType="center" bidi="e">
        <lane id="-e_0" index="0" allow="rail" speed="13.89" length="100.00" shape="500.00,0.00 400.00,0.00"/>
    </edge>
    <edge id="-f" from="F" to="E" priority="-1" spreadType="center" bidi="f">
        <lane id="-f_0" index="0" allow="rail" speed="13.89" length="100.00" shape="600.00,0.00 500.00,0.00"/>
    </edge>
    <edge id="a" from="gneJ0" to="A" priority="-1" spreadType="center">
        <lane id="a_0" index="0" allow="rail" speed="13.89" length="100.00" shape="0.00,0.00 100.00,0.00"/>
    </edge>
    <edge id="b" from="A" to="B" priority="-1" spreadType="center">
        <lane id="b_0" index="0" allow="rail" speed="13.89" length="91.72" shape="100.00,0.00 191.72,0.00"/>
    </edge>
    <edge id="c" from="B" to="C" priority="-1" spreadType="center" bidi="-c">
        <lane id="c_0" index="0" allow="rail" speed="13.89" length="98.12" shape="201.88,0.00 300.00,0.00"/>
    </edge>
    <edge id="d" from="C" to="D" priority="-1" spreadType="center" bidi="-d">
        <lane id="d_0" index="0" allow="rail" speed="13.89" length="100.00" shape="300.00,0.00 400.00,0.00"/>
    </edge>
    <edge id="e" from="D" to="E" priority="-1" spreadType="center" bidi="-e">
        <lane id="e_0" index="0" allow="rail" speed="13.89" length="100.00" shape="400.00,0.00 500.00,0.00"/>
    </edge>
    <edge id="f" from="E" to="F" priority="-1" spreadType="center" bidi="-f">
        <lane id="f_0" index="0" allow="rail" speed="13.89" length="100.00" shape="500.00,0.00 600.00,0.00"/>
    </edge>

    <junction id="-A" type="priority" x="100.00" y="50.00" incLanes="-b_0" intLanes=":-A_0_0" shape="101.05,51.26 99.62,48.40 99.62,51.60 100.17,51.59 100.37,51.55 100.55,51.50 100.77,51.40">
        <request index="0" response="0" foes="0" cont="0"/>
    </junction>
    <junction id="A" type="rail_signal" x="100.00" y="0.00" incLanes="a_0" intLanes=":A_0_0" shape="100.00,1.60 100.00,-1.60 100.00,1.60">
        <request index="0" response="0" foes="0" cont="0"/>
    </junction>
    <junction id="B" type="priority" x="200.00" y="0.00" incLanes="-c_0 b_0" intLanes=":B_0_0 :B_1_0" shape="201.88,1.60 201.88,-1.60 191.72,-1.60 191.72,1.60 191.88,2.27 193.31,5.13 195.06,4.15 196.34,3.30 197.41,2.59 198.52,2.06 199.92,1.72">
        <request index="0" response="00" foes="00" cont="0"/>
        <request index="1" response="00" foes="00" cont="0"/>
    </junction>
    <junction id="C" type="priority" x="300.00" y="0.00" incLanes="-d_0 c_0" intLanes=":C_0_0 :C_1_0" shape="300.00,1.60 300.00,-1.60 300.00,1.60">
        <request index="0" response="00" foes="00" cont="0"/>
        <request index="1" response="00" foes="00" cont="0"/>
    </junction>
    <junction id="D" type="rail_signal" x="400.00" y="0.00" incLanes="-e_0 d_0" intLanes=":D_0_0 :D_1_0" shape="400.00,1.60 400.00,-1.60 400.00,1.60">
        <request index="0" response="00" foes="00" cont="0"/>
        <request index="1" response="00" foes="00" cont="0"/>
    </junction>
    <junction id="E" type="priority" x="500.00" y="0.00" incLanes="-f_0 e_0" intLanes=":E_0_0 :E_1_0" shape="500.00,1.60 500.00,-1.60 500.00,1.60">
        <request index="0" response="00" foes="00" cont="0"/>
        <request index="1" response="00" foes="00" cont="0"/>
    </junction>
    <junction id="F" type="priority" x="600.00" y="0.00" incLanes="f_0" intLanes=":F_0_0" shape="600.00,-1.60 600.00,1.60 600.00,-1.60 600.00,1.60">
        <request index="0" response="0" foes="0" cont="0"/>
    </junction>
    <junction id="gneJ0" type="dead_end" x="0.00" y="0.00" incLanes="" intLanes="" shape="0.00,1.60 0.00,-1.60"/>
    <junction id="gneJ5" type="dead_end" x="0.00" y="50.00" incLanes="-a_0" intLanes="" shape="0.00,51.60 0.00,48.40"/>

    <connection from="-b" to="-a" fromLane="0" toLane="0" via=":-A_0_0" dir="s" state="M"/>
    <connection from="-c" to="-b" fromLane="0" toLane="0" via=":B_0_0" dir="s" state="M"/>
    <connection from="-d" to="-c" fromLane="0" toLane="0" via=":C_0_0" dir="s" state="M"/>
    <connection from="-e" to="-d" fromLane="0" toLane="0" via=":D_0_0" tl="D" linkIndex="0" dir="s" state="O"/>
    <connection from="-f" to="-e" fromLane="0" toLane="0" via=":E_0_0" dir="s" state="M"/>
    <connection from="a" to="b" fromLane="0" toLane="0" via=":A_0_0" tl="A" linkIndex="0" dir="s" state="O"/>
    <connection from="b" to="c" fromLane="0" toLane="0" via=":B_1_0" dir="s" state="M"/>
    <connection from="c" to="d" fromLane="0" toLane="0" via=":C_1_0" dir="s" state="M"/>
    <connection from="d" to="e" fromLane="0" toLane="0" via=":D_1_0" tl="D" linkIndex="1" dir="s" state="O"/>
    <connection from="e" to="f" fromLane="0" toLane="0" via=":E_1_0" dir="s" state="M"/>
    <connection from="f" to="-f" fromLane="0" toLane="0" speed="0.10" via=":F_0_0" dir="t" state="M"/>

    <connection from=":-A_0" to="-a" fromLane="0" toLane="0" dir="s" state="M"/>
    <connection from=":A_0" to="b" fromLane="0" toLane="0" dir="s" state="M"/>
    <connection from=":B_0" to="-b" fromLane="0" toLane="0" dir="s" state="M"/>
    <connection from=":B_1" to="c" fromLane="0" toLane="0" dir="s" state="M"/>
    <connection from=":C_0" to="-c" fromLane="0" toLane="0" dir="s" state="M"/>
    <connection from=":C_1" to="d" fromLane="0" toLane="0" dir="s" state="M"/>
    <connection from=":D_0" to="-d" fromLane="0" toLane="0" dir="s" state="M"/>
    <connection from=":D_1" to="e" fromLane="0" toLane="0" dir="s" state="M"/>
    <connection from=":E_0" to="-e" fromLane="0" toLane="0" dir="s" state="M"/>
    <connection from=":E_1" to="f" fromLane="0" toLane="0" dir="s" state="M"/>
    <connection from=":F_0" to="-f" fromLane="0" toLane="0" dir="t" state="M"/>

</net>
