<?xml version="1.0" encoding="UTF-8"?>

<!-- generated on 2025-12-19T17:50:52.843998+01:00 by Eclipse SUMO sumo v1_25_0+0646-5052cf5c68d
This data file and the accompanying materials
are made available under the terms of the Eclipse Public License v2.0
which accompanies this distribution, and is available at
http://www.eclipse.org/legal/epl-v20.html
This file may also be made available under the following Secondary
Licenses when the conditions for such availability set forth in the Eclipse
Public License 2.0 are satisfied: GNU General Public License, version 2
or later which is available at
https://www.gnu.org/licenses/old-licenses/gpl-2.0-standalone.html
SPDX-License-Identifier: EPL-2.0 OR GPL-2.0-or-later
<sumoConfiguration xmlns:xsi="http://www.w3.org/2001/XMLSchema-instance" xsi:noNamespaceSchemaLocation="http://sumo.dlr.de/xsd/sumoConfiguration.xsd">

    <input>
        <net-file value="net.net.xml"/>
        <route-files value="input_routes.rou.xml"/>
    </input>

    <output>
        <write-license value="true"/>
        <tripinfo-output value="tripinfos.xml"/>
        <railsignal-block-output value="railsignal_blocks.xml"/>
    </output>

    <processing>
        <time-to-teleport.railsignal-deadlock value="200"/>
        <default.speeddev value="0"/>
    </processing>

    <report>
        <xml-validation value="never"/>
        <duration-log.disable value="true"/>
        <no-step-log value="true"/>
    </report>

    <mesoscopic>
        <mesosim value="true"/>
        <meso-junction-control value="true"/>
    </mesoscopic>

</sumoConfiguration>
-->

<railsignal-block-output>
    <railSignal id="A">
        <link linkIndex="0" from="a_0" to="b_0">
            <driveWay id="A.0" vehicle="train1" edges="b c d e f -f -e -d -c -b -a">
                <forward lanes="b_0 c_0 d_0"/>
                <bidi lanes="-c_0 -d_0 -e_0 -f_0 f_0 e_0 d_0 c_0"/>
                <flank lanes=""/>
                <conflictLinks signals=""/>
                <foes driveWays="A.0 D.0 D.1.0"/>
            </driveWay>
        </link>
    </railSignal>
    <railSignal id="D">
        <link linkIndex="0" from="-e_0" to="-d_0">
            <driveWay id="D.1" vehicle="train1" edges="-d -c -b -a">
                <forward lanes="-d_0 -c_0 -b_0 -a_0"/>
                <bidi lanes="d_0 c_0"/>
                <flank lanes=""/>
                <conflictLinks signals="A_0"/>
                <foes driveWays="A.0 D.1"/>
            </driveWay>
            <subDriveWay id="D.1.0" vehicle="" edges="-d -c">
                <forward lanes="-d_0 -c_0"/>
            </subDriveWay>
        </link>
        <link linkIndex="1" from="d_0" to="e_0">
            <driveWay id="D.0" vehicle="train1" edges="e f -f -e -d -c -b -a">
                <forward lanes="e_0 f_0 -f_0 -e_0"/>
                <bidi lanes="-e_0 -f_0 f_0 e_0 d_0 c_0"/>
                <flank lanes=""/>
                <conflictLinks signals="A_0"/>
                <foes driveWays="A.0 D.0"/>
            </driveWay>
        </link>
    </railSignal>
    <departJunction id="gneJ0">
        <driveWay id="gneJ0.d0" vehicle="train1" edges="a b c d e f -f -e -d -c -b -a">
            <forward lanes="a_0"/>
            <bidi lanes="-c_0 -d_0 -e_0 -f_0 f_0 e_0 d_0 c_0"/>
            <flank lanes=""/>
            <conflictLinks signals=""/>
            <foes driveWays="gneJ0.d0"/>
        </driveWay>
    </departJunction>
</railsignal-block-output>
