<?xml version="1.0" encoding="UTF-8"?>

<!-- generated on Fri Sep  4 09:00:18 2020 by Eclipse SUMO sumo Version v1_6_0+1969-2e6130e9c0
This data file and the accompanying materials
are made available under the terms of the Eclipse Public License v2.0
which accompanies this distribution, and is available at
http://www.eclipse.org/legal/epl-v20.html
SPDX-License-Identifier: EPL-2.0
<configuration xmlns:xsi="http://www.w3.org/2001/XMLSchema-instance" xsi:noNamespaceSchemaLocation="http://sumo.dlr.de/xsd/sumoConfiguration.xsd">

    <input>
        <net-file value="net.net.xml"/>
        <route-files value="input_routes.rou.xml"/>
    </input>

    <output>
        <write-license value="true"/>
        <tripinfo-output value="tripinfos.xml"/>
        <railsignal-block-output value="railsignal_blocks.xml"/>
    </output>

    <processing>
        <default.speeddev value="0"/>
    </processing>

    <report>
        <xml-validation value="never"/>
        <xml-validation.routes value="never"/>
        <duration-log.disable value="true"/>
        <no-step-log value="true"/>
    </report>

</configuration>
-->

<railsignal-block-output>
    <railSignal id="gneJ1">
        <link linkIndex="0" from="a_0" to=":gneJ1_0_0">
            <driveWay edges="b c d e f">
                <forward lanes=":gneJ1_0_0 b_0 :gneJ2_1_0 c_0 :gneJ3_1_0 d_0"/>
                <bidi lanes="-c_0 :gneJ3_0_0 -d_0 :gneJ7_0_0 -e_0 :gneJ8_0_0 -f_0"/>
                <flank lanes=""/>
                <protectingSwitches links=""/>
                <conflictLinks signals=""/>
            </driveWay>
        </link>
    </railSignal>
    <railSignal id="gneJ7">
        <link linkIndex="0" from="-e_0" to=":gneJ7_0_0">
            <driveWay edges="-d -c -b -a">
                <forward lanes=":gneJ7_0_0 -d_0 :gneJ3_0_0 -c_0 :gneJ2_0_0 -b_0 :gneJ6_0_0 -a_0"/>
                <bidi lanes=":gneJ7_1_0 d_0 :gneJ3_1_0 c_0"/>
                <flank lanes=":gneJ2_1_0 b_0 :gneJ1_0_0"/>
                <protectingSwitches links=""/>
                <conflictLinks signals="gneJ1_0"/>
            </driveWay>
        </link>
        <link linkIndex="1" from="d_0" to=":gneJ7_1_0">
            <driveWay edges="e f">
                <forward lanes=":gneJ7_1_0 e_0 :gneJ8_1_0 f_0"/>
                <bidi lanes=":gneJ7_0_0 -e_0 :gneJ8_0_0 -f_0"/>
                <flank lanes=""/>
                <protectingSwitches links=""/>
                <conflictLinks signals=""/>
            </driveWay>
        </link>
    </railSignal>
</railsignal-block-output>
