<?xml version="1.0" encoding="UTF-8"?>

<!-- generated on Mon 22 Feb 2016 04:28:45 PM CET by Netedit Version dev-SVN-r20049
<?xml version="1.0" encoding="UTF-8"?>

<configuration xmlns:xsi="http://www.w3.org/2001/XMLSchema-instance" xsi:noNamespaceSchemaLocation="http://sumo.dlr.de/xsd/netedit.exeConfiguration.xsd">

    <input>
        <sumo-net-file value="net.net.xml"/>
    </input>

    <output>
        <output-file value="net.net.xml"/>
    </output>

    <processing>
        <no-internal-links value="true"/>
        <no-turnarounds value="true"/>
        <offset.disable-normalization value="true"/>
        <lefthand value="false"/>
        <junctions.corner-detail value="0"/>
    </processing>

</configuration>
-->

<net version="0.25" xmlns:xsi="http://www.w3.org/2001/XMLSchema-instance" xsi:noNamespaceSchemaLocation="http://sumo.dlr.de/xsd/net_file.xsd">

    <location netOffset="0.00,0.00" convBoundary="0.00,0.00,300.00,0.00" origBoundary="-10000000000.00,-10000000000.00,10000000000.00,10000000000.00" projParameter="!"/>

    <edge id="beg" from="gneJ0" to="gneJ1" priority="1">
        <lane id="beg_0" index="0" speed="13.89" length="200.00" width="4.00" shape="0.00,-6.15 198.50,-6.15"/>
        <lane id="beg_1" index="1" speed="13.89" length="200.00" width="4.00" shape="0.00,-2.05 198.50,-2.05"/>
    </edge>
    <edge id="end" from="gneJ1" to="gneJ2" priority="1">
        <lane id="end_0" index="0" speed="13.89" length="100.00" width="4.00" shape="201.50,-2.05 300.00,-2.05"/>
    </edge>

    <junction id="gneJ0" type="unregulated" x="0.00" y="0.00" incLanes="" intLanes="" shape="0.00,-0.05 0.00,-8.15"/>
    <junction id="gneJ1" type="unregulated" x="200.00" y="0.00" incLanes="beg_0 beg_1" intLanes="" shape="201.50,-0.05 201.50,-4.05 198.50,-8.15 198.50,-0.05"/>
    <junction id="gneJ2" type="unregulated" x="300.00" y="0.00" incLanes="end_0" intLanes="" shape="300.00,-4.05 300.00,-0.05"/>

    <connection from="beg" to="end" fromLane="1" toLane="0" dir="s" state="M"/>

</net>
