<net>

   <location netOffset="100.000000,0.000000" convBoundary="0.000000,0.000000,200.000000,0.000000" origBoundary="-100.000000,0.000000,100.000000,0.000000" projParameter="!"/>

   <node_count>3</node_count>


   <edge id="1" from="1" to="2" priority="1" type="" function="normal">
      <lanes>
         <lane id="1_0" depart="1" maxspeed="19.00" length="100.00" shape="0.00,-4.95 100.00,-4.95"/>
         <lane id="1_1" depart="0" maxspeed="19.00" length="100.00" shape="0.00,-1.65 100.00,-1.65"/>
      </lanes>
   </edge>

   <edge id="2" from="2" to="3" priority="1" type="" function="normal">
      <lanes>
         <lane id="2_0" depart="1" maxspeed="19.00" length="100.00" shape="100.00,-4.95 a,-4.95"/>
         <lane id="2_1" depart="0" maxspeed="19.00" length="100.00" shape="100.00,-1.65 200.00,-1.65"/>
      </lanes>
   </edge>


   <row-logic id="2" requestSize="2" laneNumber="2">
      <logic>
         <logicitem request="0" response="00" foes="00"/>
         <logicitem request="1" response="00" foes="00"/>
      </logic>
   </row-logic>



   <junction id="1" type="DEAD_END" x="0.00" y="0.00" incLanes="" intLanes="" shape="-0.00,-0.05 -0.00,-6.55"/>

   <junction id="2" type="priority" x="100.00" y="0.00" incLanes="1_0 1_1" intLanes="" shape="100.00,-0.05 100.00,-6.55 100.00,-0.05"/>

   <junction id="3" type="DEAD_END" x="200.00" y="0.00" incLanes="2_0 2_1" intLanes="" shape="200.00,-6.55 200.00,-0.05"/>


   <succ edge="1" lane="1_0" junction="2">
      <succlane lane="2_0" yield="0" dir="s" state="M"/>
   </succ>

   <succ edge="1" lane="1_1" junction="2">
      <succlane lane="2_1" yield="0" dir="s" state="M"/>
   </succ>

   <succ edge="2" lane="2_0" junction="3">
      <succlane lane="SUMO_NO_DESTINATION" yield="1" dir="s" state="O"/>
   </succ>

   <succ edge="2" lane="2_1" junction="3">
      <succlane lane="SUMO_NO_DESTINATION" yield="1" dir="s" state="O"/>
   </succ>


</net>
