<routes xmlns:xsi="http://www.w3.org/2001/XMLSchema-instance" xsi:noNamespaceSchemaLocation="http://sumo.dlr.de/xsd/routes_file.xsd">
   <vType id="DEFAULT_VEHTYPE" sigma="0"/>
    <vehicle id="0" depart="0" departSpeed="27.8" departPos="450">
        <route edges="beg beg2left"/>
    </vehicle>
</routes>
