<?xml version="1.0" encoding="UTF-8"?>

<!-- generated on Thu May 17 09:28:23 2018 by Eclipse SUMO netgenerate Version 0df7a9c
<configuration xmlns:xsi="http://www.w3.org/2001/XMLSchema-instance" xsi:noNamespaceSchemaLocation="https://sumo.dlr.de/xsd/netgenerateConfiguration.xsd">

    <grid_network>
        <grid value="true"/>
        <grid.x-number value="3"/>
        <grid.y-number value="1"/>
        <grid.attach-length value="100"/>
    </grid_network>

    <output>
        <prefix value="c"/>
    </output>

</configuration>
-->

<net version="0.27" xmlns:xsi="http://www.w3.org/2001/XMLSchema-instance" xsi:noNamespaceSchemaLocation="https://sumo.dlr.de/xsd/net_file.xsd">

    <location netOffset="0.00,0.00" convBoundary="0.00,0.00,400.00,200.00" origBoundary="0.00,0.00,400.00,200.00" projParameter="!"/>

    <edge id=":cA0_0" function="internal">
        <lane id=":cA0_0_0" index="0" speed="13.90" length="5.00" shape="98.40,104.70 98.21,103.34 97.63,102.37 96.66,101.79 95.30,101.60"/>
    </edge>
    <edge id=":cA0_1" function="internal">
        <lane id=":cA0_1_0" index="0" speed="13.90" length="9.40" shape="98.40,104.70 98.40,95.30"/>
    </edge>
    <edge id=":cA0_2" function="internal">
        <lane id=":cA0_2_0" index="0" speed="13.90" length="5.08" shape="98.40,104.70 98.79,101.94 99.98,99.97"/>
    </edge>
    <edge id=":cA0_3" function="internal">
        <lane id=":cA0_3_0" index="0" speed="13.90" length="2.34" shape="98.40,104.70 99.20,103.50 100.00,103.10"/>
    </edge>
    <edge id=":cA0_16" function="internal">
        <lane id=":cA0_16_0" index="0" speed="13.90" length="5.08" shape="99.98,99.97 101.94,98.79 104.70,98.40"/>
    </edge>
    <edge id=":cA0_17" function="internal">
        <lane id=":cA0_17_0" index="0" speed="13.90" length="2.34" shape="100.00,103.10 100.80,103.50 101.60,104.70"/>
    </edge>
    <edge id=":cA0_4" function="internal">
        <lane id=":cA0_4_0" index="0" speed="13.90" length="5.00" shape="104.70,101.60 103.34,101.79 102.38,102.37 101.79,103.34 101.60,104.70"/>
    </edge>
    <edge id=":cA0_5" function="internal">
        <lane id=":cA0_5_0" index="0" speed="13.90" length="9.40" shape="104.70,101.60 95.30,101.60"/>
    </edge>
    <edge id=":cA0_6" function="internal">
        <lane id=":cA0_6_0" index="0" speed="13.90" length="10.16" shape="104.70,101.60 101.94,101.21 99.97,100.02 98.79,98.06 98.40,95.30"/>
    </edge>
    <edge id=":cA0_7" function="internal">
        <lane id=":cA0_7_0" index="0" speed="13.90" length="4.67" shape="104.70,101.60 103.50,100.80 103.10,100.00 103.50,99.20 104.70,98.40"/>
    </edge>
    <edge id=":cA0_8" function="internal">
        <lane id=":cA0_8_0" index="0" speed="13.90" length="5.00" shape="101.60,95.30 101.79,96.66 102.37,97.62 103.34,98.21 104.70,98.40"/>
    </edge>
    <edge id=":cA0_9" function="internal">
        <lane id=":cA0_9_0" index="0" speed="13.90" length="9.40" shape="101.60,95.30 101.60,104.70"/>
    </edge>
    <edge id=":cA0_10" function="internal">
        <lane id=":cA0_10_0" index="0" speed="13.90" length="5.08" shape="101.60,95.30 101.21,98.06 100.02,100.03"/>
    </edge>
    <edge id=":cA0_11" function="internal">
        <lane id=":cA0_11_0" index="0" speed="13.90" length="2.34" shape="101.60,95.30 100.80,96.50 100.00,96.90"/>
    </edge>
    <edge id=":cA0_18" function="internal">
        <lane id=":cA0_18_0" index="0" speed="13.90" length="5.08" shape="100.02,100.03 98.06,101.21 95.30,101.60"/>
    </edge>
    <edge id=":cA0_19" function="internal">
        <lane id=":cA0_19_0" index="0" speed="13.90" length="2.34" shape="100.00,96.90 99.20,96.50 98.40,95.30"/>
    </edge>
    <edge id=":cA0_12" function="internal">
        <lane id=":cA0_12_0" index="0" speed="13.90" length="5.00" shape="95.30,98.40 96.66,98.21 97.62,97.63 98.21,96.66 98.40,95.30"/>
    </edge>
    <edge id=":cA0_13" function="internal">
        <lane id=":cA0_13_0" index="0" speed="13.90" length="9.40" shape="95.30,98.40 104.70,98.40"/>
    </edge>
    <edge id=":cA0_14" function="internal">
        <lane id=":cA0_14_0" index="0" speed="13.90" length="10.16" shape="95.30,98.40 98.06,98.79 100.03,99.98 101.21,101.94 101.60,104.70"/>
    </edge>
    <edge id=":cA0_15" function="internal">
        <lane id=":cA0_15_0" index="0" speed="13.90" length="4.67" shape="95.30,98.40 96.50,99.20 96.90,100.00 96.50,100.80 95.30,101.60"/>
    </edge>
    <edge id=":cB0_0" function="internal">
        <lane id=":cB0_0_0" index="0" speed="13.90" length="5.00" shape="198.40,104.70 198.21,103.34 197.62,102.38 196.66,101.79 195.30,101.60"/>
    </edge>
    <edge id=":cB0_1" function="internal">
        <lane id=":cB0_1_0" index="0" speed="13.90" length="9.40" shape="198.40,104.70 198.40,95.30"/>
    </edge>
    <edge id=":cB0_2" function="internal">
        <lane id=":cB0_2_0" index="0" speed="13.90" length="5.08" shape="198.40,104.70 198.79,101.94 199.98,99.97"/>
    </edge>
    <edge id=":cB0_3" function="internal">
        <lane id=":cB0_3_0" index="0" speed="13.90" length="2.34" shape="198.40,104.70 199.20,103.50 200.00,103.10"/>
    </edge>
    <edge id=":cB0_16" function="internal">
        <lane id=":cB0_16_0" index="0" speed="13.90" length="5.08" shape="199.98,99.97 201.94,98.79 204.70,98.40"/>
    </edge>
    <edge id=":cB0_17" function="internal">
        <lane id=":cB0_17_0" index="0" speed="13.90" length="2.34" shape="200.00,103.10 200.80,103.50 201.60,104.70"/>
    </edge>
    <edge id=":cB0_4" function="internal">
        <lane id=":cB0_4_0" index="0" speed="13.90" length="5.00" shape="204.70,101.60 203.34,101.79 202.38,102.37 201.79,103.34 201.60,104.70"/>
    </edge>
    <edge id=":cB0_5" function="internal">
        <lane id=":cB0_5_0" index="0" speed="13.90" length="9.40" shape="204.70,101.60 195.30,101.60"/>
    </edge>
    <edge id=":cB0_6" function="internal">
        <lane id=":cB0_6_0" index="0" speed="13.90" length="10.16" shape="204.70,101.60 201.94,101.21 199.97,100.02 198.79,98.06 198.40,95.30"/>
    </edge>
    <edge id=":cB0_7" function="internal">
        <lane id=":cB0_7_0" index="0" speed="13.90" length="4.67" shape="204.70,101.60 203.50,100.80 203.10,100.00 203.50,99.20 204.70,98.40"/>
    </edge>
    <edge id=":cB0_8" function="internal">
        <lane id=":cB0_8_0" index="0" speed="13.90" length="5.00" shape="201.60,95.30 201.79,96.66 202.38,97.62 203.34,98.21 204.70,98.40"/>
    </edge>
    <edge id=":cB0_9" function="internal">
        <lane id=":cB0_9_0" index="0" speed="13.90" length="9.40" shape="201.60,95.30 201.60,104.70"/>
    </edge>
    <edge id=":cB0_10" function="internal">
        <lane id=":cB0_10_0" index="0" speed="13.90" length="5.08" shape="201.60,95.30 201.21,98.06 200.02,100.03"/>
    </edge>
    <edge id=":cB0_11" function="internal">
        <lane id=":cB0_11_0" index="0" speed="13.90" length="2.34" shape="201.60,95.30 200.80,96.50 200.00,96.90"/>
    </edge>
    <edge id=":cB0_18" function="internal">
        <lane id=":cB0_18_0" index="0" speed="13.90" length="5.08" shape="200.02,100.03 198.06,101.21 195.30,101.60"/>
    </edge>
    <edge id=":cB0_19" function="internal">
        <lane id=":cB0_19_0" index="0" speed="13.90" length="2.34" shape="200.00,96.90 199.20,96.50 198.40,95.30"/>
    </edge>
    <edge id=":cB0_12" function="internal">
        <lane id=":cB0_12_0" index="0" speed="13.90" length="5.00" shape="195.30,98.40 196.66,98.21 197.62,97.63 198.21,96.66 198.40,95.30"/>
    </edge>
    <edge id=":cB0_13" function="internal">
        <lane id=":cB0_13_0" index="0" speed="13.90" length="9.40" shape="195.30,98.40 204.70,98.40"/>
    </edge>
    <edge id=":cB0_14" function="internal">
        <lane id=":cB0_14_0" index="0" speed="13.90" length="10.16" shape="195.30,98.40 198.06,98.79 200.03,99.98 201.21,101.94 201.60,104.70"/>
    </edge>
    <edge id=":cB0_15" function="internal">
        <lane id=":cB0_15_0" index="0" speed="13.90" length="4.67" shape="195.30,98.40 196.50,99.20 196.90,100.00 196.50,100.80 195.30,101.60"/>
    </edge>
    <edge id=":cC0_0" function="internal">
        <lane id=":cC0_0_0" index="0" speed="13.90" length="5.00" shape="298.40,104.70 298.21,103.34 297.62,102.38 296.66,101.79 295.30,101.60"/>
    </edge>
    <edge id=":cC0_1" function="internal">
        <lane id=":cC0_1_0" index="0" speed="13.90" length="9.40" shape="298.40,104.70 298.40,95.30"/>
    </edge>
    <edge id=":cC0_2" function="internal">
        <lane id=":cC0_2_0" index="0" speed="13.90" length="5.08" shape="298.40,104.70 298.79,101.94 299.98,99.97"/>
    </edge>
    <edge id=":cC0_3" function="internal">
        <lane id=":cC0_3_0" index="0" speed="13.90" length="2.34" shape="298.40,104.70 299.20,103.50 300.00,103.10"/>
    </edge>
    <edge id=":cC0_16" function="internal">
        <lane id=":cC0_16_0" index="0" speed="13.90" length="5.08" shape="299.98,99.97 301.94,98.79 304.70,98.40"/>
    </edge>
    <edge id=":cC0_17" function="internal">
        <lane id=":cC0_17_0" index="0" speed="13.90" length="2.34" shape="300.00,103.10 300.80,103.50 301.60,104.70"/>
    </edge>
    <edge id=":cC0_4" function="internal">
        <lane id=":cC0_4_0" index="0" speed="13.90" length="5.00" shape="304.70,101.60 303.34,101.79 302.38,102.37 301.79,103.34 301.60,104.70"/>
    </edge>
    <edge id=":cC0_5" function="internal">
        <lane id=":cC0_5_0" index="0" speed="13.90" length="9.40" shape="304.70,101.60 295.30,101.60"/>
    </edge>
    <edge id=":cC0_6" function="internal">
        <lane id=":cC0_6_0" index="0" speed="13.90" length="10.16" shape="304.70,101.60 301.94,101.21 299.98,100.02 298.79,98.06 298.40,95.30"/>
    </edge>
    <edge id=":cC0_7" function="internal">
        <lane id=":cC0_7_0" index="0" speed="13.90" length="4.67" shape="304.70,101.60 303.50,100.80 303.10,100.00 303.50,99.20 304.70,98.40"/>
    </edge>
    <edge id=":cC0_8" function="internal">
        <lane id=":cC0_8_0" index="0" speed="13.90" length="5.00" shape="301.60,95.30 301.79,96.66 302.38,97.63 303.34,98.21 304.70,98.40"/>
    </edge>
    <edge id=":cC0_9" function="internal">
        <lane id=":cC0_9_0" index="0" speed="13.90" length="9.40" shape="301.60,95.30 301.60,104.70"/>
    </edge>
    <edge id=":cC0_10" function="internal">
        <lane id=":cC0_10_0" index="0" speed="13.90" length="5.08" shape="301.60,95.30 301.21,98.06 300.02,100.03"/>
    </edge>
    <edge id=":cC0_11" function="internal">
        <lane id=":cC0_11_0" index="0" speed="13.90" length="2.34" shape="301.60,95.30 300.80,96.50 300.00,96.90"/>
    </edge>
    <edge id=":cC0_18" function="internal">
        <lane id=":cC0_18_0" index="0" speed="13.90" length="5.08" shape="300.02,100.03 298.06,101.21 295.30,101.60"/>
    </edge>
    <edge id=":cC0_19" function="internal">
        <lane id=":cC0_19_0" index="0" speed="13.90" length="2.34" shape="300.00,96.90 299.20,96.50 298.40,95.30"/>
    </edge>
    <edge id=":cC0_12" function="internal">
        <lane id=":cC0_12_0" index="0" speed="13.90" length="5.00" shape="295.30,98.40 296.66,98.21 297.62,97.63 298.21,96.66 298.40,95.30"/>
    </edge>
    <edge id=":cC0_13" function="internal">
        <lane id=":cC0_13_0" index="0" speed="13.90" length="9.40" shape="295.30,98.40 304.70,98.40"/>
    </edge>
    <edge id=":cC0_14" function="internal">
        <lane id=":cC0_14_0" index="0" speed="13.90" length="10.16" shape="295.30,98.40 298.06,98.79 300.02,99.98 301.21,101.94 301.60,104.70"/>
    </edge>
    <edge id=":cC0_15" function="internal">
        <lane id=":cC0_15_0" index="0" speed="13.90" length="4.67" shape="295.30,98.40 296.50,99.20 296.90,100.00 296.50,100.80 295.30,101.60"/>
    </edge>
    <edge id=":cbottom0_0" function="internal">
        <lane id=":cbottom0_0_0" index="0" speed="13.90" length="4.67" shape="98.40,0.00 99.20,-1.20 100.00,-1.60 100.80,-1.20 101.60,0.00"/>
    </edge>
    <edge id=":cbottom1_0" function="internal">
        <lane id=":cbottom1_0_0" index="0" speed="13.90" length="4.67" shape="198.40,0.00 199.20,-1.20 200.00,-1.60 200.80,-1.20 201.60,0.00"/>
    </edge>
    <edge id=":cbottom2_0" function="internal">
        <lane id=":cbottom2_0_0" index="0" speed="13.90" length="4.67" shape="298.40,0.00 299.20,-1.20 300.00,-1.60 300.80,-1.20 301.60,0.00"/>
    </edge>
    <edge id=":cleft0_0" function="internal">
        <lane id=":cleft0_0_0" index="0" speed="13.90" length="4.67" shape="0.00,101.60 -1.20,100.80 -1.60,100.00 -1.20,99.20 0.00,98.40"/>
    </edge>
    <edge id=":cright0_0" function="internal">
        <lane id=":cright0_0_0" index="0" speed="13.90" length="4.67" shape="400.00,98.40 401.20,99.20 401.60,100.00 401.20,100.80 400.00,101.60"/>
    </edge>
    <edge id=":ctop0_0" function="internal">
        <lane id=":ctop0_0_0" index="0" speed="13.90" length="4.67" shape="101.60,200.00 100.80,201.20 100.00,201.60 99.20,201.20 98.40,200.00"/>
    </edge>
    <edge id=":ctop1_0" function="internal">
        <lane id=":ctop1_0_0" index="0" speed="13.90" length="4.67" shape="201.60,200.00 200.80,201.20 200.00,201.60 199.20,201.20 198.40,200.00"/>
    </edge>
    <edge id=":ctop2_0" function="internal">
        <lane id=":ctop2_0_0" index="0" speed="13.90" length="4.67" shape="301.60,200.00 300.80,201.20 300.00,201.60 299.20,201.20 298.40,200.00"/>
    </edge>

    <edge id="cA0cB0" from="cA0" to="cB0" priority="-1">
        <lane id="cA0cB0_0" index="0" speed="13.90" length="90.60" shape="104.70,98.40 195.30,98.40"/>
    </edge>
    <edge id="cA0cbottom0" from="cA0" to="cbottom0" priority="-1">
        <lane id="cA0cbottom0_0" index="0" speed="13.90" length="95.30" shape="98.40,95.30 98.40,0.00"/>
    </edge>
    <edge id="cA0cleft0" from="cA0" to="cleft0" priority="-1">
        <lane id="cA0cleft0_0" index="0" speed="13.90" length="95.30" shape="95.30,101.60 0.00,101.60"/>
    </edge>
    <edge id="cA0ctop0" from="cA0" to="ctop0" priority="-1">
        <lane id="cA0ctop0_0" index="0" speed="13.90" length="95.30" shape="101.60,104.70 101.60,200.00"/>
    </edge>
    <edge id="cB0cA0" from="cB0" to="cA0" priority="-1">
        <lane id="cB0cA0_0" index="0" speed="13.90" length="90.60" shape="195.30,101.60 104.70,101.60"/>
    </edge>
    <edge id="cB0cC0" from="cB0" to="cC0" priority="-1">
        <lane id="cB0cC0_0" index="0" speed="13.90" length="90.60" shape="204.70,98.40 295.30,98.40"/>
    </edge>
    <edge id="cB0cbottom1" from="cB0" to="cbottom1" priority="-1">
        <lane id="cB0cbottom1_0" index="0" speed="13.90" length="95.30" shape="198.40,95.30 198.40,0.00"/>
    </edge>
    <edge id="cB0ctop1" from="cB0" to="ctop1" priority="-1">
        <lane id="cB0ctop1_0" index="0" speed="13.90" length="95.30" shape="201.60,104.70 201.60,200.00"/>
    </edge>
    <edge id="cC0cB0" from="cC0" to="cB0" priority="-1">
        <lane id="cC0cB0_0" index="0" speed="13.90" length="90.60" shape="295.30,101.60 204.70,101.60"/>
    </edge>
    <edge id="cC0cbottom2" from="cC0" to="cbottom2" priority="-1">
        <lane id="cC0cbottom2_0" index="0" speed="13.90" length="95.30" shape="298.40,95.30 298.40,0.00"/>
    </edge>
    <edge id="cC0cright0" from="cC0" to="cright0" priority="-1">
        <lane id="cC0cright0_0" index="0" speed="13.90" length="95.30" shape="304.70,98.40 400.00,98.40"/>
    </edge>
    <edge id="cC0ctop2" from="cC0" to="ctop2" priority="-1">
        <lane id="cC0ctop2_0" index="0" speed="13.90" length="95.30" shape="301.60,104.70 301.60,200.00"/>
    </edge>
    <edge id="cbottom0cA0" from="cbottom0" to="cA0" priority="-1">
        <lane id="cbottom0cA0_0" index="0" speed="13.90" length="95.30" shape="101.60,0.00 101.60,95.30"/>
    </edge>
    <edge id="cbottom1cB0" from="cbottom1" to="cB0" priority="-1">
        <lane id="cbottom1cB0_0" index="0" speed="13.90" length="95.30" shape="201.60,0.00 201.60,95.30"/>
    </edge>
    <edge id="cbottom2cC0" from="cbottom2" to="cC0" priority="-1">
        <lane id="cbottom2cC0_0" index="0" speed="13.90" length="95.30" shape="301.60,0.00 301.60,95.30"/>
    </edge>
    <edge id="cleft0cA0" from="cleft0" to="cA0" priority="-1">
        <lane id="cleft0cA0_0" index="0" speed="13.90" length="95.30" shape="0.00,98.40 95.30,98.40"/>
    </edge>
    <edge id="cright0cC0" from="cright0" to="cC0" priority="-1">
        <lane id="cright0cC0_0" index="0" speed="13.90" length="95.30" shape="400.00,101.60 304.70,101.60"/>
    </edge>
    <edge id="ctop0cA0" from="ctop0" to="cA0" priority="-1">
        <lane id="ctop0cA0_0" index="0" speed="13.90" length="95.30" shape="98.40,200.00 98.40,104.70"/>
    </edge>
    <edge id="ctop1cB0" from="ctop1" to="cB0" priority="-1">
        <lane id="ctop1cB0_0" index="0" speed="13.90" length="95.30" shape="198.40,200.00 198.40,104.70"/>
    </edge>
    <edge id="ctop2cC0" from="ctop2" to="cC0" priority="-1">
        <lane id="ctop2cC0_0" index="0" speed="13.90" length="95.30" shape="298.40,200.00 298.40,104.70"/>
    </edge>

    <junction id="cA0" type="priority" x="100.00" y="100.00" incLanes="ctop0cA0_0 cB0cA0_0 cbottom0cA0_0 cleft0cA0_0" intLanes=":cA0_0_0 :cA0_1_0 :cA0_16_0 :cA0_17_0 :cA0_4_0 :cA0_5_0 :cA0_6_0 :cA0_7_0 :cA0_8_0 :cA0_9_0 :cA0_18_0 :cA0_19_0 :cA0_12_0 :cA0_13_0 :cA0_14_0 :cA0_15_0" shape="96.80,104.70 103.20,104.70 104.70,103.20 104.70,96.80 103.20,95.30 96.80,95.30 95.30,96.80 95.30,103.20">
        <request index="0"  response="0000000000000000" foes="1000010000100000" cont="0"/>
        <request index="1"  response="0000000000000000" foes="0111110001100000" cont="0"/>
        <request index="2"  response="0000001100000000" foes="0110001111100000" cont="1"/>
        <request index="3"  response="0100001000010000" foes="0100001000010000" cont="1"/>
        <request index="4"  response="0000001000000000" foes="0100001000001000" cont="0"/>
        <request index="5"  response="0000011000000111" foes="1100011000000111" cont="0"/>
        <request index="6"  response="0011011000000110" foes="0011111000000110" cont="0"/>
        <request index="7"  response="0010000100000100" foes="0010000100000100" cont="0"/>
        <request index="8"  response="0000000000000000" foes="0010000010000100" cont="0"/>
        <request index="9"  response="0000000000000000" foes="0110000001111100" cont="0"/>
        <request index="10" response="0000000000000011" foes="1110000001100011" cont="1"/>
        <request index="11" response="0001000001000010" foes="0001000001000010" cont="1"/>
        <request index="12" response="0000000000000010" foes="0000100001000010" cont="0"/>
        <request index="13" response="0000011100000110" foes="0000011111000110" cont="0"/>
        <request index="14" response="0000011000110110" foes="0000011000111110" cont="0"/>
        <request index="15" response="0000010000100001" foes="0000010000100001" cont="0"/>
    </junction>
    <junction id="cB0" type="priority" x="200.00" y="100.00" incLanes="ctop1cB0_0 cC0cB0_0 cbottom1cB0_0 cA0cB0_0" intLanes=":cB0_0_0 :cB0_1_0 :cB0_16_0 :cB0_17_0 :cB0_4_0 :cB0_5_0 :cB0_6_0 :cB0_7_0 :cB0_8_0 :cB0_9_0 :cB0_18_0 :cB0_19_0 :cB0_12_0 :cB0_13_0 :cB0_14_0 :cB0_15_0" shape="196.80,104.70 203.20,104.70 204.70,103.20 204.70,96.80 203.20,95.30 196.80,95.30 195.30,96.80 195.30,103.20">
        <request index="0"  response="0000000000000000" foes="1000010000100000" cont="0"/>
        <request index="1"  response="0000000000000000" foes="0111110001100000" cont="0"/>
        <request index="2"  response="0000001100000000" foes="0110001111100000" cont="1"/>
        <request index="3"  response="0100001000010000" foes="0100001000010000" cont="1"/>
        <request index="4"  response="0000001000000000" foes="0100001000001000" cont="0"/>
        <request index="5"  response="0000011000000111" foes="1100011000000111" cont="0"/>
        <request index="6"  response="0011011000000110" foes="0011111000000110" cont="0"/>
        <request index="7"  response="0010000100000100" foes="0010000100000100" cont="0"/>
        <request index="8"  response="0000000000000000" foes="0010000010000100" cont="0"/>
        <request index="9"  response="0000000000000000" foes="0110000001111100" cont="0"/>
        <request index="10" response="0000000000000011" foes="1110000001100011" cont="1"/>
        <request index="11" response="0001000001000010" foes="0001000001000010" cont="1"/>
        <request index="12" response="0000000000000010" foes="0000100001000010" cont="0"/>
        <request index="13" response="0000011100000110" foes="0000011111000110" cont="0"/>
        <request index="14" response="0000011000110110" foes="0000011000111110" cont="0"/>
        <request index="15" response="0000010000100001" foes="0000010000100001" cont="0"/>
    </junction>
    <junction id="cC0" type="priority" x="300.00" y="100.00" incLanes="ctop2cC0_0 cright0cC0_0 cbottom2cC0_0 cB0cC0_0" intLanes=":cC0_0_0 :cC0_1_0 :cC0_16_0 :cC0_17_0 :cC0_4_0 :cC0_5_0 :cC0_6_0 :cC0_7_0 :cC0_8_0 :cC0_9_0 :cC0_18_0 :cC0_19_0 :cC0_12_0 :cC0_13_0 :cC0_14_0 :cC0_15_0" shape="296.80,104.70 303.20,104.70 304.70,103.20 304.70,96.80 303.20,95.30 296.80,95.30 295.30,96.80 295.30,103.20">
        <request index="0"  response="0000000000000000" foes="1000010000100000" cont="0"/>
        <request index="1"  response="0000000000000000" foes="0111110001100000" cont="0"/>
        <request index="2"  response="0000001100000000" foes="0110001111100000" cont="1"/>
        <request index="3"  response="0100001000010000" foes="0100001000010000" cont="1"/>
        <request index="4"  response="0000001000000000" foes="0100001000001000" cont="0"/>
        <request index="5"  response="0000011000000111" foes="1100011000000111" cont="0"/>
        <request index="6"  response="0011011000000110" foes="0011111000000110" cont="0"/>
        <request index="7"  response="0010000100000100" foes="0010000100000100" cont="0"/>
        <request index="8"  response="0000000000000000" foes="0010000010000100" cont="0"/>
        <request index="9"  response="0000000000000000" foes="0110000001111100" cont="0"/>
        <request index="10" response="0000000000000011" foes="1110000001100011" cont="1"/>
        <request index="11" response="0001000001000010" foes="0001000001000010" cont="1"/>
        <request index="12" response="0000000000000010" foes="0000100001000010" cont="0"/>
        <request index="13" response="0000011100000110" foes="0000011111000110" cont="0"/>
        <request index="14" response="0000011000110110" foes="0000011000111110" cont="0"/>
        <request index="15" response="0000010000100001" foes="0000010000100001" cont="0"/>
    </junction>
    <junction id="cbottom0" type="priority" x="100.00" y="0.00" incLanes="cA0cbottom0_0" intLanes=":cbottom0_0_0" shape="100.00,0.00 96.80,0.00 100.00,0.00">
        <request index="0" response="0" foes="0" cont="0"/>
    </junction>
    <junction id="cbottom1" type="priority" x="200.00" y="0.00" incLanes="cB0cbottom1_0" intLanes=":cbottom1_0_0" shape="200.00,0.00 196.80,0.00 200.00,0.00">
        <request index="0" response="0" foes="0" cont="0"/>
    </junction>
    <junction id="cbottom2" type="priority" x="300.00" y="0.00" incLanes="cC0cbottom2_0" intLanes=":cbottom2_0_0" shape="300.00,0.00 296.80,0.00 300.00,0.00">
        <request index="0" response="0" foes="0" cont="0"/>
    </junction>
    <junction id="cleft0" type="priority" x="0.00" y="100.00" incLanes="cA0cleft0_0" intLanes=":cleft0_0_0" shape="0.00,100.00 0.00,103.20 0.00,100.00">
        <request index="0" response="0" foes="0" cont="0"/>
    </junction>
    <junction id="cright0" type="priority" x="400.00" y="100.00" incLanes="cC0cright0_0" intLanes=":cright0_0_0" shape="400.00,100.00 400.00,96.80 400.00,100.00">
        <request index="0" response="0" foes="0" cont="0"/>
    </junction>
    <junction id="ctop0" type="priority" x="100.00" y="200.00" incLanes="cA0ctop0_0" intLanes=":ctop0_0_0" shape="100.00,200.00 103.20,200.00 100.00,200.00">
        <request index="0" response="0" foes="0" cont="0"/>
    </junction>
    <junction id="ctop1" type="priority" x="200.00" y="200.00" incLanes="cB0ctop1_0" intLanes=":ctop1_0_0" shape="200.00,200.00 203.20,200.00 200.00,200.00">
        <request index="0" response="0" foes="0" cont="0"/>
    </junction>
    <junction id="ctop2" type="priority" x="300.00" y="200.00" incLanes="cC0ctop2_0" intLanes=":ctop2_0_0" shape="300.00,200.00 303.20,200.00 300.00,200.00">
        <request index="0" response="0" foes="0" cont="0"/>
    </junction>

    <junction id=":cA0_16_0" type="internal" x="99.98" y="99.97" incLanes=":cA0_2_0 cbottom0cA0_0" intLanes=":cA0_5_0 :cA0_6_0 :cA0_7_0 :cA0_8_0 :cA0_9_0 :cA0_13_0 :cA0_14_0"/>
    <junction id=":cA0_17_0" type="internal" x="100.00" y="103.10" incLanes=":cA0_3_0 cB0cA0_0 cbottom0cA0_0 cleft0cA0_0" intLanes=":cA0_4_0 :cA0_9_0 :cA0_14_0"/>
    <junction id=":cA0_18_0" type="internal" x="100.02" y="100.03" incLanes=":cA0_10_0 ctop0cA0_0" intLanes=":cA0_0_0 :cA0_1_0 :cA0_5_0 :cA0_6_0 :cA0_13_0 :cA0_14_0 :cA0_15_0"/>
    <junction id=":cA0_19_0" type="internal" x="100.00" y="96.90" incLanes=":cA0_11_0 cB0cA0_0 cleft0cA0_0 ctop0cA0_0" intLanes=":cA0_1_0 :cA0_6_0 :cA0_12_0"/>
    <junction id=":cB0_16_0" type="internal" x="199.98" y="99.97" incLanes=":cB0_2_0 cbottom1cB0_0" intLanes=":cB0_5_0 :cB0_6_0 :cB0_7_0 :cB0_8_0 :cB0_9_0 :cB0_13_0 :cB0_14_0"/>
    <junction id=":cB0_17_0" type="internal" x="200.00" y="103.10" incLanes=":cB0_3_0 cA0cB0_0 cC0cB0_0 cbottom1cB0_0" intLanes=":cB0_4_0 :cB0_9_0 :cB0_14_0"/>
    <junction id=":cB0_18_0" type="internal" x="200.02" y="100.03" incLanes=":cB0_10_0 ctop1cB0_0" intLanes=":cB0_0_0 :cB0_1_0 :cB0_5_0 :cB0_6_0 :cB0_13_0 :cB0_14_0 :cB0_15_0"/>
    <junction id=":cB0_19_0" type="internal" x="200.00" y="96.90" incLanes=":cB0_11_0 cA0cB0_0 cC0cB0_0 ctop1cB0_0" intLanes=":cB0_1_0 :cB0_6_0 :cB0_12_0"/>
    <junction id=":cC0_16_0" type="internal" x="299.98" y="99.97" incLanes=":cC0_2_0 cbottom2cC0_0" intLanes=":cC0_5_0 :cC0_6_0 :cC0_7_0 :cC0_8_0 :cC0_9_0 :cC0_13_0 :cC0_14_0"/>
    <junction id=":cC0_17_0" type="internal" x="300.00" y="103.10" incLanes=":cC0_3_0 cB0cC0_0 cbottom2cC0_0 cright0cC0_0" intLanes=":cC0_4_0 :cC0_9_0 :cC0_14_0"/>
    <junction id=":cC0_18_0" type="internal" x="300.02" y="100.03" incLanes=":cC0_10_0 ctop2cC0_0" intLanes=":cC0_0_0 :cC0_1_0 :cC0_5_0 :cC0_6_0 :cC0_13_0 :cC0_14_0 :cC0_15_0"/>
    <junction id=":cC0_19_0" type="internal" x="300.00" y="96.90" incLanes=":cC0_11_0 cB0cC0_0 cright0cC0_0 ctop2cC0_0" intLanes=":cC0_1_0 :cC0_6_0 :cC0_12_0"/>

    <connection from="cA0cB0" to="cB0cbottom1" fromLane="0" toLane="0" via=":cB0_12_0" dir="r" state="m"/>
    <connection from="cA0cB0" to="cB0cC0" fromLane="0" toLane="0" via=":cB0_13_0" dir="s" state="m"/>
    <connection from="cA0cB0" to="cB0ctop1" fromLane="0" toLane="0" via=":cB0_14_0" dir="l" state="m"/>
    <connection from="cA0cB0" to="cB0cA0" fromLane="0" toLane="0" via=":cB0_15_0" dir="t" state="m"/>
    <connection from="cA0cbottom0" to="cbottom0cA0" fromLane="0" toLane="0" via=":cbottom0_0_0" dir="t" state="M"/>
    <connection from="cA0cleft0" to="cleft0cA0" fromLane="0" toLane="0" via=":cleft0_0_0" dir="t" state="M"/>
    <connection from="cA0ctop0" to="ctop0cA0" fromLane="0" toLane="0" via=":ctop0_0_0" dir="t" state="M"/>
    <connection from="cB0cA0" to="cA0ctop0" fromLane="0" toLane="0" via=":cA0_4_0" dir="r" state="m"/>
    <connection from="cB0cA0" to="cA0cleft0" fromLane="0" toLane="0" via=":cA0_5_0" dir="s" state="m"/>
    <connection from="cB0cA0" to="cA0cbottom0" fromLane="0" toLane="0" via=":cA0_6_0" dir="l" state="m"/>
    <connection from="cB0cA0" to="cA0cB0" fromLane="0" toLane="0" via=":cA0_7_0" dir="t" state="m"/>
    <connection from="cB0cC0" to="cC0cbottom2" fromLane="0" toLane="0" via=":cC0_12_0" dir="r" state="m"/>
    <connection from="cB0cC0" to="cC0cright0" fromLane="0" toLane="0" via=":cC0_13_0" dir="s" state="m"/>
    <connection from="cB0cC0" to="cC0ctop2" fromLane="0" toLane="0" via=":cC0_14_0" dir="l" state="m"/>
    <connection from="cB0cC0" to="cC0cB0" fromLane="0" toLane="0" via=":cC0_15_0" dir="t" state="m"/>
    <connection from="cB0cbottom1" to="cbottom1cB0" fromLane="0" toLane="0" via=":cbottom1_0_0" dir="t" state="M"/>
    <connection from="cB0ctop1" to="ctop1cB0" fromLane="0" toLane="0" via=":ctop1_0_0" dir="t" state="M"/>
    <connection from="cC0cB0" to="cB0ctop1" fromLane="0" toLane="0" via=":cB0_4_0" dir="r" state="m"/>
    <connection from="cC0cB0" to="cB0cA0" fromLane="0" toLane="0" via=":cB0_5_0" dir="s" state="m"/>
    <connection from="cC0cB0" to="cB0cbottom1" fromLane="0" toLane="0" via=":cB0_6_0" dir="l" state="m"/>
    <connection from="cC0cB0" to="cB0cC0" fromLane="0" toLane="0" via=":cB0_7_0" dir="t" state="m"/>
    <connection from="cC0cbottom2" to="cbottom2cC0" fromLane="0" toLane="0" via=":cbottom2_0_0" dir="t" state="M"/>
    <connection from="cC0cright0" to="cright0cC0" fromLane="0" toLane="0" via=":cright0_0_0" dir="t" state="M"/>
    <connection from="cC0ctop2" to="ctop2cC0" fromLane="0" toLane="0" via=":ctop2_0_0" dir="t" state="M"/>
    <connection from="cbottom0cA0" to="cA0cB0" fromLane="0" toLane="0" via=":cA0_8_0" dir="r" state="M"/>
    <connection from="cbottom0cA0" to="cA0ctop0" fromLane="0" toLane="0" via=":cA0_9_0" dir="s" state="M"/>
    <connection from="cbottom0cA0" to="cA0cleft0" fromLane="0" toLane="0" via=":cA0_10_0" dir="l" state="m"/>
    <connection from="cbottom0cA0" to="cA0cbottom0" fromLane="0" toLane="0" via=":cA0_11_0" dir="t" state="m"/>
    <connection from="cbottom1cB0" to="cB0cC0" fromLane="0" toLane="0" via=":cB0_8_0" dir="r" state="M"/>
    <connection from="cbottom1cB0" to="cB0ctop1" fromLane="0" toLane="0" via=":cB0_9_0" dir="s" state="M"/>
    <connection from="cbottom1cB0" to="cB0cA0" fromLane="0" toLane="0" via=":cB0_10_0" dir="l" state="m"/>
    <connection from="cbottom1cB0" to="cB0cbottom1" fromLane="0" toLane="0" via=":cB0_11_0" dir="t" state="m"/>
    <connection from="cbottom2cC0" to="cC0cright0" fromLane="0" toLane="0" via=":cC0_8_0" dir="r" state="M"/>