<?xml version="1.0" encoding="UTF-8"?>

<!-- generated on Thu May 17 11:02:11 2018 by Eclipse SUMO netconvert Version 393bc33c
This data file and the accompanying materials
are made available under the terms of the Eclipse Public License v2.0
which accompanies this distribution, and is available at
http://www.eclipse.org/legal/epl-v20.html
SPDX-License-Identifier: EPL-2.0
<configuration xmlns:xsi="http://www.w3.org/2001/XMLSchema-instance" xsi:noNamespaceSchemaLocation="http://sumo.dlr.de/xsd/netconvertConfiguration.xsd">

    <input>
        <sumo-net-file value="input_net.net.xml,input_net2.net.xml"/>
    </input>

    <output>
        <write-license value="true"/>
        <output-file value="net.net.xml"/>
    </output>

    <processing>
        <no-turnarounds value="true"/>
        <offset.disable-normalization value="true"/>
        <lefthand value="false"/>
        <junctions.corner-detail value="0"/>
        <rectangular-lane-cut value="false"/>
        <walkingareas value="false"/>
    </processing>

    <report>
        <xml-validation value="never"/>
    </report>

</configuration>
-->

<net version="0.27" xmlns:xsi="http://www.w3.org/2001/XMLSchema-instance" xsi:noNamespaceSchemaLocation="http://sumo.dlr.de/xsd/net_file.xsd">

    <location netOffset="0.00,0.00" convBoundary="0.00,-800.00,1400.00,200.00" origBoundary="0.00,0.00,400.00,200.00" projParameter="!"/>

    <edge id=":1_0" function="internal">
        <lane id=":1_0_0" index="0" speed="13.90" length="5.00" shape="998.40,4.70 998.21,3.34 997.62,2.37 996.66,1.79 995.30,1.60"/>
    </edge>
    <edge id=":1_1" function="internal">
        <lane id=":1_1_0" index="0" speed="13.90" length="9.40" shape="998.40,4.70 998.40,-4.70"/>
    </edge>
    <edge id=":1_2" function="internal">
        <lane id=":1_2_0" index="0" speed="13.90" length="5.08" shape="998.40,4.70 998.79,1.94 999.97,-0.02"/>
    </edge>
    <edge id=":1_3" function="internal">
        <lane id=":1_3_0" index="0" speed="13.90" length="2.34" shape="998.40,4.70 999.20,3.50 1000.00,3.10"/>
    </edge>
    <edge id=":1_16" function="internal">
        <lane id=":1_16_0" index="0" speed="13.90" length="5.08" shape="999.97,-0.02 1001.94,-1.21 1004.70,-1.60"/>
    </edge>
    <edge id=":1_17" function="internal">
        <lane id=":1_17_0" index="0" speed="13.90" length="2.34" shape="1000.00,3.10 1000.80,3.50 1001.60,4.70"/>
    </edge>
    <edge id=":1_4" function="internal">
        <lane id=":1_4_0" index="0" speed="13.90" length="5.00" shape="1004.70,1.60 1003.34,1.79 1002.38,2.37 1001.79,3.34 1001.60,4.70"/>
    </edge>
    <edge id=":1_5" function="internal">
        <lane id=":1_5_0" index="0" speed="13.90" length="9.40" shape="1004.70,1.60 995.30,1.60"/>
    </edge>
    <edge id=":1_6" function="internal">
        <lane id=":1_6_0" index="0" speed="13.90" length="10.16" shape="1004.70,1.60 1001.94,1.21 999.98,0.03 998.79,-1.94 998.40,-4.70"/>
    </edge>
    <edge id=":1_7" function="internal">
        <lane id=":1_7_0" index="0" speed="13.90" length="4.67" shape="1004.70,1.60 1003.50,0.80 1003.10,0.00 1003.50,-0.80 1004.70,-1.60"/>
    </edge>
    <edge id=":1_8" function="internal">
        <lane id=":1_8_0" index="0" speed="13.90" length="5.00" shape="1001.60,-4.70 1001.79,-3.34 1002.38,-2.37 1003.34,-1.79 1004.70,-1.60"/>
    </edge>
    <edge id=":1_9" function="internal">
        <lane id=":1_9_0" index="0" speed="13.90" length="9.40" shape="1001.60,-4.70 1001.60,4.70"/>
    </edge>
    <edge id=":1_10" function="internal">
        <lane id=":1_10_0" index="0" speed="13.90" length="5.08" shape="1001.60,-4.70 1001.21,-1.94 1000.03,0.03"/>
    </edge>
    <edge id=":1_11" function="internal">
        <lane id=":1_11_0" index="0" speed="13.90" length="2.34" shape="1001.60,-4.70 1000.80,-3.50 1000.00,-3.10"/>
    </edge>
    <edge id=":1_18" function="internal">
        <lane id=":1_18_0" index="0" speed="13.90" length="5.08" shape="1000.03,0.03 998.06,1.21 995.30,1.60"/>
    </edge>
    <edge id=":1_19" function="internal">
        <lane id=":1_19_0" index="0" speed="13.90" length="2.34" shape="1000.00,-3.10 999.20,-3.50 998.40,-4.70"/>
    </edge>
    <edge id=":1_12" function="internal">
        <lane id=":1_12_0" index="0" speed="13.90" length="5.00" shape="995.30,-1.60 996.66,-1.79 997.62,-2.37 998.21,-3.34 998.40,-4.70"/>
    </edge>
    <edge id=":1_13" function="internal">
        <lane id=":1_13_0" index="0" speed="13.90" length="9.40" shape="995.30,-1.60 1004.70,-1.60"/>
    </edge>
    <edge id=":1_14" function="internal">
        <lane id=":1_14_0" index="0" speed="13.90" length="10.16" shape="995.30,-1.60 998.06,-1.21 1000.02,-0.03 1001.21,1.94 1001.60,4.70"/>
    </edge>
    <edge id=":1_15" function="internal">
        <lane id=":1_15_0" index="0" speed="13.90" length="4.67" shape="995.30,-1.60 996.50,-0.80 996.90,0.00 996.50,0.80 995.30,1.60"/>
    </edge>
    <edge id=":10_0" function="internal">
        <lane id=":10_0_0" index="0" speed="13.90" length="5.00" shape="798.40,4.70 798.21,3.34 797.62,2.37 796.66,1.79 795.30,1.60"/>
    </edge>
    <edge id=":10_1" function="internal">
        <lane id=":10_1_0" index="0" speed="13.90" length="9.40" shape="798.40,4.70 798.40,-4.70"/>
    </edge>
    <edge id=":10_2" function="internal">
        <lane id=":10_2_0" index="0" speed="13.90" length="5.08" shape="798.40,4.70 798.79,1.94 799.97,-0.03"/>
    </edge>
    <edge id=":10_3" function="internal">
        <lane id=":10_3_0" index="0" speed="13.90" length="2.34" shape="798.40,4.70 799.20,3.50 800.00,3.10"/>
    </edge>
    <edge id=":10_16" function="internal">
        <lane id=":10_16_0" index="0" speed="13.90" length="5.08" shape="799.97,-0.03 801.94,-1.21 804.70,-1.60"/>
    </edge>
    <edge id=":10_17" function="internal">
        <lane id=":10_17_0" index="0" speed="13.90" length="2.34" shape="800.00,3.10 800.80,3.50 801.60,4.70"/>
    </edge>
    <edge id=":10_4" function="internal">
        <lane id=":10_4_0" index="0" speed="13.90" length="5.00" shape="804.70,1.60 803.34,1.79 802.38,2.37 801.79,3.34 801.60,4.70"/>
    </edge>
    <edge id=":10_5" function="internal">
        <lane id=":10_5_0" index="0" speed="13.90" length="9.40" shape="804.70,1.60 795.30,1.60"/>
    </edge>
    <edge id=":10_6" function="internal">
        <lane id=":10_6_0" index="0" speed="13.90" length="10.16" shape="804.70,1.60 801.94,1.21 799.98,0.03 798.79,-1.94 798.40,-4.70"/>
    </edge>
    <edge id=":10_7" function="internal">
        <lane id=":10_7_0" index="0" speed="13.90" length="4.67" shape="804.70,1.60 803.50,0.80 803.10,0.00 803.50,-0.80 804.70,-1.60"/>
    </edge>
    <edge id=":10_8" function="internal">
        <lane id=":10_8_0" index="0" speed="13.90" length="5.00" shape="801.60,-4.70 801.79,-3.34 802.38,-2.37 803.34,-1.79 804.70,-1.60"/>
    </edge>
    <edge id=":10_9" function="internal">
        <lane id=":10_9_0" index="0" speed="13.90" length="9.40" shape="801.60,-4.70 801.60,4.70"/>
    </edge>
    <edge id=":10_10" function="internal">
        <lane id=":10_10_0" index="0" speed="13.90" length="5.08" shape="801.60,-4.70 801.21,-1.94 800.03,0.03"/>
    </edge>
    <edge id=":10_11" function="internal">
        <lane id=":10_11_0" index="0" speed="13.90" length="2.34" shape="801.60,-4.70 800.80,-3.50 800.00,-3.10"/>
    </edge>
    <edge id=":10_18" function="internal">
        <lane id=":10_18_0" index="0" speed="13.90" length="5.08" shape="800.03,0.03 798.06,1.21 795.30,1.60"/>
    </edge>
    <edge id=":10_19" function="internal">
        <lane id=":10_19_0" index="0" speed="13.90" length="2.34" shape="800.00,-3.10 799.20,-3.50 798.40,-4.70"/>
    </edge>
    <edge id=":10_12" function="internal">
        <lane id=":10_12_0" index="0" speed="13.90" length="5.00" shape="795.30,-1.60 796.66,-1.79 797.62,-2.37 798.21,-3.34 798.40,-4.70"/>
    </edge>
    <edge id=":10_13" function="internal">
        <lane id=":10_13_0" index="0" speed="13.90" length="9.40" shape="795.30,-1.60 804.70,-1.60"/>
    </edge>
    <edge id=":10_14" function="internal">
        <lane id=":10_14_0" index="0" speed="13.90" length="10.16" shape="795.30,-1.60 798.06,-1.21 800.02,-0.03 801.21,1.94 801.60,4.70"/>
    </edge>
    <edge id=":10_15" function="internal">
        <lane id=":10_15_0" index="0" speed="13.90" length="4.67" shape="795.30,-1.60 796.50,-0.80 796.90,0.00 796.50,0.80 795.30,1.60"/>
    </edge>
    <edge id=":14_0" function="internal">
        <lane id=":14_0_0" index="0" speed="13.90" length="9.40" shape="1004.70,201.60 995.30,201.60"/>
    </edge>
    <edge id=":14_1" function="internal">
        <lane id=":14_1_0" index="0" speed="13.90" length="5.08" shape="1004.70,201.60 1001.94,201.21 999.98,200.02"/>
    </edge>
    <edge id=":14_2" function="internal">
        <lane id=":14_2_0" index="0" speed="13.90" length="2.34" shape="1004.70,201.60 1003.50,200.80 1003.10,200.00"/>
    </edge>
    <edge id=":14_9" function="internal">
        <lane id=":14_9_0" index="0" speed="13.90" length="5.08" shape="999.98,200.02 998.79,198.06 998.40,195.30"/>
    </edge>
    <edge id=":14_10" function="internal">
        <lane id=":14_10_0" index="0" speed="13.90" length="2.34" shape="1003.10,200.00 1003.50,199.20 1004.70,198.40"/>
    </edge>
    <edge id=":14_3" function="internal">
        <lane id=":14_3_0" index="0" speed="13.90" length="5.00" shape="1001.60,195.30 1001.79,196.66 1002.38,197.62 1003.34,198.21 1004.70,198.40"/>
    </edge>
    <edge id=":14_4" function="internal">
        <lane id=":14_4_0" index="0" speed="13.90" length="10.16" shape="1001.60,195.30 1001.21,198.06 1000.03,200.03 998.06,201.21 995.30,201.60"/>
    </edge>
    <edge id=":14_5" function="internal">
        <lane id=":14_5_0" index="0" speed="13.90" length="4.67" shape="1001.60,195.30 1000.80,196.50 1000.00,196.90 999.20,196.50 998.40,195.30"/>
    </edge>
    <edge id=":14_6" function="internal">
        <lane id=":14_6_0" index="0" speed="13.90" length="5.00" shape="995.30,198.40 996.66,198.21 997.62,197.62 998.21,196.66 998.40,195.30"/>
    </edge>
    <edge id=":14_7" function="internal">
        <lane id=":14_7_0" index="0" speed="13.90" length="9.40" shape="995.30,198.40 1004.70,198.40"/>
    </edge>
    <edge id=":14_8" function="internal">
        <lane id=":14_8_0" index="0" speed="13.90" length="2.34" shape="995.30,198.40 996.50,199.20 996.90,200.00"/>
    </edge>
    <edge id=":14_11" function="internal">
        <lane id=":14_11_0" index="0" speed="13.90" length="2.34" shape="996.90,200.00 996.50,200.80 995.30,201.60"/>
    </edge>
    <edge id=":157_0" function="internal">
        <lane id=":157_0_0" index="0" speed="13.90" length="9.40" shape="604.70,201.60 595.30,201.60"/>
    </edge>
    <edge id=":157_1" function="internal">
        <lane id=":157_1_0" index="0" speed="13.90" length="5.08" shape="604.70,201.60 601.94,201.21 599.98,200.02"/>
    </edge>
    <edge id=":157_2" function="internal">
        <lane id=":157_2_0" index="0" speed="13.90" length="2.34" shape="604.70,201.60 603.50,200.80 603.10,200.00"/>
    </edge>
    <edge id=":157_9" function="internal">
        <lane id=":157_9_0" index="0" speed="13.90" length="5.08" shape="599.98,200.02 598.79,198.06 598.40,195.30"/>
    </edge>
    <edge id=":157_10" function="internal">
        <lane id=":157_10_0" index="0" speed="13.90" length="2.34" shape="603.10,200.00 603.50,199.20 604.70,198.40"/>
    </edge>
    <edge id=":157_3" function="internal">
        <lane id=":157_3_0" index="0" speed="13.90" length="5.00" shape="601.60,195.30 601.79,196.66 602.38,197.62 603.34,198.21 604.70,198.40"/>
    </edge>
    <edge id=":157_4" function="internal">
        <lane id=":157_4_0" index="0" speed="13.90" length="10.16" shape="601.60,195.30 601.21,198.06 600.03,200.03 598.06,201.21 595.30,201.60"/>
    </edge>
    <edge id=":157_5" function="internal">
        <lane id=":157_5_0" index="0" speed="13.90" length="4.67" shape="601.60,195.30 600.80,196.50 600.00,196.90 599.20,196.50 598.40,195.30"/>
    </edge>
    <edge id=":157_6" function="internal">
        <lane id=":157_6_0" index="0" speed="13.90" length="5.00" shape="595.30,198.40 596.66,198.21 597.62,197.62 598.21,196.66 598.40,195.30"/>
    </edge>
    <edge id=":157_7" function="internal">
        <lane id=":157_7_0" index="0" speed="13.90" length="9.40" shape="595.30,198.40 604.70,198.40"/>
    </edge>
    <edge id=":157_8" function="internal">
        <lane id=":157_8_0" index="0" speed="13.90" length="2.34" shape="595.30,198.40 596.50,199.20 596.90,200.00"/>
    </edge>
    <edge id=":157_11" function="internal">
        <lane id=":157_11_0" index="0" speed="13.90" length="2.34" shape="596.90,200.00 596.50,200.80 595.30,201.60"/>
    </edge>
    <edge id=":18_0" function="internal">
        <lane id=":18_0_0" index="0" speed="13.90" length="9.40" shape="998.40,-395.30 998.40,-404.70"/>
    </edge>
    <edge id=":18_1" function="internal">
        <lane id=":18_1_0" index="0" speed="13.90" length="5.08" shape="998.40,-395.30 998.79,-398.06 999.97,-400.02"/>
    </edge>
    <edge id=":18_2" function="internal">
        <lane id=":18_2_0" index="0" speed="13.90" length="2.34" shape="998.40,-395.30 999.20,-396.50 1000.00,-396.90"/>
    </edge>
    <edge id=":18_9" function="internal">
        <lane id=":18_9_0" index="0" speed="13.90" length="5.08" shape="999.97,-400.02 1001.94,-401.21 1004.70,-401.60"/>
    </edge>
    <edge id=":18_10" function="internal">
        <lane id=":18_10_0" index="0" speed="13.90" length="2.34" shape="1000.00,-396.90 1000.80,-396.50 1001.60,-395.30"/>
    </edge>
    <edge id=":18_3" function="internal">
        <lane id=":18_3_0" index="0" speed="13.90" length="5.00" shape="1004.70,-398.40 1003.34,-398.21 1002.38,-397.62 1001.79,-396.66 1001.60,-395.30"/>
    </edge>
    <edge id=":18_4" function="internal">
        <lane id=":18_4_0" index="0" speed="13.90" length="10.16" shape="1004.70,-398.40 1001.94,-398.79 999.98,-399.97 998.79,-401.94 998.40,-404.70"/>
    </edge>
    <edge id=":18_5" function="internal">
        <lane id=":18_5_0" index="0" speed="13.90" length="4.67" shape="1004.70,-398.40 1003.50,-399.20 1003.10,-400.00 1003.50,-400.80 1004.70,-401.60"/>
    </edge>
    <edge id=":18_6" function="internal">
        <lane id=":18_6_0" index="0" speed="13.90" length="5.00" shape="1001.60,-404.70 1001.79,-403.34 1002.38,-402.38 1003.34,-401.79 1004.70,-401.60"/>
    </edge>
    <edge id=":18_7" function="internal">
        <lane id=":18_7_0" index="0" speed="13.90" length="9.40" shape="1001.60,-404.70 1001.60,-395.30"/>
    </edge>
    <edge id=":18_8" function="internal">
        <lane id=":18_8_0" index="0" speed="13.90" length="2.34" shape="1001.60,-404.70 1000.80,-403.50 1000.00,-403.10"/>
    </edge>
    <edge id=":18_11" function="internal">
        <lane id=":18_11_0" index="0" speed="13.90" length="2.34" shape="1000.00,-403.10 999.20,-403.50 998.40,-404.70"/>
    </edge>
    <edge id=":2_0" function="internal">
        <lane id=":2_0_0" index="0" speed="13.90" length="5.00" shape="998.40,-195.30 998.21,-196.66 997.62,-197.62 996.66,-198.21 995.30,-198.40"/>
    </edge>
    <edge id=":2_1" function="internal">
        <lane id=":2_1_0" index="0" speed="13.90" length="9.40" shape="998.40,-195.30 998.40,-204.70"/>
    </edge>
    <edge id=":2_2" function="internal">
        <lane id=":2_2_0" index="0" speed="13.90" length="5.08" shape="998.40,-195.30 998.79,-198.06 999.97,-200.03"/>
    </edge>
    <edge id=":2_3" function="internal">
        <lane id=":2_3_0" index="0" speed="13.90" length="2.34" shape="998.40,-195.30 999.20,-196.50 1000.00,-196.90"/>
    </edge>
    <edge id=":2_16" function="internal">
        <lane id=":2_16_0" index="0" speed="13.90" length="5.08" shape="999.97,-200.03 1001.94,-201.21 1004.70,-201.60"/>
    </edge>
    <edge id=":2_17" function="internal">
        <lane id=":2_17_0" index="0" speed="13.90" length="2.34" shape="1000.00,-196.90 1000.80,-196.50 1001.60,-195.30"/>
    </edge>
    <edge id=":2_4" function="internal">
        <lane id=":2_4_0" index="0" speed="13.90" length="5.00" shape="1004.70,-198.40 1003.34,-198.21 1002.38,-197.62 1001.79,-196.66 1001.60,-195.30"/>
    </edge>
    <edge id=":2_5" function="internal">
        <lane id=":2_5_0" index="0" speed="13.90" length="9.40" shape="1004.70,-198.40 995.30,-198.40"/>
    </edge>
    <edge id=":2_6" function="internal">
        <lane id=":2_6_0" index="0" speed="13.90" length="10.16" shape="1004.70,-198.40 1001.94,-198.79 999.98,-199.98 998.79,-201.94 998.40,-204.70"/>
    </edge>
    <edge id=":2_7" function="internal">
        <lane id=":2_7_0" index="0" speed="13.90" length="4.67" shape="1004.70,-198.40 1003.50,-199.20 1003.10,-200.00 1003.50,-200.80 1004.70,-201.60"/>
    </edge>
    <edge id=":2_8" function="internal">
        <lane id=":2_8_0" index="0" speed="13.90" length="5.00" shape="1001.60,-204.70 1001.79,-203.34 1002.38,-202.38 1003.34,-201.79 1004.70,-201.60"/>
    </edge>
    <edge id=":2_9" function="internal">
        <lane id=":2_9_0" index="0" speed="13.90" length="9.40" shape="1001.60,-204.70 1001.60,-195.30"/>
    </edge>
    <edge id=":2_10" function="internal">
        <lane id=":2_10_0" index="0" speed="13.90" length="5.08" shape="1001.60,-204.70 1001.21,-201.94 1000.03,-199.97"/>
    </edge>
    <edge id=":2_11" function="internal">
        <lane id=":2_11_0" index="0" speed="13.90" length="2.34" shape="1001.60,-204.70 1000.80,-203.50 1000.00,-203.10"/>
    </edge>
    <edge id=":2_18" function="internal">
        <lane id=":2_18_0" index="0" speed="13.90" length="5.08" shape="1000.03,-199.97 998.06,-198.79 995.30,-198.40"/>
    </edge>
    <edge id=":2_19" function="internal">
        <lane id=":2_19_0" index="0" speed="13.90" length="2.34" shape="1000.00,-203.10 999.20,-203.50 998.40,-204.70"/>
    </edge>
    <edge id=":2_12" function="internal">
        <lane id=":2_12_0" index="0" speed="13.90" length="5.00" shape="995.30,-201.60 996.66,-201.79 997.62,-202.38 998.21,-203.34 998.40,-204.70"/>
    </edge>
    <edge id=":2_13" function="internal">
        <lane id=":2_13_0" index="0" speed="13.90" length="9.40" shape="995.30,-201.60 1004.70,-201.60"/>
    </edge>
    <edge id=":2_14" function="internal">
        <lane id=":2_14_0" index="0" speed="13.90" length="10.16" shape="995.30,-201.60 998.06,-201.21 1000.02,-200.02 1001.21,-198.06 1001.60,-195.30"/>
    </edge>
    <edge id=":2_15" function="internal">
        <lane id=":2_15_0" index="0" speed="13.90" length="4.67" shape="995.30,-201.60 996.50,-200.80 996.90,-200.00 996.50,-199.20 995.30,-198.40"/>
    </edge>
    <edge id=":20_0" function="internal">
        <lane id=":20_0_0" index="0" speed="13.90" length="5.00" shape="1198.40,-195.30 1198.21,-196.66 1197.62,-197.62 1196.66,-198.21 1195.30,-198.40"/>
    </edge>
    <edge id=":20_1" function="internal">
        <lane id=":20_1_0" index="0" speed="13.90" length="9.40" shape="1198.40,-195.30 1198.40,-204.70"/>
    </edge>
    <edge id=":20_2" function="internal">
        <lane id=":20_2_0" index="0" speed="13.90" length="2.34" shape="1198.40,-195.30 1199.20,-196.50 1200.00,-196.90"/>
    </edge>
    <edge id=":20_9" function="internal">
        <lane id=":20_9_0" index="0" speed="13.90" length="2.34" shape="1200.00,-196.90 1200.80,-196.50 1201.60,-195.30"/>
    </edge>
    <edge id=":20_3" function="internal">
        <lane id=":20_3_0" index="0" speed="13.90" length="9.40" shape="1201.60,-204.70 1201.60,-195.30"/>
    </edge>
    <edge id=":20_4" function="internal">
        <lane id=":20_4_0" index="0" speed="13.90" length="5.08" shape="1201.60,-204.70 1201.21,-201.94 1200.03,-199.97"/>
    </edge>
    <edge id=":20_5" function="internal">
        <lane id=":20_5_0" index="0" speed="13.90" length="2.34" shape="1201.60,-204.70 1200.80,-203.50 1200.00,-203.10"/>
    </edge>
    <edge id=":20_10" function="internal">
        <lane id=":20_10_0" index="0" speed="13.90" length="5.08" shape="1200.03,-199.97 1198.06,-198.79 1195.30,-198.40"/>
    </edge>
    <edge id=":20_11" function="internal">
        <lane id=":20_11_0" index="0" speed="13.90" length="2.34" shape="1200.00,-203.10 1199.20,-203.50 1198.40,-204.70"/>
    </edge>
    <edge id=":20_6" function="internal">
        <lane id=":20_6_0" index="0" speed="13.90" length="5.00" shape="1195.30,-201.60 1196.66,-201.79 1197.62,-202.38 1198.21,-203.34 1198.40,-204.70"/>
    </edge>
    <edge id=":20_7" function="internal">
        <lane id=":20_7_0" index="0" speed="13.90" length="10.16" shape="1195.30,-201.60 1198.06,-201.21 1200.03,-200.02 1201.21,-198.06 1201.60,-195.30"/>
    </edge>
    <edge id=":20_8" function="internal">
        <lane id=":20_8_0" index="0" speed="13.90" length="4.67" shape="1195.30,-201.60 1196.50,-200.80 1196.90,-200.00 1196.50,-199.20 1195.30,-198.40"/>
    </edge>
    <edge id=":22_0" function="internal">
        <lane id=":22_0_0" index="0" speed="13.90" length="7.74" shape="798.40,-196.80 798.70,-198.90 799.60,-200.40 801.10,-201.30 803.20,-201.60"/>
    </edge>
    <edge id=":22_1" function="internal">
        <lane id=":22_1_0" index="0" speed="13.90" length="2.66" shape="798.40,-196.80 799.20,-198.00 800.00,-198.40 800.29,-198.26"/>
    </edge>
    <edge id=":22_4" function="internal">
        <lane id=":22_4_0" index="0" speed="13.90" length="2.01" shape="800.29,-198.26 800.80,-198.00 801.60,-196.80"/>
    </edge>
    <edge id=":22_2" function="internal">
        <lane id=":22_2_0" index="0" speed="13.90" length="2.58" shape="803.20,-198.40 802.50,-198.30 802.00,-198.00 801.70,-197.50 801.60,-196.80"/>
    </edge>
    <edge id=":22_3" function="internal">
        <lane id=":22_3_0" index="0" speed="13.90" length="2.08" shape="803.20,-198.40 802.00,-199.20 801.71,-199.77"/>
    </edge>
    <edge id=":22_5" function="internal">
        <lane id=":22_5_0" index="0" speed="13.90" length="2.59" shape="801.71,-199.77 801.60,-200.00 802.00,-200.80 803.20,-201.60"/>
    </edge>
    <edge id=":25_0" function="internal">
        <lane id=":25_0_0" index="0" speed="13.90" length="9.40" shape="1204.70,201.60 1195.30,201.60"/>
    </edge>
    <edge id=":25_1" function="internal">
        <lane id=":25_1_0" index="0" speed="13.90" length="5.08" shape="1204.70,201.60 1201.94,201.21 1199.97,200.02"/>
    </edge>
    <edge id=":25_2" function="internal">
        <lane id=":25_2_0" index="0" speed="13.90" length="2.34" shape="1204.70,201.60 1203.50,200.80 1203.10,200.00"/>
    </edge>
    <edge id=":25_9" function="internal">
        <lane id=":25_9_0" index="0" speed="13.90" length="5.08" shape="1199.97,200.02 1198.79,198.06 1198.40,195.30"/>
    </edge>
    <edge id=":25_10" function="internal">
        <lane id=":25_10_0" index="0" speed="13.90" length="2.34" shape="1203.10,200.00 1203.50,199.20 1204.70,198.40"/>
    </edge>
    <edge id=":25_3" function="internal">
        <lane id=":25_3_0" index="0" speed="13.90" length="5.00" shape="1201.60,195.30 1201.79,196.66 1202.38,197.62 1203.34,198.21 1204.70,198.40"/>
    </edge>
    <edge id=":25_4" function="internal">
        <lane id=":25_4_0" index="0" speed="13.90" length="10.16" shape="1201.60,195.30 1201.21,198.06 1200.03,200.03 1198.06,201.21 1195.30,201.60"/>
    </edge>
    <edge id=":25_5" function="internal">
        <lane id=":25_5_0" index="0" speed="13.90" length="4.67" shape="1201.60,195.30 1200.80,196.50 1200.00,196.90 1199.20,196.50 1198.40,195.30"/>
    </edge>
    <edge id=":25_6" function="internal">
        <lane id=":25_6_0" index="0" speed="13.90" length="5.00" shape="1195.30,198.40 1196.66,198.21 1197.62,197.62 1198.21,196.66 1198.40,195.30"/>
    </edge>
    <edge id=":25_7" function="internal">
        <lane id=":25_7_0" index="0" speed="13.90" length="9.40" shape="1195.30,198.40 1204.70,198.40"/>
    </edge>
    <edge id=":25_8" function="internal">
        <lane id=":25_8_0" index="0" speed="13.90" length="2.34" shape="1195.30,198.40 1196.50,199.20 1196.90,200.00"/>
    </edge>
    <edge id=":25_11" function="internal">
        <lane id=":25_11_0" index="0" speed="13.90" length="2.34" shape="1196.90,200.00 1196.50,200.80 1195.30,201.60"/>
    </edge>
    <edge id=":267_0" function="internal">
        <lane id=":267_0_0" index="0" speed="13.90" length="5.00" shape="1198.40,-595.30 1198.21,-596.66 1197.62,-597.62 1196.66,-598.21 1195.30,-598.40"/>
    </edge>
    <edge id=":267_1" function="internal">
        <lane id=":267_1_0" index="0" speed="13.90" length="9.40" shape="1198.40,-595.30 1198.40,-604.70"/>
    </edge>
    <edge id=":267_2" function="internal">
        <lane id=":267_2_0" index="0" speed="13.90" length="5.08" shape="1198.40,-595.30 1198.79,-598.06 1199.97,-600.02"/>
    </edge>
    <edge id=":267_3" function="internal">
        <lane id=":267_3_0" index="0" speed="13.90" length="2.34" shape="1198.40,-595.30 1199.20,-596.50 1200.00,-596.90"/>
    </edge>
    <edge id=":267_16" function="internal">
        <lane id=":267_16_0" index="0" speed="13.90" length="5.08" shape="1199.97,-600.02 1201.94,-601.21 1204.70,-601.60"/>
    </edge>
    <edge id=":267_17" function="internal">
        <lane id=":267_17_0" index="0" speed="13.90" length="2.34" shape="1200.00,-596.90 1200.80,-596.50 1201.60,-595.30"/>
    </edge>
    <edge id=":267_4" function="internal">
        <lane id=":267_4_0" index="0" speed="13.90" length="5.00" shape="1204.70,-598.40 1203.34,-598.21 1202.38,-597.62 1201.79,-596.66 1201.60,-595.30"/>
    </edge>
    <edge id=":267_5" function="internal">
        <lane id=":267_5_0" index="0" speed="13.90" length="9.40" shape="1204.70,-598.40 1195.30,-598.40"/>
    </edge>
    <edge id=":267_6" function="internal">
        <lane id=":267_6_0" index="0" speed="13.90" length="10.16" shape="1204.70,-598.40 1201.94,-598.79 1199.97,-599.97 1198.79,-601.94 1198.40,-604.70"/>
    </edge>
    <edge id=":267_7" function="internal">
        <lane id=":267_7_0" index="0" speed="13.90" length="4.67" shape="1204.70,-598.40 1203.50,-599.20 1203.10,-600.00 1203.50,-600.80 1204.70,-601.60"/>
    </edge>
    <edge id=":267_8" function="internal">
        <lane id=":267_8_0" index="0" speed="13.90" length="5.00" shape="1201.60,-604.70 1201.79,-603.34 1202.38,-602.38 1203.34,-601.79 1204.70,-601.60"/>
    </edge>
    <edge id=":267_9" function="internal">
        <lane id=":267_9_0" index="0" speed="13.90" length="9.40" shape="1201.60,-604.70 1201.60,-595.30"/>
    </edge>
    <edge id=":267_10" function="internal">
        <lane id=":267_10_0" index="0" speed="13.90" length="5.08" shape="1201.60,-604.70 1201.21,-601.94 1200.03,-599.98"/>
    </edge>
    <edge id=":267_11" function="internal">
        <lane id=":267_11_0" index="0" speed="13.90" length="2.34" shape="1201.60,-604.70 1200.80,-603.50 1200.00,-603.10"/>
    </edge>
    <edge id=":267_18" function="internal">
        <lane id=":267_18_0" index="0" speed="13.90" length="5.08" shape="1200.03,-599.98 1198.06,-598.79 1195.30,-598.40"/>
    </edge>
    <edge id=":267_19" function="internal">
        <lane id=":267_19_0" index="0" speed="13.90" length="2.34" shape="1200.00,-603.10 1199.20,-603.50 1198.40,-604.70"/>
    </edge>
    <edge id=":267_12" function="internal">
        <lane id=":267_12_0" index="0" speed="13.90" length="5.00" shape="1195.30,-601.60 1196.66,-601.79 1197.62,-602.38 1198.21,-603.34 1198.40,-604.70"/>
    </edge>
    <edge id=":267_13" function="internal">
        <lane id=":267_13_0" index="0" speed="13.90" length="9.40" shape="1195.30,-601.60 1204.70,-601.60"/>
    </edge>
    <edge id=":267_14" function="internal">
        <lane id=":267_14_0" index="0" speed="13.90" length="10.16" shape="1195.30,-601.60 1198.06,-601.21 1200.03,-600.03 1201.21,-598.06 1201.60,-595.30"/>
    </edge>
    <edge id=":267_15" function="internal">
        <lane id=":267_15_0" index="0" speed="13.90" length="4.67" shape="1195.30,-601.60 1196.50,-600.80 1196.90,-600.00 1196.50,-599.20 1195.30,-598.40"/>
    </edge>
    <edge id=":28_0" function="internal">
        <lane id=":28_0_0" index="0" speed="13.90" length="9.40" shape="804.70,201.60 795.30,201.60"/>
    </edge>
    <edge id=":28_1" function="internal">
        <lane id=":28_1_0" index="0" speed="13.90" length="5.08" shape="804.70,201.60 801.94,201.21 799.98,200.02"/>
    </edge>
    <edge id=":28_2" function="internal">
        <lane id=":28_2_0" index="0" speed="13.90" length="2.34" shape="804.70,201.60 803.50,200.80 803.10,200.00"/>
    </edge>
    <edge id=":28_9" function="internal">
        <lane id=":28_9_0" index="0" speed="13.90" length="5.08" shape="799.98,200.02 798.79,198.06 798.40,195.30"/>
    </edge>
    <edge id=":28_10" function="internal">
        <lane id=":28_10_0" index="0" speed="13.90" length="2.34" shape="803.10,200.00 803.50,199.20 804.70,198.40"/>
    </edge>
    <edge id=":28_3" function="internal">
        <lane id=":28_3_0" index="0" speed="13.90" length="5.00" shape="801.60,195.30 801.79,196.66 802.38,197.62 803.34,198.21 804.70,198.40"/>
    </edge>
    <edge id=":28_4" function="internal">
        <lane id=":28_4_0" index="0" speed="13.90" length="10.16" shape="801.60,195.30 801.21,198.06 800.03,200.03 798.06,201.21 795.30,201.60"/>
    </edge>
    <edge id=":28_5" function="internal">
        <lane id=":28_5_0" index="0" speed="13.90" length="4.67" shape="801.60,195.30 800.80,196.50 800.00,196.90 799.20,196.50 798.40,195.30"/>
    </edge>
    <edge id=":28_6" function="internal">
        <lane id=":28_6_0" index="0" speed="13.90" length="5.00" shape="795.30,198.40 796.66,198.21 797.62,197.62 798.21,196.66 798.40,195.30"/>
    </edge>
    <edge id=":28_7" function="internal">
        <lane id=":28_7_0" index="0" speed="13.90" length="9.40" shape="795.30,198.40 804.70,198.40"/>
    </edge>
    <edge id=":28_8" function="internal">
        <lane id=":28_8_0" index="0" speed="13.90" length="2.34" shape="795.30,198.40 796.50,199.20 796.90,200.00"/>
    </edge>
    <edge id=":28_11" function="internal">