<?xml version="1.0" encoding="UTF-8"?>

<!-- generated on Thu Jun 13 08:48:59 2019 by Eclipse SUMO Version v1_2_0+0252-83989c2
This data file and the accompanying materials
are made available under the terms of the Eclipse Public License v2.0
which accompanies this distribution, and is available at
http://www.eclipse.org/legal/epl-v20.html
SPDX-License-Identifier: EPL-2.0
<configuration xmlns:xsi="http://www.w3.org/2001/XMLSchema-instance" xsi:noNamespaceSchemaLocation="http://sumo.dlr.de/xsd/sumoConfiguration.xsd">

    <input>
        <net-file value="net.net.xml"/>
        <route-files value="input_routes.rou.xml"/>
    </input>

    <output>
        <write-license value="true"/>
        <lanechange-output value="lanechanges.xml"/>
    </output>

    <processing>
        <default.speeddev value="0"/>
    </processing>

    <report>
        <xml-validation value="never"/>
        <no-step-log value="true"/>
    </report>

</configuration>
-->

<lanechanges>
    <change id="overtaking" type="DEFAULT_VEHTYPE" time="130.00" from="VODUGES_beg_0" to="-VODUGES_beg_0" dir="1" speed="0.20" pos="857.48" reason="speedGain" leaderGap="None" leaderSecureGap="None" leaderSpeed="None" followerGap="None" followerSecureGap="None" followerSpeed="None" origLeaderGap="2.50" origLeaderSecureGap="0.20" origLeaderSpeed="0.00"/>
    <change id="overtaking" type="DEFAULT_VEHTYPE" time="148.00" from="-VODUGES_beg_0" to="VODUGES_beg_0" dir="-1" speed="13.89" pos="921.95" reason="keepRight" leaderGap="39.29" leaderSecureGap="13.89" leaderSpeed="13.89" followerGap="34.05" followerSecureGap="10.83" followerSpeed="13.00" origLeaderGap="None" origLeaderSecureGap="None" origLeaderSpeed="None"/>
</lanechanges>
