<?xml version="1.0" encoding="UTF-8"?>

<!-- generated on Mi 04 Jul 2018 09:37:10 CEST by Eclipse SUMO netedit Version 5a07d8f
<configuration xmlns:xsi="http://www.w3.org/2001/XMLSchema-instance" xsi:noNamespaceSchemaLocation="https://sumo.dlr.de/xsd/netconvertConfiguration.xsd">

    <input>
        <sumo-net-file value="/home/kobo/dlr/debug/4300/b.net.xml"/>
    </input>

    <output>
        <output-file value="/home/kobo/dlr/debug/4300/b.net.xml"/>
    </output>

    <processing>
        <no-turnarounds value="true"/>
        <offset.disable-normalization value="true"/>
        <lefthand value="false"/>
        <junctions.corner-detail value="5"/>
        <rectangular-lane-cut value="false"/>
        <walkingareas value="false"/>
    </processing>

</configuration>
-->

<net version="0.27" junctionCornerDetail="5" xmlns:xsi="http://www.w3.org/2001/XMLSchema-instance" xsi:noNamespaceSchemaLocation="https://sumo.dlr.de/xsd/net_file.xsd">

    <location netOffset="0.00,0.00" convBoundary="0.00,0.00,50.00,0.00" origBoundary="-10000000000.00,-10000000000.00,10000000000.00,10000000000.00" projParameter="!"/>

    <edge id=":C_0" function="internal">
        <lane id=":C_0_0" index="0" speed="13.89" length="0.10" shape="22.41,-1.60 22.41,-1.60"/>
    </edge>

    <edge id="CE" from="C" to="E" priority="-1">
        <lane id="CE_0" index="0" speed="13.89" length="27.59" shape="22.41,-1.60 50.00,-1.60"/>
    </edge>
    <edge id="WC" from="W" to="C" priority="-1">
        <lane id="WC_0" index="0" speed="13.89" length="22.41" shape="0.00,-1.60 22.41,-1.60"/>
    </edge>

    <junction id="C" type="priority" x="22.41" y="0.00" incLanes="WC_0" intLanes=":C_0_0" shape="22.41,0.00 22.41,-3.20 22.41,0.00">
        <request index="0" response="0" foes="0" cont="0"/>
    </junction>
    <junction id="E" type="dead_end" x="50.00" y="0.00" incLanes="CE_0" intLanes="" shape="50.00,-3.20 50.00,0.00"/>
    <junction id="W" type="dead_end" x="0.00" y="0.00" incLanes="" intLanes="" shape="0.00,0.00 0.00,-3.20"/>

    <connection from="WC" to="CE" fromLane="0" toLane="0" via=":C_0_0" dir="s" state="M"/>

    <connection from=":C_0" to="CE" fromLane="0" toLane="0" dir="s" state="M"/>

</net>
