<?xml version="1.0" encoding="UTF-8"?>

<!-- generated on Wed Aug 21 10:25:46 2019 by Eclipse SUMO Version v1_3_0+0010-bf1bf00cae
This data file and the accompanying materials
are made available under the terms of the Eclipse Public License v2.0
which accompanies this distribution, and is available at
http://www.eclipse.org/legal/epl-v20.html
SPDX-License-Identifier: EPL-2.0
<configuration xmlns:xsi="http://www.w3.org/2001/XMLSchema-instance" xsi:noNamespaceSchemaLocation="http://sumo.dlr.de/xsd/sumoConfiguration.xsd">

    <input>
        <net-file value="net.net.xml"/>
        <route-files value="input_routes.rou.xml"/>
        <additional-files value="input_additional.add.xml"/>
    </input>

    <output>
        <write-license value="true"/>
        <tripinfo-output value="tripinfos.xml"/>
        <stop-output value="stopinfos.xml"/>
    </output>

    <processing>
        <default.speeddev value="0"/>
        <pedestrian.model value="nonInteracting"/>
    </processing>

    <report>
        <verbose value="true"/>
        <xml-validation value="never"/>
        <no-step-log value="true"/>
    </report>

    <mesoscopic>
        <mesosim value="true"/>
    </mesoscopic>

</configuration>
-->

<stops xmlns:xsi="http://www.w3.org/2001/XMLSchema-instance" xsi:noNamespaceSchemaLocation="http://sumo.dlr.de/xsd/stopinfo_file.xsd">
    <stopinfo id="train0" type="DEFAULT_VEHTYPE" edge="1/3to0/3" pos="0.00" parking="0" started="127.00" ended="127.00" delay="7.00" initialPersons="0" loadedPersons="4" unloadedPersons="0" initialContainers="0" loadedContainers="0" unloadedContainers="0" busStop="busStop0"/>
    <stopinfo id="train0" type="DEFAULT_VEHTYPE" edge="0/4to1/4" pos="0.00" parking="0" started="187.00" ended="187.00" delay="7.00" initialPersons="0" loadedPersons="0" unloadedPersons="0" initialContainers="0" loadedContainers="0" unloadedContainers="0" busStop="busStop1"/>
</stops>
