<?xml version="1.0" encoding="UTF-8"?>

<!-- generated on Mon 22 Feb 2016 08:51:24 AM CET by Netedit Version dev-SVN-r20035
<?xml version="1.0" encoding="UTF-8"?>

<configuration xmlns:xsi="http://www.w3.org/2001/XMLSchema-instance" xsi:noNamespaceSchemaLocation="http://sumo.dlr.de/xsd/netedit.exeConfiguration.xsd">

    <input>
        <sumo-net-file value="net.net.xml"/>
    </input>

    <output>
        <output-file value="net.net.xml"/>
    </output>

    <processing>
        <no-turnarounds value="true"/>
        <offset.disable-normalization value="true"/>
        <lefthand value="false"/>
        <junctions.corner-detail value="0"/>
    </processing>

</configuration>
-->

<net version="0.25" xmlns:xsi="http://www.w3.org/2001/XMLSchema-instance" xsi:noNamespaceSchemaLocation="http://sumo.dlr.de/xsd/net_file.xsd">

    <location netOffset="0.00,0.00" convBoundary="0.00,0.00,400.00,0.00" origBoundary="-10000000000.00,-10000000000.00,10000000000.00,10000000000.00" projParameter="!"/>

    <edge id=":gneJ1_0" function="internal">
        <lane id=":gneJ1_0_0" index="0" speed="13.89" length="3.42" shape="198.50,-3.30 201.50,-1.65"/>
        <lane id=":gneJ1_0_1" index="1" speed="13.89" length="3.42" shape="198.50,0.00 201.50,-1.65"/>
        <lane id=":gneJ1_0_2" index="2" speed="13.89" length="3.42" shape="198.50,3.30 201.50,1.65"/>
    </edge>

    <edge id="beg" from="gneJ0" to="gneJ1" priority="1" spreadType="center">
        <lane id="beg_0" index="0" speed="13.89" length="198.50" shape="0.00,-3.30 198.50,-3.30"/>
        <lane id="beg_1" index="1" speed="13.89" length="198.50" shape="0.00,0.00 198.50,0.00"/>
        <lane id="beg_2" index="2" speed="13.89" length="198.50" shape="0.00,3.30 198.50,3.30"/>
    </edge>
    <edge id="end" from="gneJ1" to="gneJ2" priority="1" spreadType="center">
        <lane id="end_0" index="0" speed="13.89" length="198.50" shape="201.50,-1.65 400.00,-1.65"/>
        <lane id="end_1" index="1" speed="13.89" length="198.50" shape="201.50,1.65 400.00,1.65"/>
    </edge>

    <junction id="gneJ0" type="unregulated" x="0.00" y="0.00" incLanes="" intLanes="" shape="0.00,4.90 0.00,-4.90"/>
    <junction id="gneJ1" type="zipper" x="200.00" y="0.00" incLanes="beg_0 beg_1 beg_2" intLanes=":gneJ1_0_0 :gneJ1_0_1 :gneJ1_0_2" shape="201.50,3.25 201.50,-3.25 198.50,-4.90 198.50,4.90">
        <request index="0" response="010" foes="010" cont="0"/>
        <request index="1" response="001" foes="001" cont="0"/>
        <request index="2" response="000" foes="000" cont="0"/>
    </junction>
    <junction id="gneJ2" type="unregulated" x="400.00" y="0.00" incLanes="end_0 end_1" intLanes="" shape="400.00,-3.25 400.00,3.25"/>

    <connection from="beg" to="end" fromLane="0" toLane="0" via=":gneJ1_0_0" dir="s" state="Z"/>
    <connection from="beg" to="end" fromLane="1" toLane="0" via=":gneJ1_0_1" dir="s" state="Z"/>
    <connection from="beg" to="end" fromLane="2" toLane="1" via=":gneJ1_0_2" dir="s" state="M"/>

    <connection from=":gneJ1_0" to="end" fromLane="0" toLane="0" dir="s" state="M"/>
    <connection from=":gneJ1_0" to="end" fromLane="1" toLane="0" dir="s" state="M"/>
    <connection from=":gneJ1_0" to="end" fromLane="2" toLane="1" dir="s" state="M"/>

</net>
