<?xml version="1.0" encoding="UTF-8"?>

<!-- generated on 2023-02-07 15:09:51 by Eclipse SUMO netedit Version v1_16_0+0024-1134bf4b789
-->

<additional xmlns:xsi="http://www.w3.org/2001/XMLSchema-instance" xsi:noNamespaceSchemaLocation="http://sumo.dlr.de/xsd/additional_file.xsd">
    <!-- StoppingPlaces -->
    <parkingArea id="pa_0" lane="center1_1" startPos="23.00" endPos="33.00">
        <space x="-14.00" y="-12.00"/>
        <space x="-10.00" y="-12.00" angle="-4"/>
        <space x="-6.00" y="-12.00" angle="500"/>
        <space x="-2.00" y="-12.00" angle="120"/>
    </parkingArea>
</additional>
