<?xml version="1.0" encoding="UTF-8"?>

<!-- generated on 2022-02-09 10:20:02 by Eclipse SUMO netedit Version v1_12_0+0390-6ccad2aacb0
<configuration xmlns:xsi="http://www.w3.org/2001/XMLSchema-instance" xsi:noNamespaceSchemaLocation="http://sumo.dlr.de/xsd/netconvertConfiguration.xsd">

    <input>
        <sumo-net-file value="C:\Users\SUMO-Test\.texttest\tmp\netedit.gui.2_from_09Feb100422.6544\netedit.gui\additionalElements\parkingspace\create\angle\input_net.net.xml"/>
    </input>

    <output>
        <output-file value="C:\Users\SUMO-Test\.texttest\tmp\netedit.gui.2_from_09Feb100422.6544\netedit.gui\additionalElements\parkingspace\create\angle\net.net.xml"/>
    </output>

    <processing>
        <geometry.min-radius.fix.railways value="false"/>
        <geometry.max-grade.fix value="false"/>
        <offset.disable-normalization value="true"/>
        <lefthand value="false"/>
    </processing>

    <junctions>
        <no-turnarounds value="true"/>
        <junctions.corner-detail value="5"/>
        <junctions.limit-turn-speed value="5.5"/>
        <rectangular-lane-cut value="false"/>
    </junctions>

    <pedestrian>
        <walkingareas value="false"/>
    </pedestrian>

    <netedit>
        <additional-files value="C:\Users\SUMO-Test\.texttest\tmp\netedit.gui.2_from_09Feb100422.6544\netedit.gui\additionalElements\parkingspace\create\angle\additionals.xml"/>
        <additionals-output value="C:\Users\SUMO-Test\.texttest\tmp\netedit.gui.2_from_09Feb100422.6544\netedit.gui\additionalElements\parkingspace\create\angle\additionals.xml"/>
        <route-files value="C:\Users\SUMO-Test\.texttest\tmp\netedit.gui.2_from_09Feb100422.6544\netedit.gui\additionalElements\parkingspace\create\angle\routes.xml"/>
        <demandelements-output value="C:\Users\SUMO-Test\.texttest\tmp\netedit.gui.2_from_09Feb100422.6544\netedit.gui\additionalElements\parkingspace\create\angle\routes.xml"/>
        <data-files value="C:\Users\SUMO-Test\.texttest\tmp\netedit.gui.2_from_09Feb100422.6544\netedit.gui\additionalElements\parkingspace\create\angle\datas.xml"/>
        <dataelements-output value="C:\Users\SUMO-Test\.texttest\tmp\netedit.gui.2_from_09Feb100422.6544\netedit.gui\additionalElements\parkingspace\create\angle\datas.xml"/>
    </netedit>

    <visualisation>
        <gui-settings-file value="C:\Users\SUMO-Test\.texttest\tmp\netedit.gui.2_from_09Feb100422.6544\netedit.gui\additionalElements\parkingspace\create\angle\gui-settings.xml"/>
        <window-size value="936,697"/>
        <window-pos value="50,50"/>
        <gui-testing value="true"/>
        <gui-testing-debug value="true"/>
        <gui-testing.setting-output value="C:\Users\SUMO-Test\.texttest\tmp\netedit.gui.2_from_09Feb100422.6544\netedit.gui\additionalElements\parkingspace\create\angle\guisettingsoutput.xml"/>
    </visualisation>

    <report>
        <no-warnings value="true"/>
        <aggregate-warnings value="5"/>
        <error-log value="C:\Users\SUMO-Test\.texttest\tmp\netedit.gui.2_from_09Feb100422.6544\netedit.gui\additionalElements\parkingspace\create\angle\log.txt"/>
    </report>

</configuration>
-->

<additional xmlns:xsi="http://www.w3.org/2001/XMLSchema-instance" xsi:noNamespaceSchemaLocation="http://sumo.dlr.de/xsd/additional_file.xsd">
    <parkingArea id="pa_0" lane="gneE0_0" startPos="15.00" endPos="25.00">
        <space x="20.00" y="15.00"/>
        <space x="20.00" y="15.00" angle="-4"/>
        <space x="25.00" y="15.00" angle="500"/>
        <space x="25.00" y="15.00" angle="120"/>
    </parkingArea>
</additional>
