<?xml version="1.0" encoding="UTF-8"?>

<!-- generated on 2022-03-04 10:18:06 by Eclipse SUMO netedit Version v1_12_0+1137-e9106068858
-->

<additional xmlns:xsi="http://www.w3.org/2001/XMLSchema-instance" xsi:noNamespaceSchemaLocation="http://sumo.dlr.de/xsd/additional_file.xsd">
    <!-- StoppingPlaces -->
    <parkingArea id="parkingAreaLoaded_A" lane="gneE0_0" startPos="33.00" endPos="43.00" length="5.00">
        <space x="28.00" y="-12.00"/>
    </parkingArea>
</additional>
