<?xml version="1.0" encoding="UTF-8"?>

<!-- generated on 2022-07-07 11:17:59.139972 by generateMeanDataDefinitions.py v1_13_0+1343-240e5d48340
  options: <doubleminus>detector-file e3.add.xml <doubleminus>detector-type e3 <doubleminus>output edge-mean-data.add.xml
-->

<additional xmlns:xsi="http://www.w3.org/2001/XMLSchema-instance" xsi:noNamespaceSchemaLocation="http://sumo.dlr.de/xsd/additional_file.xsd">
    <edgeData id="e3_0_1i" freq="" file="e3_0_1i-results-aggregated.xml"/>
    <edgeData id="e3_0_2i" freq="" file="e3_0_2i-results-aggregated.xml"/>
    <edgeData id="e3_0_3i" freq="" file="e3_0_3i-results-aggregated.xml"/>
    <edgeData id="e3_0_4i" freq="" file="e3_0_4i-results-aggregated.xml"/>
</additional>
