<?xml version="1.0" encoding="UTF-8"?>

<!-- generated on 2026-04-11T09:45:13.501492+01:00 by Eclipse SUMO sumo v1_26_0+1086-e263e9e50f5
<sumoConfiguration xmlns:xsi="http://www.w3.org/2001/XMLSchema-instance" xsi:noNamespaceSchemaLocation="http://sumo.dlr.de/xsd/sumoConfiguration.xsd">

    <input>
        <net-file value="input_net.net.xml"/>
        <route-files value="vr.xml"/>
    </input>

    <output>
        <statistic-output value="statistics2.xml"/>
    </output>

    <processing>
        <default.departspeed value="0"/>
        <default.departlane value="first"/>
    </processing>

    <routing>
        <replay-rerouting value="true"/>
    </routing>

    <report>
        <duration-log.statistics value="true"/>
        <no-step-log value="true"/>
    </report>

</sumoConfiguration>
-->

<statistics xmlns:xsi="http://www.w3.org/2001/XMLSchema-instance" xsi:noNamespaceSchemaLocation="http://sumo.dlr.de/xsd/statistic_file.xsd">
    <performance clockBegin="1775893513.51" clockEnd="1775893515.07" clockDuration="1.56" traciDuration="0.00" realTimeFactor="846.99" vehicleUpdatesPerSecond="170532.01" personUpdatesPerSecond="0.00" begin="0.00" end="1323.00" duration="1323.00"/>
    <vehicles loaded="2000" inserted="2000" running="0" waiting="0"/>
    <teleports total="0" jam="0" yield="0" wrongLane="0"/>
    <safety collisions="0" emergencyStops="0" emergencyBraking="0"/>
    <persons loaded="0" running="0" jammed="0"/>
    <personTeleports total="0" abortWait="0" wrongDest="0"/>
    <vehicleTripStatistics count="2000" routeLength="465.71" speed="4.34" duration="133.19" waitingTime="64.17" timeLoss="96.81" departDelay="0.00" departDelayWaiting="-1.00" totalTravelTime="266371.00" totalDepartDelay="0.00"/>
    <pedestrianStatistics number="0" routeLength="0.00" duration="0.00" timeLoss="0.00"/>
    <rideStatistics number="0"/>
    <transportStatistics number="0"/>
</statistics>
