<?xml version="1.0" encoding="UTF-8"?>

<!-- generated on 2026-05-27T12:24:18.849643+01:00 by Eclipse SUMO sumo v1_27_0+0030-8b5074709ef
<sumoConfiguration xmlns:xsi="http://www.w3.org/2001/XMLSchema-instance" xsi:noNamespaceSchemaLocation="http://sumo.dlr.de/xsd/sumoConfiguration.xsd">

    <input>
        <net-file value="input_net.net.xml"/>
        <route-files value="vr.xml"/>
    </input>

    <output>
        <statistic-output value="statistics2.xml"/>
    </output>

    <processing>
        <default.departspeed value="0"/>
        <default.departlane value="first"/>
    </processing>

    <routing>
        <replay-rerouting value="true"/>
    </routing>

    <report>
        <duration-log.statistics value="true"/>
        <no-step-log value="true"/>
    </report>

</sumoConfiguration>
-->

<statistics xmlns:xsi="http://www.w3.org/2001/XMLSchema-instance" xsi:noNamespaceSchemaLocation="http://sumo.dlr.de/xsd/statistic_file.xsd">
    <performance clockBegin="1779877458.87" clockEnd="1779877467.16" clockDuration="8.29" traciDuration="0.00" realTimeFactor="165.90" vehicleUpdatesPerSecond="36025.10" personUpdatesPerSecond="0.00" begin="0.00" end="1375.00" duration="1375.00"/>
    <vehicles loaded="2000" inserted="2000" running="0" waiting="0"/>
    <teleports total="2" jam="0" yield="2" wrongLane="0"/>
    <safety collisions="0" emergencyStops="0" emergencyBraking="0"/>
    <persons loaded="0" running="0" jammed="0"/>
    <personTeleports total="0" abortWait="0" wrongDest="0"/>
    <vehicleTripStatistics count="2000" routeLength="470.90" speed="4.17" duration="149.29" waitingTime="78.56" timeLoss="112.44" departDelay="0.00" departDelayWaiting="-1.00" totalTravelTime="298576.00" totalDepartDelay="0.00"/>
    <pedestrianStatistics number="0" routeLength="0.00" duration="0.00" timeLoss="0.00"/>
    <rideStatistics number="0"/>
    <transportStatistics number="0"/>
</statistics>
