<?xml version="1.0" encoding="UTF-8"?>

<!-- generated on 2023-06-20 08:04:36 by Eclipse SUMO sumo Version v1_17_0+1033-3845634
<configuration xmlns:xsi="http://www.w3.org/2001/XMLSchema-instance" xsi:noNamespaceSchemaLocation="http://sumo.dlr.de/xsd/sumoConfiguration.xsd">

    <input>
        <net-file value="input_net.net.xml"/>
        <route-files value="vr.xml"/>
    </input>

    <output>
        <statistic-output value="statistics2.xml"/>
    </output>

    <routing>
        <replay-rerouting value="true"/>
    </routing>

    <report>
        <duration-log.statistics value="true"/>
        <no-step-log value="true"/>
    </report>

</configuration>
-->

<statistics xmlns:xsi="http://www.w3.org/2001/XMLSchema-instance" xsi:noNamespaceSchemaLocation="http://sumo.dlr.de/xsd/statistic_file.xsd">
    <performance clockBegin="1687241076.99" clockEnd="1687241078.45" clockDuration="1.45" traciDuration="1.06" realTimeFactor="914.60" vehicleUpdatesPerSecond="188065.43" personUpdatesPerSecond="0.00" begin="0.00" end="1328.00" duration="1328.00"/>
    <vehicles loaded="2000" inserted="2000" running="0" waiting="0"/>
    <teleports total="0" jam="0" yield="0" wrongLane="0"/>
    <safety collisions="0" emergencyStops="0" emergencyBraking="0"/>
    <persons loaded="0" running="0" jammed="0"/>
    <personTeleports total="0" abortWait="0" wrongDest="0"/>
    <vehicleTripStatistics count="2000" routeLength="464.29" speed="4.23" duration="136.53" waitingTime="67.30" timeLoss="100.24" departDelay="0.00" departDelayWaiting="-1.00" totalTravelTime="273071.00" totalDepartDelay="0.00"/>
    <pedestrianStatistics number="0" routeLength="0.00" duration="0.00" timeLoss="0.00"/>
    <rideStatistics number="0"/>
    <transportStatistics number="0"/>
</statistics>
