<?xml version="1.0" encoding="UTF-8"?>

<!-- generated on Mon Feb 17 15:31:11 2020 by Eclipse SUMO netconvert Version v1_5_0+0130-ceb0a01
This data file and the accompanying materials
are made available under the terms of the Eclipse Public License v2.0
which accompanies this distribution, and is available at
http://www.eclipse.org/legal/epl-v20.html
SPDX-License-Identifier: EPL-2.0
<configuration xmlns:xsi="http://www.w3.org/2001/XMLSchema-instance" xsi:noNamespaceSchemaLocation="http://sumo.dlr.de/xsd/netconvertConfiguration.xsd">

    <input>
        <node-files value="input_nodes.nod.xml"/>
        <edge-files value="input_edges.edg.xml"/>
    </input>

    <output>
        <write-license value="true"/>
    </output>

    <junctions>
        <no-internal-links value="true"/>
    </junctions>

    <report>
        <verbose value="true"/>
        <xml-validation value="never"/>
        <aggregate-warnings value="5"/>
    </report>

</configuration>
-->

<net version="1.6" junctionCornerDetail="5" limitTurnSpeed="5.50" xmlns:xsi="http://www.w3.org/2001/XMLSchema-instance" xsi:noNamespaceSchemaLocation="http://sumo.dlr.de/xsd/net_file.xsd">

    <location netOffset="-500.00,0.00" convBoundary="0.00,0.00,500.00,0.00" origBoundary="500.00,0.00,1000.00,0.00" projParameter="!"/>

    <edge id="1" from="1" to="2" priority="-1" length="500.00">
        <lane id="1_0" index="0" speed="30.00" length="500.00" shape="500.00,8.00 0.00,8.00"/>
        <lane id="1_1" index="1" speed="30.00" length="500.00" shape="500.00,4.80 0.00,4.80"/>
        <lane id="1_2" index="2" speed="30.00" length="500.00" shape="500.00,1.60 0.00,1.60"/>
    </edge>

    <junction id="1" type="dead_end" x="500.00" y="0.00" incLanes="" intLanes="" shape="500.00,0.00 500.00,9.60"/>
    <junction id="2" type="dead_end" x="0.00" y="0.00" incLanes="1_0 1_1 1_2" intLanes="" shape="0.00,9.60 0.00,0.00"/>

</net>
