<?xml version="1.0" encoding="UTF-8"?>

<!-- generated on Fri Oct 25 08:20:25 2013 by SUMO netconvert Version dev-SVN-r14913
<?xml version="1.0" encoding="UTF-8"?>

<configuration xmlns:xsi="http://www.w3.org/2001/XMLSchema-instance" xsi:noNamespaceSchemaLocation="http://sumo.dlr.de/xsd/netconvertConfiguration.xsd">

    <input>
        <node-files value="input_nodes.nod.xml"/>
        <edge-files value="input_edges.edg.xml"/>
    </input>

    <output>
        <output-file value="net.net.xml"/>
        <plain-output-prefix value="plain"/>
    </output>

</configuration>
-->

<net version="0.13" xmlns:xsi="http://www.w3.org/2001/XMLSchema-instance" xsi:noNamespaceSchemaLocation="http://sumo.dlr.de/xsd/net_file.xsd">

    <location netOffset="0.00,0.00" convBoundary="0.00,0.00,200.00,0.00" origBoundary="0.00,0.00,200.00,0.00" projParameter="!"/>

    <edge id=":1_0" function="internal">
        <lane id=":1_0_0" index="0" speed="13.45" length="0.10" shape="100.00,-8.25 100.00,-8.25"/>
        <lane id=":1_0_1" index="1" speed="13.45" length="0.10" shape="100.00,-4.95 100.00,-4.95"/>
        <lane id=":1_0_2" index="2" speed="13.45" length="0.10" shape="100.00,-1.65 100.00,-1.65"/>
    </edge>

    <edge id="1" from="0" to="1" priority="-1">
        <lane id="1_0" index="0" speed="13.00" length="100.00" shape="0.00,-8.25 100.00,-8.25"/>
        <lane id="1_1" index="1" speed="25.00" length="100.00" shape="0.00,-4.95 100.00,-4.95"/>
        <lane id="1_2" index="2" speed="60.00" length="100.00" shape="0.00,-1.65 100.00,-1.65"/>
    </edge>
    <edge id="2" from="1" to="2" priority="-1">
        <lane id="2_0" index="0" speed="25.00" length="100.00" shape="100.00,-8.25 200.00,-8.25"/>
        <lane id="2_1" index="1" speed="25.00" length="100.00" shape="100.00,-4.95 200.00,-4.95"/>
        <lane id="2_2" index="2" speed="13.90" length="100.00" shape="100.00,-1.65 200.00,-1.65"/>
    </edge>

    <junction id="0" type="unregulated" x="0.00" y="0.00" incLanes="" intLanes="" shape="-0.00,-0.05 -0.00,-9.85"/>
    <junction id="1" type="priority" x="100.00" y="0.00" incLanes="1_0 1_1 1_2" intLanes=":1_0_0 :1_0_1 :1_0_2" shape="100.00,-0.05 100.00,-9.85 100.00,-0.05">
        <request index="0" response="000" foes="000" cont="0"/>
        <request index="1" response="000" foes="000" cont="0"/>
        <request index="2" response="000" foes="000" cont="0"/>
    </junction>
    <junction id="2" type="unregulated" x="200.00" y="0.00" incLanes="2_0 2_1 2_2" intLanes="" shape="200.00,-9.85 200.00,-0.05"/>

    <connection from="1" to="2" fromLane="0" toLane="0" via=":1_0_0" dir="s" state="M"/>
    <connection from="1" to="2" fromLane="1" toLane="1" via=":1_0_1" dir="s" state="M"/>
    <connection from="1" to="2" fromLane="2" toLane="2" via=":1_0_2" dir="s" state="M"/>

    <connection from=":1_0" to="2" fromLane="0" toLane="0" dir="s" state="M"/>
    <connection from=":1_0" to="2" fromLane="1" toLane="1" dir="s" state="M"/>
    <connection from=":1_0" to="2" fromLane="2" toLane="2" dir="s" state="M"/>

</net>
