<?xml version="1.0" encoding="UTF-8"?>

<!-- generated on Mon Jan 14 13:03:47 2013 by SUMO netconvert Version dev-SVN-r13174
<?xml version="1.0" encoding="UTF-8"?>

<configuration xmlns:xsi="http://www.w3.org/2001/XMLSchema-instance" xsi:noNamespaceSchemaLocation="http://sumo.dlr.de/xsd/netconvertConfiguration.xsd">

    <input>
        <node-files value="input_nodes.nod.xml"/>
        <edge-files value="input_edges.edg.xml"/>
    </input>

    <output>
        <output-file value="net.net.xml"/>
        <plain-output-prefix value="plain"/>
    </output>

</configuration>
-->

<edges version="0.13" xmlns:xsi="http://www.w3.org/2001/XMLSchema-instance" xsi:noNamespaceSchemaLocation="http://sumo.dlr.de/xsd/edges_file.xsd">
    <edge id="1" from="0" to="1" priority="-1" numLanes="3">
        <lane index="0" speed="13.00"/>
        <lane index="1" speed="25.00"/>
        <lane index="2" speed="60.00"/>
    </edge>
    <edge id="2" from="1" to="2" priority="-1" numLanes="3">
        <lane index="0" speed="25.00"/>
        <lane index="1" speed="25.00"/>
        <lane index="2" speed="13.90"/>
    </edge>
</edges>
