<?xml version="1.0" encoding="UTF-8"?>
<!-- generated on 2021-12-01 12:12:32.315357 by $Id: ptlines2flows.py v1_3_1+0313-ccb31df3eb jakob.erdmann@dlr.de 2019-09-02 13:26:32 +0200 $ v1_11_0+0221-bbdd205
  options: -n net.net.xml -s input_additional.add.xml -l ptlines.xml -o out.flows.xml -p 600 <doubleminus>use-osm-routes
-->
<routes xmlns:xsi="http://www.w3.org/2001/XMLSchema-instance" xsi:noNamespaceSchemaLocation="http://sumo.dlr.de/xsd/routes_file.xsd">
    <vType id="bus" vClass="bus" speedFactor="0.95"/>
    <vType id="tram" vClass="tram" speedFactor="1.0"/>
    <vType id="train" vClass="rail"/>
    <vType id="subway" vClass="rail_urban"/>
    <vType id="light_rail" vClass="rail_urban"/>
    <vType id="monorail" vClass="rail"/>
    <vType id="trolleybus" vClass="bus" speedFactor="0.95"/>
    <vType id="minibus" vClass="bus" speedFactor="0.95"/>
    <vType id="share_taxi" vClass="taxi" speedFactor="0.95"/>
    <vType id="aerialway" vClass="bus"/>
    <vType id="ferry" vClass="ship"/>
    <trip id="0_bus_104:0" type="bus" depart="0" departLane="best" from="110450334#1" to="391493954#3" via="110450334#2 338412122 391493949 391493947 391493950#0 391493950#1 391493952#0 391493952#1 391493952#2 391493954#0 391493954#1 391493954#2">
        <stop busStop="3959807221" duration="30"/>
        <stop busStop="3959807200" duration="30"/>
    </trip>
    <trip id="1_bus_104:1" type="bus" depart="0" departLane="best" from="-391493954#3" to="-110450334#1" via="-391493954#2 -391493954#1 -391493954#0 -391493952#2 -391493952#1 -391493952#0 -391493950#1 -391493950#0 -391493947 -391493949 -338412122 -110450334#2">
        <stop busStop="3959807201" duration="30"/>
        <stop busStop="3959807220" duration="30"/>
    </trip>
    <trip id="2_bus_140:0" type="bus" depart="0" departLane="best" from="391493945#1" to="-53356539#0" via="391493945#2 391493945#3 161159325#0 161159325#1 -53356539#1">
        <stop busStop="2029039195" duration="30"/>
        <stop busStop="4032629820" duration="30"/>
    </trip>
    <trip id="3_bus_140:1" type="bus" depart="0" departLane="best" from="53356539#0" to="111325187#3" via="53356539#1 4710636#0 4710636#1 4710636#2 111325187#0 111325187#1 111325187#2">
        <stop busStop="4032629811" duration="30"/>
        <stop busStop="4032629819" duration="30"/>
        <stop busStop="2029039199" duration="30"/>
        <stop busStop="2029039146" duration="30"/>
    </trip>
</routes>
