<?xml version="1.0" encoding="UTF-8"?>

<!-- generated on 2021-11-09 11:56:37 by Eclipse SUMO netedit Version v1_10_0+2052-a8d9b5e6cb4
-->

<additional xmlns:xsi="http://www.w3.org/2001/XMLSchema-instance" xsi:noNamespaceSchemaLocation="http://sumo.dlr.de/xsd/additional_file.xsd">
    <busStop id="busStop1" lane="gneE0_0" startPos="37.00" endPos="43.60" friendlyPos="true"/>
    <busStop id="busStop2" lane="gneE1_0" startPos="3.00" endPos="13.00" friendlyPos="true"/>
    <busStop id="busStop3" lane="gneE2_0" startPos="35.32" endPos="35.42" friendlyPos="true"/>
</additional>
