<?xml version="1.0" encoding="UTF-8"?>

<!-- generated on 2024-06-13 07:12:51 by Eclipse SUMO netconvert Version v1_20_0+0443-233e48e5c88
-->

<netconvertConfiguration xmlns:xsi="http://www.w3.org/2001/XMLSchema-instance" xsi:noNamespaceSchemaLocation="http://sumo.dlr.de/xsd/netconvertConfiguration.xsd">

    <input>
        <node-files value="prunned.nod.xml"/>
        <edge-files value="prunned.edg.xml"/>
        <connection-files value="prunned.con.xml"/>
    </input>

    <output>
        <output-file value="net.net.xml"/>
    </output>

    <processing>
        <roundabouts.guess value="true"/>
    </processing>

</netconvertConfiguration>
