<additional xmlns:xsi="http://www.w3.org/2001/XMLSchema-instance" xsi:noNamespaceSchemaLocation="http://sumo.dlr.de/xsd/additional_file.xsd">
    <parkingArea id="parkingArea_0" lane="center1_1" startPos="20.00" endPos="30.00">

        <!-- valid space -->
        <space x="0.00" y="15.00"/>

    </parkingArea>
</additional>
