<?xml version="1.0" encoding="UTF-8"?>

<!-- generated on Sat Jun 20 22:34:45 2020 by Eclipse SUMO Version v1_6_0+0871-114e9ffca1
This data file and the accompanying materials
are made available under the terms of the Eclipse Public License v2.0
which accompanies this distribution, and is available at
http://www.eclipse.org/legal/epl-v20.html
SPDX-License-Identifier: EPL-2.0
<configuration xmlns:xsi="http://www.w3.org/2001/XMLSchema-instance" xsi:noNamespaceSchemaLocation="http://sumo.dlr.de/xsd/sumoConfiguration.xsd">

    <input>
        <net-file value="net.net.xml"/>
        <route-files value="input_routes.rou.xml,input_routes2.rou.xml"/>
    </input>

    <output>
        <write-license value="true"/>
        <tripinfo-output value="tripinfos.xml"/>
        <tripinfo-output.write-unfinished value="true"/>
    </output>

    <processing>
        <default.speeddev value="0"/>
    </processing>

    <report>
        <verbose value="true"/>
        <xml-validation value="never"/>
        <duration-log.statistics value="true"/>
        <no-step-log value="true"/>
    </report>

    <taxi_device>
        <device.taxi.dispatch-algorithm value="greedyShared"/>
        <device.taxi.dispatch-algorithm.output value="dispatchinfos.xml"/>
        <device.taxi.dispatch-algorithm.params value="relLossThreshold:0.35"/>
    </taxi_device>

</configuration>
-->

<DispatchInfo>
    <dispatchShared time="60.00" id="trip_0" persons="1" sharingPersons="2" type="2" absLoss="19.94" relLoss="0.32" absLoss2="15.62" relLoss2="0.24"/>
    <dispatchShared time="180.00" id="trip_1" persons="3" sharingPersons="8" type="2" absLoss="18.59" relLoss="0.31" absLoss2="0.00" relLoss2="0.00"/>
    <dispatchShared time="360.00" id="trip_1" persons="4" sharingPersons="5" type="2" absLoss="0.39" relLoss="0.00" absLoss2="18.82" relLoss2="0.31"/>
</DispatchInfo>
