<?xml version="1.0" encoding="UTF-8"?>

<!-- generated on Mon Sep 25 15:15:35 2017 by SUMO netconvert Version dev-SVN-r26213
This data file and the accompanying materials
are made available under the terms of the Eclipse Public License v2.0
which accompanies this distribution, and is available at
http://www.eclipse.org/legal/epl-v20.html
SPDX-License-Identifier: EPL-2.0
<configuration xmlns:xsi="http://www.w3.org/2001/XMLSchema-instance" xsi:noNamespaceSchemaLocation="http://sumo.dlr.de/xsd/netconvertConfiguration.xsd">

    <input>
        <osm-files value="osm.xml"/>
    </input>

    <output>
        <output-file value="net.net.xml"/>
        <ptstop-output value="additional.xml"/>
    </output>

    <projection>
        <proj.utm value="true"/>
    </projection>

    <processing>
        <osm.stop-output.length value="200"/>
    </processing>

    <report>
        <xml-validation value="never"/>
    </report>

</configuration>
-->

<additional xmlns:xsi="http://www.w3.org/2001/XMLSchema-instance" xsi:noNamespaceSchemaLocation="http://sumo.dlr.de/xsd/additional_file.xsd">
    <busStop id="1422539746" name="Lübbenau, Gleis 1" lane="254150069_0" startPos="318.58" endPos="518.58" friendlyPos="true"/>
    <busStop id="1422539747" name="Lübbenau, Gleis 2" lane="56392722#0_0" startPos="578.39" endPos="723.80" friendlyPos="true"/>
    <busStop id="1422539748" name="Lübbenau, Gleis 4" lane="254150073#1_0" startPos="423.85" endPos="623.85" friendlyPos="true"/>
</additional>
