<?xml version="1.0" encoding="UTF-8"?>

<!-- generated on 2023-01-26 12:30:10 by Eclipse SUMO netedit Version v1_15_0+1963-12923ba0e0a
-->

<routes xmlns:xsi="http://www.w3.org/2001/XMLSchema-instance" xsi:noNamespaceSchemaLocation="http://sumo.dlr.de/xsd/routes_file.xsd">
    <!-- Vehicles, persons and containers (sorted by depart) -->
    <person id="p_0" depart="0.00">
        <walk from="gneE2" to="gneE5"/>
        <stop busStop="busStopA" duration="30.20" until="10.20" actType="singing"/>
        <stop busStop="busStopB" duration="20.20" until="50.20" actType="walking"/>
    </person>
</routes>
