<?xml version="1.0" encoding="UTF-8"?>

<!-- generated on 2022-10-20 10:05:58 by Eclipse SUMO netedit Version v1_14_1+1845-cb87dca9d69
-->

<routes xmlns:xsi="http://www.w3.org/2001/XMLSchema-instance" xsi:noNamespaceSchemaLocation="http://sumo.dlr.de/xsd/routes_file.xsd">
    <!-- Vehicles, persons and containers (sorted by depart) -->
    <person id="p_0" depart="0.00">
        <walk from="gneE2" to="gneE5"/>
        <stop edge="gneE5" endPos="20.32" duration="30.20" until="10.20" friendlyPos="1" actType="singing"/>
        <stop edge="gneE5" endPos="40.32" duration="20.20" until="50.20" actType="singing"/>
    </person>
</routes>
