<?xml version="1.0" encoding="UTF-8"?>

<!-- generated on Fri Jul  1 14:01:50 2016 by SUMO Version dev-SVN-r21075
<?xml version="1.0" encoding="UTF-8"?>

<configuration xmlns:xsi="http://www.w3.org/2001/XMLSchema-instance" xsi:noNamespaceSchemaLocation="http://sumo.dlr.de/xsd/sumoConfiguration.xsd">

    <input>
        <net-file value="net.net.xml"/>
        <route-files value="input_routes.rou.xml"/>
    </input>

    <output>
        <fcd-output value="fcd.xml"/>
        <tripinfo-output value="tripinfos.xml"/>
        <lanechange-output value="lanechanges.xml"/>
    </output>

    <processing>
        <lateral-resolution value="0.4"/>
    </processing>

    <report>
        <xml-validation value="never"/>
        <no-step-log value="true"/>
    </report>

</configuration>
-->

<lanechanges>
    <change id="A" time="3.00" from="beg_0" to="beg_1" dir="1" speed="13.89" reason="strategic|urgent"/>
</lanechanges>
