<?xml version="1.0" encoding="UTF-8"?>

<!-- generated on 2023-02-28 17:34:43 by Eclipse SUMO netedit Version v1_16_0+0836-0875be66
-->

<routes xmlns:xsi="http://www.w3.org/2001/XMLSchema-instance" xsi:noNamespaceSchemaLocation="http://sumo.dlr.de/xsd/routes_file.xsd">
    <!-- Vehicles, persons and containers (sorted by depart) -->
    <vType id="longBike" length="15" vClass="bicycle" width="2"/>
    <vehicle id="v_0" depart="0.00">
        <route edges="SC CE"/>
    </vehicle>
    <vehicle id="v_1" type="longBike" depart="0.00" departPos="-1">
        <route edges="SC CN"/>
        <stop edge="CN" duration="30" endPos="1"/>
    </vehicle>
</routes>
