<trips>
	<trip depart="888" from="beg" to="rend" type="0"/>
	<trip depart="892" from="beg" to="rend" type="0"/>
</trips>
