<routes>
    <vehicle id="v1" depart="triggered" departpos="0">
        <route edges="beg middle end"/>
    </vehicle>
    <person id="p1" depart="0">
        <ride from="beg" to="end" lines="v1"/>
    </person>
</routes>
