<additional xmlns:xsi="http://www.w3.org/2001/XMLSchema-instance" xsi:noNamespaceSchemaLocation="http://sumo-sim.org/xsd/additional_file.xsd">

	<edgeData id="dump_60" freq="60" file="aggregated_60.xml" excludeEmpty="true"/>

</additional>
