<?xml version="1.0" encoding="UTF-8"?>

<!-- generated on Mon Nov 19 11:02:35 2018 by Eclipse SUMO Version v1_0_1+0645-93703db
This data file and the accompanying materials
are made available under the terms of the Eclipse Public License v2.0
which accompanies this distribution, and is available at
http://www.eclipse.org/legal/epl-v20.html
SPDX-License-Identifier: EPL-2.0
<configuration xmlns:xsi="http://www.w3.org/2001/XMLSchema-instance" xsi:noNamespaceSchemaLocation="http://sumo.dlr.de/xsd/sumoConfiguration.xsd">

    <input>
        <net-file value="net.net.xml"/>
        <additional-files value="input_routes.rou.xml,input_additional.add.xml"/>
    </input>

    <output>
        <write-license value="true"/>
    </output>

    <time>
        <begin value="0"/>
        <end value="100"/>
        <step-length value="0.1"/>
    </time>

    <processing>
        <default.speeddev value="0"/>
    </processing>

    <report>
        <xml-validation value="never"/>
        <duration-log.disable value="true"/>
        <no-step-log value="true"/>
    </report>

    <gui_only>
        <tracker-interval value="0.1"/>
    </gui_only>

</configuration>
-->

<e3Detector xmlns:xsi="http://www.w3.org/2001/XMLSchema-instance" xsi:noNamespaceSchemaLocation="http://sumo.dlr.de/xsd/det_e3_file.xsd">
   <interval begin="0.00" end="100.00" id="tt_fc09" meanTravelTime="42.75" meanOverlapTravelTime="43.16" meanSpeed="10.99" meanHaltsPerVehicle="0.50" meanTimeLoss="9.23" vehicleSum="4" meanSpeedWithin="10.00" meanHaltsPerVehicleWithin="0.50" meanDurationWithin="33.77" vehicleSumWithin="14" meanIntervalSpeedWithin="10.00" meanIntervalHaltsPerVehicleWithin="0.50" meanIntervalDurationWithin="33.77" meanTimeLossWithin="12.33"/>
</e3Detector>
