<routes>
        <vType id="Car" accel="1.0" decel="4.5" sigma="0.5" length="5" minGap="2.5" maxSpeed="13.89" departSpeed="13.89" guiShape="passenger"/>
        <vType id="Motor" accel="2.0" decel="6.0" sigma="0.5" length="2.5" minGap="2.0" maxSpeed="13.89" guiShape="motorcycle" vClass="motorcycle" deparSpeed="13.89" departLane="best"/>
	    
		<flow id="type01" begin="0" end="9000" vehsPerHour="44" type="Car">
            <route edges="gneE01 gneE02 gneE111 gneE119"/>
        </flow>
		<flow id="type02" begin="0" end="9000" vehsPerHour="212" type="Car">
            <route edges="gneE01 gneE02 gneE111 gneE133.0 gneE133.12 gneE134 23602047"/>
        </flow>
		<flow id="type02m" begin="0" end="9000" vehsPerHour="4" type="Motor">
            <route edges="gneE01 gneE02 gneE111 gneE133.0 gneE133.12 gneE134 23602047"/>
        </flow>
		<flow id="type03" begin="0" end="9000" vehsPerHour="16" type="Car">
            <route edges="gneE01 gneE02 gneE111 gneE125"/>
        </flow>
		<flow id="type04" begin="0" end="9000" vehsPerHour="2" type="Car">
            <route edges="gneE123 gneE135 gneE05"/>
        </flow>
		<flow id="type05" begin="0" end="9000" vehsPerHour="3" type="Car">
            <route edges="gneE123 gneE119"/>
        </flow>
		<flow id="type06" begin="0" end="9000" vehsPerHour="8" type="Car">
            <route edges="gneE123 gneE133.0 gneE133.12 gneE134 23602047"/>
        </flow>
		<flow id="type07" begin="0" end="9000" vehsPerHour="8" type="Car">
            <route edges="-23602047 gneE136 gneE131 gneE129.0 gneE129.48 gneE125"/>
        </flow>
		<flow id="type08" begin="0" end="9000" vehsPerHour="304" type="Car">
            <route edges="-23602047 gneE136 gneE131 gneE129.0 gneE129.48 gneE135 gneE05"/>
        </flow>
		<flow id="type08m" begin="0" end="9000" vehsPerHour="8" type="Motor">
            <route edges="-23602047 gneE136 gneE131 gneE129.0 gneE129.48 gneE135 gneE05"/>
		</flow>	
		<flow id="type09" begin="0" end="9000" vehsPerHour="368" type="Car">
            <route edges="-23602047 gneE136 gneE131 gneE129.0 gneE129.48 gneE119"/>
        </flow>
		<flow id="type09m" begin="0" end="9000" vehsPerHour="8" type="Motor">
            <route edges="-23602047 gneE136 gneE131 gneE129.0 gneE129.48 gneE119"/>
		</flow>	
		<flow id="type10" begin="0" end="9000" vehsPerHour="424" type="Car">
            <route edges="gneE09 gneE113 gneE133.0 gneE133.12 gneE134 23602047"/>
        </flow>
		<flow id="type10m" begin="0" end="9000" vehsPerHour="3" type="Motor">
            <route edges="gneE09 gneE113 gneE133.0 gneE133.12 gneE134 23602047"/>
        </flow>
		<flow id="type11" begin="0" end="9000" vehsPerHour="4" type="Car">
            <route edges="gneE09 gneE113 gneE125"/>
        </flow>
		<flow id="type12" begin="0" end="9000" vehsPerHour="84" type="Car">
            <route edges="gneE09 gneE113 gneE135 gneE05"/>
        </flow>
        <flow id="type12m" begin="0" end="9000" vehsPerHour="2" type="Motor">
            <route edges="gneE09 gneE113 gneE135 gneE05"/>
        </flow>
</routes>
