<?xml version="1.0" encoding="UTF-8"?>

<!-- generated on 2021-09-16 11:57:02 by Eclipse SUMO netedit Version v1_10_0+0721-94326db740
-->

<routes xmlns:xsi="http://www.w3.org/2001/XMLSchema-instance" xsi:noNamespaceSchemaLocation="http://sumo.dlr.de/xsd/routes_file.xsd">
    <flow id="flow_2" begin="20.00" departLane="0" end="50.00" number="100">
        <route edges="gneE2 gneE4 gneE5" color="cyan"/>
    </flow>
    <flow id="flow_4" begin="20.00" departLane="random" end="50.00" number="100">
        <route edges="gneE2 gneE4 gneE5" color="cyan"/>
    </flow>
    <flow id="flow_5" begin="20.00" departLane="free" end="50.00" number="100">
        <route edges="gneE2 gneE4 gneE5" color="cyan"/>
    </flow>
    <flow id="flow_6" begin="20.00" departLane="allowed" end="50.00" number="100">
        <route edges="gneE2 gneE4 gneE5" color="cyan"/>
    </flow>
    <flow id="flow_7" begin="20.00" departLane="best" end="50.00" number="100">
        <route edges="gneE2 gneE4 gneE5" color="cyan"/>
    </flow>
    <flow id="flow_8" begin="20.00" departLane="first" end="50.00" number="100">
        <route edges="gneE2 gneE4 gneE5" color="cyan"/>
    </flow>
</routes>
