<?xml version="1.0" encoding="UTF-8"?>

<!-- generated on 2022-04-25 12:02:28 by Eclipse SUMO netedit Version v1_12_0+2260-3e693c4cddb
<configuration xmlns:xsi="http://www.w3.org/2001/XMLSchema-instance" xsi:noNamespaceSchemaLocation="http://sumo.dlr.de/xsd/netconvertConfiguration.xsd">

    <input>
        <sumo-net-file value="C:\erdm_ja\sip-svn-trunk\papers\DLR\SUMO_Conference2022\tutorial\03_flows\osm.net.xml"/>
    </input>

    <output>
        <output-file value="C:\erdm_ja\sip-svn-trunk\papers\DLR\SUMO_Conference2022\tutorial\03_flows\osm.net.xml"/>
        <output.street-names value="true"/>
    </output>

    <processing>
        <geometry.min-radius.fix.railways value="false"/>
        <geometry.max-grade.fix value="false"/>
        <offset.disable-normalization value="true"/>
        <lefthand value="false"/>
    </processing>

    <junctions>
        <no-turnarounds value="true"/>
        <junctions.corner-detail value="5"/>
        <junctions.limit-turn-speed value="5.5"/>
        <rectangular-lane-cut value="false"/>
    </junctions>

    <pedestrian>
        <walkingareas value="false"/>
    </pedestrian>

    <report>
        <aggregate-warnings value="5"/>
    </report>

</configuration>
-->

<net version="1.9" junctionCornerDetail="5" limitTurnSpeed="5.50" xmlns:xsi="http://www.w3.org/2001/XMLSchema-instance" xsi:noNamespaceSchemaLocation="http://sumo.dlr.de/xsd/net_file.xsd">

    <location netOffset="-397025.73,-5808927.41" convBoundary="0.00,289.39,2320.09,4095.35" origBoundary="13.455920,52.416195,13.576609,52.469965" projParameter="+proj=utm +zone=33 +ellps=WGS84 +datum=WGS84 +units=m +no_defs"/>

    <type id="highway.bridleway" priority="1" numLanes="1" speed="2.78" allow="pedestrian" oneway="1" width="2.00"/>
    <type id="highway.bus_guideway" priority="1" numLanes="1" speed="27.78" allow="bus" oneway="1"/>
    <type id="highway.cycleway" priority="1" numLanes="1" speed="8.33" allow="bicycle" oneway="0" width="1.00"/>
    <type id="highway.footway" priority="1" numLanes="1" speed="2.78" allow="pedestrian" oneway="1" width="2.00"/>
    <type id="highway.ford" priority="1" numLanes="1" speed="2.78" allow="army" oneway="0"/>
    <type id="highway.living_street" priority="2" numLanes="1" speed="2.78" disallow="tram rail_urban rail rail_electric rail_fast ship" oneway="0"/>
    <type id="highway.motorway" priority="14" numLanes="2" speed="39.44" allow="private emergency authority army vip passenger hov taxi bus coach delivery truck trailer motorcycle evehicle custom1 custom2" oneway="1"/>
    <type id="highway.motorway_link" priority="9" numLanes="1" speed="22.22" allow="private emergency authority army vip passenger hov taxi bus coach delivery truck trailer motorcycle evehicle custom1 custom2" oneway="1"/>
    <type id="highway.path" priority="1" numLanes="1" speed="2.78" allow="pedestrian bicycle" oneway="0" width="2.00"/>
    <type id="highway.pedestrian" priority="1" numLanes="1" speed="2.78" allow="pedestrian" oneway="1" width="2.00"/>
    <type id="highway.primary" priority="12" numLanes="2" speed="27.78" disallow="tram rail_urban rail rail_electric rail_fast ship" oneway="0"/>
    <type id="highway.primary_link" priority="7" numLanes="1" speed="22.22" disallow="tram rail_urban rail rail_electric rail_fast ship" oneway="0"/>
    <type id="highway.raceway" priority="15" numLanes="2" speed="83.33" allow="vip" oneway="0"/>
    <type id="highway.residential" priority="3" numLanes="1" speed="13.89" disallow="tram rail_urban rail rail_electric rail_fast ship" oneway="0"/>
    <type id="highway.secondary" priority="11" numLanes="1" speed="27.78" disallow="tram rail_urban rail rail_electric rail_fast ship" oneway="0"/>
    <type id="highway.secondary_link" priority="6" numLanes="1" speed="22.22" disallow="tram rail_urban rail rail_electric rail_fast ship" oneway="0"/>
    <type id="highway.service" priority="1" numLanes="1" speed="5.56" allow="pedestrian delivery bicycle" oneway="0"/>
    <type id="highway.service|railway.tram" priority="17" numLanes="1" speed="13.89" allow="pedestrian delivery bicycle tram" oneway="0"/>
    <type id="highway.stairs" priority="1" numLanes="1" speed="1.39" allow="pedestrian" oneway="1" width="2.00"/>
    <type id="highway.step" priority="1" numLanes="1" speed="1.39" allow="pedestrian" oneway="1" width="2.00"/>
    <type id="highway.steps" priority="1" numLanes="1" speed="1.39" allow="pedestrian" oneway="1" width="2.00"/>
    <type id="highway.tertiary" priority="10" numLanes="1" speed="22.22" disallow="tram rail_urban rail rail_electric rail_fast ship" oneway="0"/>
    <type id="highway.tertiary_link" priority="5" numLanes="1" speed="22.22" disallow="tram rail_urban rail rail_electric rail_fast ship" oneway="0"/>
    <type id="highway.track" priority="1" numLanes="1" speed="5.56" allow="pedestrian motorcycle moped bicycle" oneway="0"/>
    <type id="highway.trunk" priority="13" numLanes="2" speed="27.78" disallow="pedestrian bicycle tram rail_urban rail rail_electric rail_fast ship" oneway="0"/>
    <type id="highway.trunk_link" priority="8" numLanes="1" speed="22.22" disallow="pedestrian bicycle tram rail_urban rail rail_electric rail_fast ship" oneway="0"/>
    <type id="highway.unclassified" priority="4" numLanes="1" speed="13.89" disallow="tram rail_urban rail rail_electric rail_fast ship" oneway="0"/>
    <type id="highway.unsurfaced" priority="1" numLanes="1" speed="8.33" disallow="tram rail_urban rail rail_electric rail_fast ship" oneway="0"/>
    <type id="railway.highspeed" priority="21" numLanes="1" speed="69.44" allow="rail_fast" oneway="1"/>
    <type id="railway.light_rail" priority="19" numLanes="1" speed="27.78" allow="rail_urban" oneway="1"/>
    <type id="railway.preserved" priority="16" numLanes="1" speed="27.78" allow="rail" oneway="1"/>
    <type id="railway.rail" priority="20" numLanes="1" speed="44.44" allow="rail" oneway="1"/>
    <type id="railway.subway" priority="18" numLanes="1" speed="27.78" allow="rail_urban" oneway="1"/>
    <type id="railway.tram" priority="17" numLanes="1" speed="13.89" allow="tram" oneway="1"/>

    <edge id=":100154846_0" function="internal">
        <lane id=":100154846_0_0" index="0" disallow="pedestrian tram rail_urban rail rail_electric rail_fast ship" speed="13.89" length="8.37" shape="1726.61,3603.12 1724.48,3601.98 1722.68,3601.78 1720.93,3601.52 1718.95,3600.22"/>
    </edge>
    <edge id=":100154846_1" function="internal">
        <lane id=":100154846_1_0" index="0" disallow="pedestrian tram rail_urban rail rail_electric rail_fast ship" speed="3.65" length="1.44" shape="1726.61,3603.12 1726.18,3601.74"/>
    </edge>
    <edge id=":100154846_4" function="internal">
        <lane id=":100154846_4_0" index="0" disallow="pedestrian tram rail_urban rail rail_electric rail_fast ship" speed="3.65" length="3.23" shape="1726.18,3601.74 1726.38,3600.86 1727.19,3600.50 1728.63,3600.63"/>
    </edge>
    <edge id=":100154846_2" function="internal">
        <lane id=":100154846_2_0" index="0" disallow="pedestrian tram rail_urban rail rail_electric rail_fast ship" speed="13.89" length="7.93" shape="1725.61,3593.51 1726.74,3595.50 1726.95,3597.24 1727.25,3598.90 1728.63,3600.63"/>
    </edge>
    <edge id=":100154846_3" function="internal">
        <lane id=":100154846_3_0" index="0" disallow="tram rail_urban rail rail_electric rail_fast ship" speed="3.62" length="4.44" shape="1723.35,3595.79 1723.62,3597.13 1723.36,3597.94 1722.55,3598.21 1721.21,3597.95"/>
    </edge>
    <edge id=":100157291_0" function="internal">
        <lane id=":100157291_0_0" index="0" disallow="pedestrian tram rail_urban rail rail_electric rail_fast ship" speed="3.65" length="4.67" shape="1840.44,3716.57 1840.88,3717.95 1840.69,3718.82 1839.88,3719.19 1838.44,3719.07"/>
    </edge>
    <edge id=":100159422_0" function="internal">
        <lane id=":100159422_0_0" index="0" disallow="tram rail_urban rail rail_electric rail_fast ship" speed="13.89" length="0.10" shape="1041.01,2246.53 1041.06,2246.48"/>
    </edge>
    <edge id=":100159422_1" function="internal">
        <lane id=":100159422_1_0" index="0" disallow="tram rail_urban rail rail_electric rail_fast ship" speed="13.89" length="0.11" shape="1043.51,2244.61 1043.61,2244.66"/>
    </edge>
    <edge id=":100159780_0" function="internal">
        <lane id=":100159780_0_0" index="0" disallow="tram rail_urban rail rail_electric rail_fast ship" speed="13.89" length="0.45" shape="1005.19,2142.13 1004.84,2142.41"/>
    </edge>
    <edge id=":100159780_1" function="internal">
        <lane id=":100159780_1_0" index="0" disallow="tram rail_urban rail rail_electric rail_fast ship" speed="3.65" length="2.34" shape="1005.19,2142.13 1003.79,2142.48 1002.93,2142.24"/>
    </edge>
    <edge id=":100159780_4" function="internal">
        <lane id=":100159780_4_0" index="0" disallow="tram rail_urban rail rail_electric rail_fast ship" speed="3.65" length="2.34" shape="1002.93,2142.24 1002.60,2141.40 1002.82,2139.98"/>
    </edge>
    <edge id=":100159780_2" function="internal">
        <lane id=":100159780_2_0" index="0" disallow="tram rail_urban rail rail_electric rail_fast ship" speed="13.89" length="0.80" shape="1002.69,2140.77 1002.82,2139.98"/>
    </edge>
    <edge id=":100159780_3" function="internal">
        <lane id=":100159780_3_0" index="0" disallow="tram rail_urban rail rail_electric rail_fast ship" speed="3.94" length="3.57" shape="1002.69,2140.77 1003.71,2140.54 1004.42,2140.73 1004.79,2141.36 1004.84,2142.41"/>
    </edge>
    <edge id=":100161132_0" function="internal">
        <lane id=":100161132_0_0" index="0" disallow="tram rail_urban rail rail_electric rail_fast ship" speed="13.89" length="7.71" shape="1187.94,1687.55 1189.79,1688.68 1191.26,1689.08 1192.78,1689.43 1194.75,1690.38"/>
        <lane id=":100161132_0_1" index="1" disallow="tram rail_urban rail rail_electric rail_fast ship" speed="13.89" length="7.71" shape="1185.97,1690.07 1187.89,1691.26 1189.42,1691.70 1190.99,1692.09 1193.05,1693.09"/>
        <lane id=":100161132_0_2" index="2" disallow="tram rail_urban rail rail_electric rail_fast ship" speed="13.89" length="7.71" shape="1185.97,1690.07 1187.65,1691.69 1188.57,1693.06 1189.54,1694.37 1191.35,1695.80"/>
    </edge>
    <edge id=":100167375_0" function="internal">
        <lane id=":100167375_0_0" index="0" disallow="tram rail_urban rail rail_electric rail_fast ship" speed="3.65" length="4.67" shape="250.20,3389.63 248.76,3389.58 248.00,3389.11 247.92,3388.22 248.52,3386.91"/>
    </edge>
    <edge id=":100167392_0" function="internal">
        <lane id=":100167392_0_0" index="0" disallow="tram rail_urban rail rail_electric rail_fast ship" speed="6.53" length="8.26" shape="1744.29,2610.31 1742.46,2609.03 1740.61,2608.58 1738.74,2608.95 1736.86,2610.15"/>
    </edge>
    <edge id=":100167392_1" function="internal">
        <lane id=":100167392_1_0" index="0" disallow="tram rail_urban rail rail_electric rail_fast ship" speed="13.89" length="12.98" shape="1744.29,2610.31 1741.83,2607.91 1739.81,2605.61 1738.01,2603.14 1736.22,2600.21"/>
    </edge>
    <edge id=":100167392_2" function="internal">
        <lane id=":100167392_2_0" index="0" disallow="tram rail_urban rail rail_electric rail_fast ship" speed="3.65" length="1.44" shape="1744.29,2610.31 1743.95,2608.90"/>
    </edge>
    <edge id=":100167392_9" function="internal">
        <lane id=":100167392_9_0" index="0" disallow="tram rail_urban rail rail_electric rail_fast ship" speed="3.65" length="3.23" shape="1743.95,2608.90 1744.20,2608.05 1745.04,2607.73 1746.46,2607.96"/>
    </edge>
    <edge id=":100167392_3" function="internal">
        <lane id=":100167392_3_0" index="0" disallow="tram rail_urban rail rail_electric rail_fast ship" speed="13.89" length="12.02" shape="1738.99,2598.62 1740.69,2601.43 1742.28,2603.64 1744.09,2605.68 1746.46,2607.96"/>
    </edge>
    <edge id=":100167392_4" function="internal">
        <lane id=":100167392_4_0" index="0" disallow="tram rail_urban rail rail_electric rail_fast ship" speed="8.21" length="3.58" shape="1738.99,2598.62 1740.27,2601.79 1740.27,2601.95"/>
    </edge>
    <edge id=":100167392_5" function="internal">
        <lane id=":100167392_5_0" index="0" disallow="tram rail_urban rail rail_electric rail_fast ship" speed="3.65" length="1.44" shape="1738.99,2598.62 1738.90,2600.06"/>
    </edge>
    <edge id=":100167392_10" function="internal">
        <lane id=":100167392_10_0" index="0" disallow="tram rail_urban rail rail_electric rail_fast ship" speed="8.21" length="9.32" shape="1740.27,2601.95 1740.33,2604.77 1739.20,2607.56 1736.86,2610.15"/>
    </edge>
    <edge id=":100167392_11" function="internal">
        <lane id=":100167392_11_0" index="0" disallow="tram rail_urban rail rail_electric rail_fast ship" speed="3.65" length="3.23" shape="1738.90,2600.06 1738.40,2600.80 1737.51,2600.86 1736.22,2600.21"/>
    </edge>
    <edge id=":100167392_6" function="internal">
        <lane id=":100167392_6_0" index="0" disallow="tram rail_urban rail rail_electric rail_fast ship" speed="6.74" length="8.39" shape="1734.79,2607.71 1736.32,2606.02 1737.07,2604.20 1737.04,2602.27 1736.22,2600.21"/>
    </edge>
    <edge id=":100167392_7" function="internal">
        <lane id=":100167392_7_0" index="0" disallow="tram rail_urban rail rail_electric rail_fast ship" speed="8.03" length="12.99" shape="1734.79,2607.71 1737.75,2605.83 1740.68,2605.25 1743.58,2605.96 1746.46,2607.96"/>
    </edge>
    <edge id=":100167392_8" function="internal">
        <lane id=":100167392_8_0" index="0" disallow="tram rail_urban rail rail_electric rail_fast ship" speed="3.65" length="4.67" shape="1734.79,2607.71 1736.22,2607.54 1737.05,2607.89 1737.26,2608.76 1736.86,2610.15"/>
    </edge>
    <edge id=":138559868_0" function="internal">
        <lane id=":138559868_0_0" index="0" disallow="tram rail_urban rail rail_electric rail_fast ship" speed="13.89" length="0.31" shape="817.73,1342.23 818.01,1342.53"/>
        <lane id=":138559868_0_1" index="1" disallow="tram rail_urban rail rail_electric rail_fast ship" speed="13.89" length="0.31" shape="815.41,1344.44 815.62,1344.66"/>
        <lane id=":138559868_0_2" index="2" disallow="tram rail_urban rail rail_electric rail_fast ship" speed="13.89" length="0.31" shape="813.09,1346.64 813.24,1346.80"/>
    </edge>
    <edge id=":1552842725_0" function="internal">
        <lane id=":1552842725_0_0" index="0" disallow="tram rail_urban rail rail_electric rail_fast ship" speed="3.65" length="4.67" shape="1852.65,915.80 1854.04,916.19 1854.66,916.83 1854.53,917.72 1853.63,918.84"/>
    </edge>
    <edge id=":1552842823_0" function="internal">
        <lane id=":1552842823_0_0" index="0" disallow="tram rail_urban rail rail_electric rail_fast ship" speed="13.89" length="1.23" shape="872.83,1438.06 873.56,1438.59"/>
        <lane id=":1552842823_0_1" index="1" disallow="tram rail_urban rail rail_electric rail_fast ship" speed="13.89" length="1.23" shape="874.84,1435.56 875.81,1436.31"/>
        <lane id=":1552842823_0_2" index="2" disallow="tram rail_urban rail rail_electric rail_fast ship" speed="13.89" length="1.23" shape="876.84,1433.07 878.06,1434.04"/>
    </edge>
    <edge id=":158906921_0" function="internal">
        <lane id=":158906921_0_0" index="0" disallow="tram rail_urban rail rail_electric rail_fast ship" speed="13.89" length="7.61" shape="1834.78,2686.88 1833.24,2685.24 1832.07,2684.23 1830.81,2683.32 1829.00,2681.97"/>
    </edge>
    <edge id=":158906921_1" function="internal">
        <lane id=":158906921_1_0" index="0" disallow="tram rail_urban rail rail_electric rail_fast ship" speed="5.30" length="4.92" shape="1834.78,2686.88 1832.27,2683.66 1831.95,2682.89"/>
    </edge>
    <edge id=":158906921_4" function="internal">
        <lane id=":158906921_4_0" index="0" disallow="tram rail_urban rail rail_electric rail_fast ship" speed="5.30" length="5.11" shape="1831.95,2682.89 1831.45,2681.66 1832.33,2680.89 1834.91,2681.34"/>
    </edge>
    <edge id=":158906921_2" function="internal">
        <lane id=":158906921_2_0" index="0" disallow="tram rail_urban rail rail_electric rail_fast ship" speed="13.89" length="4.42" shape="1830.97,2679.45 1832.02,2680.22 1832.80,2680.66 1833.66,2680.96 1834.91,2681.34"/>
    </edge>
    <edge id=":158906921_3" function="internal">
        <lane id=":158906921_3_0" index="0" disallow="tram rail_urban rail rail_electric rail_fast ship" speed="3.65" length="1.44" shape="1830.97,2679.45 1831.42,2680.82"/>
    </edge>
    <edge id=":158906921_5" function="internal">
        <lane id=":158906921_5_0" index="0" disallow="tram rail_urban rail rail_electric rail_fast ship" speed="3.65" length="3.23" shape="1831.42,2680.82 1831.24,2681.70 1830.44,2682.08 1829.00,2681.97"/>
    </edge>
    <edge id=":2030862306_0" function="internal">
        <lane id=":2030862306_0_0" index="0" disallow="tram rail_urban rail rail_electric rail_fast ship" speed="8.40" length="3.87" shape="1451.67,2798.45 1450.89,2797.93 1450.80,2797.11 1450.81,2796.13 1450.34,2795.11"/>
    </edge>
    <edge id=":2030862306_1" function="internal">
        <lane id=":2030862306_1_0" index="0" allow="bus bicycle" speed="13.89" length="2.64" shape="1452.70,2792.94 1456.49,2792.62"/>
        <lane id=":2030862306_1_1" index="1" disallow="tram rail_urban rail rail_electric rail_fast ship" speed="13.89" length="2.64" shape="1452.70,2792.94 1453.01,2793.26 1453.23,2793.47 1453.42,2793.70 1453.64,2794.08"/>
    </edge>
    <edge id=":206191818_0" function="internal">
        <lane id=":206191818_0_0" index="0" allow="private emergency authority army vip passenger hov taxi bus coach delivery truck trailer motorcycle evehicle custom1 custom2" speed="19.45" length="11.27" shape="1068.08,1272.49 1065.65,1274.77 1064.14,1276.50 1062.76,1278.34 1060.68,1280.96"/>
        <lane id=":206191818_0_1" index="1" allow="private emergency authority army vip passenger hov taxi bus coach delivery truck trailer motorcycle evehicle custom1 custom2" speed="19.45" length="11.77" shape="1065.98,1270.08 1063.43,1272.46 1061.85,1274.25 1060.40,1276.17 1058.22,1278.91"/>
    </edge>
    <edge id=":206191818_2" function="internal">
        <lane id=":206191818_2_0" index="0" allow="private emergency authority army vip passenger hov taxi bus coach delivery truck trailer motorcycle evehicle custom1 custom2" speed="22.22" length="11.86" shape="1063.87,1267.67 1061.36,1270.17 1059.87,1272.11 1058.36,1274.03 1055.78,1276.44"/>
        <lane id=":206191818_2_1" index="1" allow="private emergency authority army vip passenger hov taxi bus coach delivery truck trailer motorcycle evehicle custom1 custom2" speed="22.22" length="11.86" shape="1061.77,1265.26 1059.28,1267.74 1057.80,1269.67 1056.31,1271.57 1053.75,1273.97"/>
        <lane id=":206191818_2_2" index="2" allow="private emergency authority army vip passenger hov taxi bus coach delivery truck trailer motorcycle evehicle custom1 custom2" speed="22.22" length="11.86" shape="1059.66,1262.85 1057.20,1265.31 1055.74,1267.23 1054.26,1269.12 1051.72,1271.49"/>
    </edge>
    <edge id=":206191819_0" function="internal">
        <lane id=":206191819_0_0" index="0" allow="private emergency authority army vip passenger hov taxi bus coach delivery truck trailer motorcycle evehicle custom1 custom2" speed="19.45" length="3.14" shape="1123.23,1186.72 1123.99,1186.18 1124.51,1185.80 1125.01,1185.41 1125.72,1184.81"/>
    </edge>
    <edge id=":206191819_1" function="internal">
        <lane id=":206191819_1_0" index="0" allow="private emergency authority army vip passenger hov taxi bus coach delivery truck trailer motorcycle evehicle custom1 custom2" speed="22.22" length="3.12" shape="1125.37,1189.30 1127.78,1187.26"/>
        <lane id=":206191819_1_1" index="1" allow="private emergency authority army vip passenger hov taxi bus coach delivery truck trailer motorcycle evehicle custom1 custom2" speed="22.22" length="3.12" shape="1127.46,1191.73 1129.83,1189.71"/>
        <lane id=":206191819_1_2" index="2" allow="private emergency authority army vip passenger hov taxi bus coach delivery truck trailer motorcycle evehicle custom1 custom2" speed="22.22" length="3.12" shape="1129.54,1194.15 1131.89,1192.17"/>
    </edge>
    <edge id=":206191826_0" function="internal">
        <lane id=":206191826_0_0" index="0" allow="private emergency authority army vip passenger hov taxi bus coach delivery truck trailer motorcycle evehicle custom1 custom2" speed="16.67" length="8.06" shape="726.02,1566.70 724.38,1568.42 723.52,1569.85 722.63,1571.26 720.93,1572.89"/>
    </edge>
    <edge id=":206191832_0" function="internal">
        <lane id=":206191832_0_0" index="0" allow="private emergency authority army vip passenger hov taxi bus coach delivery truck trailer motorcycle evehicle custom1 custom2" speed="16.67" length="8.19" shape="752.07,1489.62 753.71,1487.84 754.55,1486.36 755.41,1484.90 757.07,1483.14"/>
        <lane id=":206191832_0_1" index="1" allow="private emergency authority army vip passenger hov taxi bus coach delivery truck trailer motorcycle evehicle custom1 custom2" speed="16.67" length="8.19" shape="754.20,1492.02 755.82,1490.24 756.66,1488.77 757.50,1487.32 759.15,1485.58"/>
        <lane id=":206191832_0_2" index="2" allow="private emergency authority army vip passenger hov taxi bus coach delivery truck trailer motorcycle evehicle custom1 custom2" speed="16.67" length="8.19" shape="754.20,1492.02 756.14,1490.63 757.70,1489.99 759.26,1489.37 761.23,1488.01"/>
    </edge>
    <edge id=":206191835_0" function="internal">
        <lane id=":206191835_0_0" index="0" allow="private emergency authority army vip passenger hov taxi bus coach delivery truck trailer motorcycle evehicle custom1 custom2" speed="16.67" length="8.04" shape="1027.03,1262.13 1028.66,1260.42 1029.52,1258.99 1030.40,1257.59 1032.10,1255.96"/>
    </edge>
    <edge id=":2165987557_0" function="internal">
        <lane id=":2165987557_0_0" index="0" allow="private emergency authority army vip passenger hov taxi bus coach delivery truck trailer motorcycle evehicle custom1 custom2" speed="22.22" length="8.20" shape="1168.61,1179.57 1166.93,1181.32 1166.05,1182.79 1165.16,1184.24 1163.46,1185.96"/>
        <lane id=":2165987557_0_1" index="1" allow="private emergency authority army vip passenger hov taxi bus coach delivery truck trailer motorcycle evehicle custom1 custom2" speed="22.22" length="8.20" shape="1168.61,1179.57 1166.61,1180.93 1165.03,1181.55 1163.44,1182.16 1161.43,1183.49"/>
        <lane id=":2165987557_0_2" index="2" allow="private emergency authority army vip passenger hov taxi bus coach delivery truck trailer motorcycle evehicle custom1 custom2" speed="22.22" length="8.20" shape="1166.53,1177.13 1164.55,1178.49 1162.98,1179.10 1161.39,1179.70 1159.39,1181.02"/>
        <lane id=":2165987557_0_3" index="3" allow="private emergency authority army vip passenger hov taxi bus coach delivery truck trailer motorcycle evehicle custom1 custom2" speed="22.22" length="8.20" shape="1164.46,1174.69 1162.49,1176.04 1160.92,1176.64 1159.35,1177.24 1157.36,1178.55"/>
    </edge>
    <edge id=":2165987560_0" function="internal">
        <lane id=":2165987560_0_0" index="0" allow="private emergency authority army vip passenger hov taxi bus coach delivery truck trailer motorcycle evehicle custom1 custom2" speed="16.67" length="8.21" shape="979.61,1356.30 977.96,1358.05 977.11,1359.52 976.26,1360.98 974.61,1362.74"/>
        <lane id=":2165987560_0_1" index="1" allow="private emergency authority army vip passenger hov taxi bus coach delivery truck trailer motorcycle evehicle custom1 custom2" speed="16.67" length="8.21" shape="977.52,1353.87 975.87,1355.63 975.02,1357.09 974.16,1358.56 972.51,1360.31"/>
        <lane id=":2165987560_0_2" index="2" allow="private emergency authority army vip passenger hov taxi bus coach delivery truck trailer motorcycle evehicle custom1 custom2" speed="16.67" length="8.21" shape="977.52,1353.87 975.54,1355.25 973.97,1355.88 972.40,1356.52 970.42,1357.89"/>
    </edge>
    <edge id=":2165987569_0" function="internal">
        <lane id=":2165987569_0_0" index="0" disallow="tram rail_urban rail rail_electric rail_fast ship" speed="13.89" length="8.14" shape="1010.08,1530.32 1012.06,1531.71 1013.63,1532.37 1015.18,1533.05 1017.11,1534.50"/>
        <lane id=":2165987569_0_1" index="1" disallow="tram rail_urban rail rail_electric rail_fast ship" speed="13.89" length="8.14" shape="1007.98,1532.73 1009.93,1534.10 1011.48,1534.75 1013.02,1535.41 1014.92,1536.84"/>
        <lane id=":2165987569_0_2" index="2" disallow="tram rail_urban rail rail_electric rail_fast ship" speed="13.89" length="8.14" shape="1007.98,1532.73 1009.58,1534.46 1010.39,1535.92 1011.18,1537.39 1012.74,1539.18"/>
    </edge>
    <edge id=":2165987571_0" function="internal">
        <lane id=":2165987571_0_0" index="0" disallow="tram rail_urban rail rail_electric rail_fast ship" speed="13.89" length="7.98" shape="1107.88,1640.70 1106.07,1639.31 1104.59,1638.69 1103.08,1638.11 1101.17,1636.85"/>
        <lane id=":2165987571_0_1" index="1" disallow="tram rail_urban rail rail_electric rail_fast ship" speed="13.89" length="7.98" shape="1110.09,1638.39 1108.24,1636.96 1106.72,1636.31 1105.17,1635.70 1103.21,1634.39"/>
        <lane id=":2165987571_0_2" index="2" disallow="tram rail_urban rail rail_electric rail_fast ship" speed="13.89" length="7.98" shape="1110.09,1638.39 1108.54,1636.56 1107.75,1635.07 1106.91,1633.63 1105.26,1631.92"/>
    </edge>
    <edge id=":2165987572_0" function="internal">
        <lane id=":2165987572_0_0" index="0" disallow="tram rail_urban rail rail_electric rail_fast ship" speed="13.89" length="7.96" shape="1246.01,1800.50 1242.54,1807.67"/>
    </edge>
    <edge id=":2165987572_1" function="internal">
        <lane id=":2165987572_1_0" index="0" disallow="tram rail_urban rail rail_electric rail_fast ship" speed="13.89" length="8.41" shape="1239.65,1806.29 1240.26,1803.84 1239.94,1801.97 1239.63,1800.11 1240.27,1797.68"/>
        <lane id=":2165987572_1_1" index="1" disallow="tram rail_urban rail rail_electric rail_fast ship" speed="13.89" length="8.41" shape="1239.65,1806.29 1243.14,1799.09"/>
    </edge>
    <edge id=":2255293294_0" function="internal">
        <lane id=":2255293294_0_0" index="0" disallow="pedestrian tram rail_urban rail rail_electric rail_fast ship" speed="13.89" length="7.98" shape="1958.64,2847.93 1959.75,2845.80 1960.20,2844.17 1960.69,2842.57 1961.92,2840.53"/>
        <lane id=":2255293294_0_1" index="1" disallow="pedestrian tram rail_urban rail rail_electric rail_fast ship" speed="13.89" length="7.98" shape="1961.32,2849.69 1962.39,2847.61 1962.81,2846.02 1963.28,2844.45 1964.47,2842.46"/>
        <lane id=":2255293294_0_2" index="2" disallow="pedestrian tram rail_urban rail rail_electric rail_fast ship" speed="13.89" length="7.98" shape="1961.32,2849.69 1962.78,2847.93 1964.09,2846.98 1965.44,2846.07 1967.02,2844.39"/>
    </edge>
    <edge id=":2255293408_0" function="internal">
        <lane id=":2255293408_0_0" index="0" disallow="tram rail_urban rail rail_electric rail_fast ship" speed="13.89" length="8.05" shape="1597.57,3537.14 1591.41,3542.32"/>
    </edge>
    <edge id=":2255293408_1" function="internal">
        <lane id=":2255293408_1_0" index="0" disallow="tram rail_urban rail rail_electric rail_fast ship" speed="13.89" length="8.30" shape="1589.36,3539.87 1590.89,3537.94 1591.34,3536.15 1591.77,3534.33 1593.26,3532.34"/>
        <lane id=":2255293408_1_1" index="1" disallow="tram rail_urban rail rail_electric rail_fast ship" speed="13.89" length="8.30" shape="1589.36,3539.87 1595.39,3534.72"/>
    </edge>
    <edge id=":280777678_0" function="internal">
        <lane id=":280777678_0_0" index="0" disallow="tram rail_urban rail rail_electric rail_fast ship" speed="13.89" length="8.02" shape="1345.81,1777.78 1338.68,1774.10"/>
    </edge>
    <edge id=":280777678_1" function="internal">
        <lane id=":280777678_1_0" index="0" disallow="tram rail_urban rail rail_electric rail_fast ship" speed="13.89" length="8.77" shape="1341.65,1768.43 1343.59,1770.02 1344.44,1771.70 1345.30,1773.37 1347.26,1774.93"/>
    </edge>
    <edge id=":283017766_0" function="internal">
        <lane id=":283017766_0_0" index="0" disallow="tram rail_urban rail rail_electric rail_fast ship" speed="13.89" length="0.25" shape="800.15,1358.46 799.91,1358.16"/>
        <lane id=":283017766_0_1" index="1" disallow="tram rail_urban rail rail_electric rail_fast ship" speed="13.89" length="0.25" shape="802.54,1356.33 802.46,1356.23"/>
    </edge>
    <edge id=":286046797_0" function="internal">
        <lane id=":286046797_0_0" index="0" disallow="pedestrian tram rail_urban rail rail_electric rail_fast ship" speed="13.89" length="0.30" shape="1904.12,2934.71 1904.26,2934.44"/>
        <lane id=":286046797_0_1" index="1" disallow="pedestrian tram rail_urban rail rail_electric rail_fast ship" speed="13.89" length="0.30" shape="1906.92,2936.25 1907.06,2936.00"/>
    </edge>
    <edge id=":290952496_0" function="internal">
        <lane id=":290952496_0_0" index="0" disallow="tram rail_urban rail rail_electric rail_fast ship" speed="11.11" length="0.11" shape="1405.69,1808.20 1405.60,1808.15"/>
    </edge>
    <edge id=":290952496_1" function="internal">
        <lane id=":290952496_1_0" index="0" disallow="tram rail_urban rail rail_electric rail_fast ship" speed="11.11" length="0.33" shape="1407.05,1805.29 1407.33,1805.45"/>
    </edge>
    <edge id=":290968580_0" function="internal">
        <lane id=":290968580_0_0" index="0" disallow="tram rail_urban rail rail_electric rail_fast ship" speed="13.89" length="8.15" shape="997.19,1542.51 995.16,1541.19 993.56,1540.59 991.98,1539.98 990.00,1538.60"/>