<?xml version="1.0" encoding="UTF-8"?>

<!-- generated on 2022-05-18 13:35:43 by Eclipse SUMO sumo Version v1_13_0+0324-c5e9788
This data file and the accompanying materials
are made available under the terms of the Eclipse Public License v2.0
which accompanies this distribution, and is available at
http://www.eclipse.org/legal/epl-v20.html
This file may also be made available under the following Secondary
Licenses when the conditions for such availability set forth in the Eclipse
Public License 2.0 are satisfied: GNU General Public License, version 2
or later which is available at
https://www.gnu.org/licenses/old-licenses/gpl-2.0-standalone.html
SPDX-License-Identifier: EPL-2.0 OR GPL-2.0-or-later
<configuration xmlns:xsi="http://www.w3.org/2001/XMLSchema-instance" xsi:noNamespaceSchemaLocation="http://sumo.dlr.de/xsd/sumoConfiguration.xsd">

    <input>
        <net-file value="motorway.net.xml"/>
        <route-files value="input_routes.rou.xml"/>
        <additional-files value="input_additional.add.xml"/>
    </input>

    <output>
        <write-license value="true"/>
        <lanechange-output value="lanechanges.xml"/>
    </output>

    <time>
        <step-length value="0.05"/>
    </time>

    <processing>
        <ignore-route-errors value="true"/>
        <default.speeddev value="0"/>
    </processing>

    <report>
        <xml-validation value="never"/>
        <no-step-log value="true"/>
    </report>

</configuration>
-->

<lanechanges>
    <change id="flowing24" type="middle" time="14.35" from="end_0" to="end_1" dir="1" speed="0.85" pos="50.17" reason="speedGain" leaderGap="135.15" leaderSecureGap="0.96" leaderSpeed="0.00" followerGap="None" followerSecureGap="None" followerSpeed="None" origLeaderGap="12.06" origLeaderSecureGap="0.00" origLeaderSpeed="11.22"/>
    <change id="flowing24" type="middle" time="15.65" from="end_1" to="end_0" dir="-1" speed="4.12" pos="53.55" reason="strategic|urgent" leaderGap="2.80" leaderSecureGap="0.00" leaderSpeed="14.84" followerGap="None" followerSecureGap="None" followerSpeed="None" origLeaderGap="131.77" origLeaderSecureGap="6.60" origLeaderSpeed="0.00"/>
    <change id="ego" type="middle" time="55.70" from="end_1" to="end_0" dir="-1" speed="0.80" pos="191.19" reason="strategic|urgent" leaderGap="7.96" leaderSecureGap="0.00" leaderSpeed="8.44" followerGap="3.07" followerSecureGap="0.56" followerSpeed="0.58" origLeaderGap="None" origLeaderSecureGap="None" origLeaderSpeed="None"/>
</lanechanges>
