<?xml version="1.0" encoding="UTF-8"?>

<!-- generated on Wed May  6 09:32:15 2020 by Eclipse SUMO netgenerate Version v1_6_0+0102-8e2def9dd7
-->

<configuration xmlns:xsi="http://www.w3.org/2001/XMLSchema-instance" xsi:noNamespaceSchemaLocation="http://sumo.dlr.de/xsd/netgenerateConfiguration.xsd">

    <grid_network>
        <grid value="true"/>
        <grid.length value="200"/>
        <grid.x-number value="3"/>
        <grid.y-number value="1"/>
        <grid.attach-length value="200"/>
    </grid_network>

    <processing>
        <perturb-x value="30"/>
    </processing>

    <building_defaults>
        <default.lanenumber value="1"/>
        <turn-lanes value="1"/>
        <turn-lanes.length value="80"/>
        <default-junction-type value="traffic_light"/>
    </building_defaults>

    <tls_building>
        <tls.default-type value="static"/>
        <tls.quarter-offset value="C0"/>
    </tls_building>

    <junctions>
        <no-turnarounds value="true"/>
    </junctions>

</configuration>
