<?xml version="1.0" encoding="UTF-8"?>

<!-- generated on 06/01/11 09:28:07 by SUMO netconvert Version dev-SVN-r10489

<configuration xmlns:xsi="http://www.w3.org/2001/XMLSchema-instance" xsi:noNamespaceSchemaLocation="http://sumo-sim.org/xsd/netconvertConfiguration.xsd">

    <input>
        <node-files value="input_nodes.nod.xml,input_nodes2.nod.xml"/>
        <edge-files value="input_edges.edg.xml"/>
    </input>

    <output>
        <output value="net.net.xml"/>
    </output>

    <report>
        <verbose value="true"/>
    </report>

</configuration>
-->

<net version="0.13" xmlns:xsi="http://www.w3.org/2001/XMLSchema-instance" xsi:noNamespaceSchemaLocation="http://sumo-sim.org/xsd/net_file.xsd">

    <location netOffset="500.00,500.00" convBoundary="0.00,0.00,1000.00,1000.00" origBoundary="-500.00,-500.00,500.00,500.00" projParameter="!"/>

    <edge id=":0_0" function="internal">
        <lane id=":0_0_0" index="0" speed="16.00" length="8.06" shape="518.15,514.78 515.26,515.03 513.18,515.64 511.93,516.62 511.49,517.95"/>
    </edge>
    <edge id=":0_1" function="internal">
        <lane id=":0_1_0" index="0" speed="16.00" length="16.65" shape="518.15,514.78 512.82,514.36 508.80,513.24 505.40,512.07 501.92,511.49"/>
    </edge>
    <edge id=":0_2" function="internal">
        <lane id=":0_2_0" index="0" speed="16.00" length="15.75" shape="518.08,511.49 513.83,510.96 510.76,509.18 508.88,506.14 508.19,501.85"/>
    </edge>
    <edge id=":0_3" function="internal">
        <lane id=":0_3_0" index="0" speed="16.00" length="4.82" shape="518.08,511.49 516.83,510.69 516.40,509.87 516.80,509.04 518.02,508.19"/>
    </edge>
    <edge id=":0_4" function="internal">
        <lane id=":0_4_0" index="0" speed="16.00" length="7.96" shape="514.79,501.72 515.04,504.57 515.66,506.60 516.65,507.81 518.02,508.19"/>
    </edge>
    <edge id=":0_5" function="internal">
        <lane id=":0_5_0" index="0" speed="16.00" length="16.65" shape="514.79,501.72 514.36,507.05 513.24,511.07 512.07,514.47 511.49,517.95"/>
    </edge>
    <edge id=":0_6" function="internal">
        <lane id=":0_6_0" index="0" speed="16.00" length="15.69" shape="511.49,501.79 510.96,506.10 509.19,509.16 506.18,510.96 501.92,511.49"/>
    </edge>
    <edge id=":0_7" function="internal">
        <lane id=":0_7_0" index="0" speed="16.00" length="4.82" shape="511.49,501.79 510.69,503.04 509.87,503.47 509.04,503.07 508.19,501.85"/>
    </edge>
    <edge id=":0_8" function="internal">
        <lane id=":0_8_0" index="0" speed="16.00" length="7.64" shape="502.05,504.89 504.76,504.75 506.68,504.19 507.83,503.23 508.19,501.85"/>
    </edge>
    <edge id=":0_9" function="internal">
        <lane id=":0_9_0" index="0" speed="16.00" length="16.37" shape="502.05,504.89 507.28,505.49 511.21,506.64 514.56,507.74 518.02,508.19"/>
    </edge>
    <edge id=":0_10" function="internal">
        <lane id=":0_10_0" index="0" speed="16.00" length="15.54" shape="501.98,508.19 506.21,508.87 509.21,510.73 510.97,513.76 511.49,517.95"/>
    </edge>
    <edge id=":0_11" function="internal">
        <lane id=":0_11_0" index="0" speed="16.00" length="4.82" shape="501.98,508.19 503.20,509.04 503.60,509.87 503.17,510.69 501.92,511.49"/>
    </edge>
    <edge id=":0_12" function="internal">
        <lane id=":0_12_0" index="0" speed="16.00" length="7.73" shape="504.89,517.82 504.75,515.07 504.21,513.10 503.27,511.91 501.92,511.49"/>
    </edge>
    <edge id=":0_13" function="internal">
        <lane id=":0_13_0" index="0" speed="16.00" length="16.37" shape="504.89,517.82 505.49,512.59 506.64,508.65 507.74,505.31 508.19,501.85"/>
    </edge>
    <edge id=":0_14" function="internal">
        <lane id=":0_14_0" index="0" speed="16.00" length="15.61" shape="508.19,517.89 508.88,513.72 510.74,510.71 513.79,508.87 518.02,508.19"/>
    </edge>
    <edge id=":0_15" function="internal">
        <lane id=":0_15_0" index="0" speed="16.00" length="4.82" shape="508.19,517.89 509.04,516.67 509.87,516.27 510.69,516.70 511.49,517.95"/>
    </edge>
    <edge id=":1_0" function="internal">
        <lane id=":1_0_0" index="0" speed="16.00" length="4.82" shape="-0.03,501.65 -1.25,500.80 -1.65,499.97 -1.22,499.15 0.03,498.35"/>
    </edge>
    <edge id=":2_0" function="internal">
        <lane id=":2_0_0" index="0" speed="16.00" length="4.82" shape="999.97,498.35 1001.22,499.15 1001.65,499.97 1001.25,500.80 1000.03,501.65"/>
    </edge>
    <edge id=":3_0" function="internal">
        <lane id=":3_0_0" index="0" speed="16.00" length="4.82" shape="498.35,0.03 499.15,-1.22 499.97,-1.65 500.80,-1.25 501.65,-0.03"/>
    </edge>
    <edge id=":4_0" function="internal">
        <lane id=":4_0_0" index="0" speed="16.00" length="4.82" shape="501.65,1000.03 500.80,1001.25 499.97,1001.65 499.15,1001.22 498.35,999.97"/>
    </edge>

    <edge id="1fi" from="1" to="0" priority="-1">
        <lane id="1fi_0" index="0" speed="16.00" length="502.05" shape="0.10,495.05 502.05,504.89"/>
        <lane id="1fi_1" index="1" speed="16.00" length="502.05" shape="0.03,498.35 501.98,508.19"/>
    </edge>
    <edge id="1o" from="0" to="1" priority="-1">
        <lane id="1o_0" index="0" speed="16.00" length="502.05" shape="501.92,511.49 -0.03,501.65"/>
    </edge>
    <edge id="2fi" from="2" to="0" priority="-1">
        <lane id="2fi_0" index="0" speed="16.00" length="482.05" shape="1000.10,504.95 518.15,514.78"/>
        <lane id="2fi_1" index="1" speed="16.00" length="482.05" shape="1000.03,501.65 518.08,511.49"/>
    </edge>
    <edge id="2o" from="0" to="2" priority="-1">
        <lane id="2o_0" index="0" speed="16.00" length="482.05" shape="518.02,508.19 999.97,498.35"/>
    </edge>
    <edge id="3fi" from="3" to="0" priority="-1">
        <lane id="3fi_0" index="0" speed="16.00" length="501.92" shape="504.95,-0.10 514.79,501.72"/>
        <lane id="3fi_1" index="1" speed="16.00" length="501.92" shape="501.65,-0.03 511.49,501.79"/>
    </edge>
    <edge id="3o" from="0" to="3" priority="-1">
        <lane id="3o_0" index="0" speed="16.00" length="501.92" shape="508.19,501.85 498.35,0.03"/>
    </edge>
    <edge id="4fi" from="4" to="0" priority="-1">
        <lane id="4fi_0" index="0" speed="16.00" length="482.18" shape="495.05,999.90 504.89,517.82"/>
        <lane id="4fi_1" index="1" speed="16.00" length="482.18" shape="498.35,999.97 508.19,517.89"/>
    </edge>
    <edge id="4o" from="0" to="4" priority="-1">
        <lane id="4o_0" index="0" speed="16.00" length="482.18" shape="511.49,517.95 501.65,1000.03"/>
    </edge>

    <junction id="0" type="right_before_left" x="510.00" y="510.00" incLanes="2fi_0 2fi_1 3fi_0 3fi_1 1fi_0 1fi_1 4fi_0 4fi_1" intLanes=":0_0_0 :0_1_0 :0_2_0 :0_3_0 :0_4_0 :0_5_0 :0_6_0 :0_7_0 :0_8_0 :0_9_0 :0_10_0 :0_11_0 :0_12_0 :0_13_0 :0_14_0 :0_15_0" shape="518.18,516.38 517.98,506.59 516.39,501.69 506.59,501.88 502.08,503.29 501.89,513.09 503.29,517.79 513.09,517.99">
        <request index="0" response="0000000000000000" foes="1000010000100000" cont="0"/>
        <request index="1" response="0111000000000000" foes="0111110001100000" cont="0"/>
        <request index="2" response="0110001100000000" foes="0110001111100000" cont="0"/>
        <request index="3" response="0100001000010000" foes="0100001000010000" cont="0"/>
        <request index="4" response="0000000000000000" foes="0100001000001000" cont="0"/>
        <request index="5" response="0000000000000111" foes="1100011000000111" cont="0"/>
        <request index="6" response="0011000000000110" foes="0011111000000110" cont="0"/>
        <request index="7" response="0010000100000100" foes="0010000100000100" cont="0"/>
        <request index="8" response="0000000000000000" foes="0010000010000100" cont="0"/>
        <request index="9" response="0000000001110000" foes="0110000001111100" cont="0"/>
        <request index="10" response="0000000001100011" foes="1110000001100011" cont="0"/>
        <request index="11" response="0001000001000010" foes="0001000001000010" cont="0"/>
        <request index="12" response="0000000000000000" foes="0000100001000010" cont="0"/>
        <request index="13" response="0000011100000000" foes="0000011111000110" cont="0"/>
        <request index="14" response="0000011000110000" foes="0000011000111110" cont="0"/>
        <request index="15" response="0000010000100001" foes="0000010000100001" cont="0"/>
    </junction>
    <junction id="1" type="priority" x="0.00" y="500.00" incLanes="1o_0" intLanes=":1_0_0" shape="0.00,499.95 0.13,493.45 -0.06,503.25 -0.00,500.05">
        <request index="0" response="0" foes="0" cont="0"/>
    </junction>
    <junction id="2" type="priority" x="1000.00" y="500.00" incLanes="2o_0" intLanes=":2_0_0" shape="1000.00,500.05 1000.13,506.55 999.93,496.75 1000.00,499.95">
        <request index="0" response="0" foes="0" cont="0"/>
    </junction>
    <junction id="3" type="priority" x="500.00" y="0.00" incLanes="3o_0" intLanes=":3_0_0" shape="500.05,-0.00 506.55,-0.13 496.75,0.06 499.95,0.00">
        <request index="0" response="0" foes="0" cont="0"/>
    </junction>
    <junction id="4" type="priority" x="500.00" y="1000.00" incLanes="4o_0" intLanes=":4_0_0" shape="499.95,1000.00 493.45,999.87 503.25,1000.07 500.05,1000.00">
        <request index="0" response="0" foes="0" cont="0"/>
    </junction>

    <connection from="1fi" to="3o" fromLane="0" toLane="0" via=":0_8_0" dir="r" state="="/>
    <connection from="1fi" to="2o" fromLane="0" toLane="0" via=":0_9_0" dir="s" state="="/>
    <connection from="1fi" to="4o" fromLane="1" toLane="0" via=":0_10_0" dir="l" state="="/>
    <connection from="1fi" to="1o" fromLane="1" toLane="0" via=":0_11_0" dir="t" state="="/>
    <connection from="1o" to="1fi" fromLane="0" toLane="1" via=":1_0_0" dir="t" state="M"/>
    <connection from="2fi" to="4o" fromLane="0" toLane="0" via=":0_0_0" dir="r" state="="/>
    <connection from="2fi" to="1o" fromLane="0" toLane="0" via=":0_1_0" dir="s" state="="/>
    <connection from="2fi" to="3o" fromLane="1" toLane="0" via=":0_2_0" dir="l" state="="/>
    <connection from="2fi" to="2o" fromLane="1" toLane="0" via=":0_3_0" dir="t" state="="/>
    <connection from="2o" to="2fi" fromLane="0" toLane="1" via=":2_0_0" dir="t" state="M"/>
    <connection from="3fi" to="2o" fromLane="0" toLane="0" via=":0_4_0" dir="r" state="="/>
    <connection from="3fi" to="4o" fromLane="0" toLane="0" via=":0_5_0" dir="s" state="="/>
    <connection from="3fi" to="1o" fromLane="1" toLane="0" via=":0_6_0" dir="l" state="="/>
    <connection from="3fi" to="3o" fromLane="1" toLane="0" via=":0_7_0" dir="t" state="="/>
    <connection from="3o" to="3fi" fromLane="0" toLane="1" via=":3_0_0" dir="t" state="M"/>
    <connection from="4fi" to="1o" fromLane="0" toLane="0" via=":0_12_0" dir="r" state="="/>
    <connection from="4fi" to="3o" fromLane="0" toLane="0" via=":0_13_0" dir="s" state="="/>
    <connection from="4fi" to="2o" fromLane="1" toLane="0" via=":0_14_0" dir="l" state="="/>
    <connection from="4fi" to="4o" fromLane="1" toLane="0" via=":0_15_0" dir="t" state="="/>
    <connection from="4o" to="4fi" fromLane="0" toLane="1" via=":4_0_0" dir="t" state="M"/>

    <connection from=":0_0" to="4o" fromLane="0" toLane="0" dir="s" state="M"/>
    <connection from=":0_1" to="1o" fromLane="0" toLane="0" dir="s" state="M"/>
    <connection from=":0_2" to="3o" fromLane="0" toLane="0" dir="s" state="M"/>
    <connection from=":0_3" to="2o" fromLane="0" toLane="0" dir="s" state="M"/>
    <connection from=":0_4" to="2o" fromLane="0" toLane="0" dir="s" state="M"/>
    <connection from=":0_5" to="4o" fromLane="0" toLane="0" dir="s" state="M"/>
    <connection from=":0_6" to="1o" fromLane="0" toLane="0" dir="s" state="M"/>
    <connection from=":0_7" to="3o" fromLane="0" toLane="0" dir="s" state="M"/>
    <connection from=":0_8" to="3o" fromLane="0" toLane="0" dir="s" state="M"/>
    <connection from=":0_9" to="2o" fromLane="0" toLane="0" dir="s" state="M"/>
    <connection from=":0_10" to="4o" fromLane="0" toLane="0" dir="s" state="M"/>
    <connection from=":0_11" to="1o" fromLane="0" toLane="0" dir="s" state="M"/>
    <connection from=":0_12" to="1o" fromLane="0" toLane="0" dir="s" state="M"/>
    <connection from=":0_13" to="3o" fromLane="0" toLane="0" dir="s" state="M"/>
    <connection from=":0_14" to="2o" fromLane="0" toLane="0" dir="s" state="M"/>
    <connection from=":0_15" to="4o" fromLane="0" toLane="0" dir="s" state="M"/>
    <connection from=":1_0" to="1fi" fromLane="0" toLane="1" dir="s" state="M"/>
    <connection from=":2_0" to="2fi" fromLane="0" toLane="1" dir="s" state="M"/>
    <connection from=":3_0" to="3fi" fromLane="0" toLane="1" dir="s" state="M"/>
    <connection from=":4_0" to="4fi" fromLane="0" toLane="1" dir="s" state="M"/>

</net>
