<?xml version="1.0" encoding="UTF-8"?>

<!-- generated on 2021-09-06 16:02:32 by Eclipse SUMO netedit Version v1_10_0+0525-260671d
<configuration xmlns:xsi="http://www.w3.org/2001/XMLSchema-instance" xsi:noNamespaceSchemaLocation="http://sumo.dlr.de/xsd/netconvertConfiguration.xsd">

    <input>
        <new value="true"/>
    </input>

    <output>
        <output-file value="/localdata2/debug/9090/net.net.xml"/>
        <plain-output-prefix value="/localdata2/debug/9090/input_plain"/>
    </output>

    <processing>
        <offset.disable-normalization value="true"/>
    </processing>

    <report>
        <aggregate-warnings value="5"/>
    </report>

</configuration>
-->

<edges version="1.9" xmlns:xsi="http://www.w3.org/2001/XMLSchema-instance" xsi:noNamespaceSchemaLocation="http://sumo.dlr.de/xsd/edges_file.xsd">
    <edge id="gneE0" from="gneJ0" to="gneJ1" priority="-1" numLanes="3" speed="13.89">
        <lane index="0" allow="bicycle" width="1.00"/>
        <lane index="1"/>
        <lane index="2"/>
    </edge>
    <edge id="gneE1" from="gneJ1" to="gneJ2" priority="-1" numLanes="3" speed="13.89">
        <lane index="0" allow="bicycle" width="1.00"/>
        <lane index="1"/>
        <lane index="2"/>
    </edge>
    <edge id="gneE2" from="gneJ1" to="gneJ3" priority="-1" numLanes="1" speed="13.89"/>
    <edge id="gneE3" from="gneJ1" to="gneJ4" priority="-1" numLanes="1" speed="13.89" allow="bicycle"/>
</edges>
