<?xml version="1.0" encoding="UTF-8"?>

<!-- generated on 2021-09-06 16:02:32 by Eclipse SUMO netedit Version v1_10_0+0525-260671d
<configuration xmlns:xsi="http://www.w3.org/2001/XMLSchema-instance" xsi:noNamespaceSchemaLocation="http://sumo.dlr.de/xsd/netconvertConfiguration.xsd">

    <input>
        <new value="true"/>
    </input>

    <output>
        <output-file value="/localdata2/debug/9090/net.net.xml"/>
        <plain-output-prefix value="/localdata2/debug/9090/input_plain"/>
    </output>

    <processing>
        <offset.disable-normalization value="true"/>
    </processing>

    <report>
        <aggregate-warnings value="5"/>
    </report>

</configuration>
-->

<nodes version="1.9" xmlns:xsi="http://www.w3.org/2001/XMLSchema-instance" xsi:noNamespaceSchemaLocation="http://sumo.dlr.de/xsd/nodes_file.xsd">
    <location netOffset="0.00,0.00" convBoundary="0.00,-100.00,200.00,0.00" origBoundary="10000000000.00,10000000000.00,-10000000000.00,-10000000000.00" projParameter="!"/>

    <node id="gneJ0" x="0.00" y="0.00" type="dead_end"/>
    <node id="gneJ1" x="100.00" y="0.00" type="priority"/>
    <node id="gneJ2" x="200.00" y="0.00" type="dead_end"/>
    <node id="gneJ3" x="100.00" y="-100.00" type="dead_end"/>
    <node id="gneJ4" x="200.00" y="-100.00" type="dead_end"/>
</nodes>
