<?xml version="1.0" encoding="UTF-8"?>

<!-- generated on Wed Jan 22 22:37:05 2020 by Eclipse SUMO Version v1_4_0+0733-c26b5d337c
This data file and the accompanying materials
are made available under the terms of the Eclipse Public License v2.0
which accompanies this distribution, and is available at
http://www.eclipse.org/legal/epl-v20.html
SPDX-License-Identifier: EPL-2.0
<configuration xmlns:xsi="http://www.w3.org/2001/XMLSchema-instance" xsi:noNamespaceSchemaLocation="http://sumo.dlr.de/xsd/sumoConfiguration.xsd">

    <input>
        <net-file value="net2.net.xml"/>
        <additional-files value="input_additional.add.xml"/>
    </input>

    <output>
        <write-license value="true"/>
        <human-readable-time value="true"/>
    </output>

    <time>
        <end value="15:0:0:0"/>
    </time>

    <processing>
        <default.speeddev value="0"/>
    </processing>

    <report>
        <xml-validation value="never"/>
        <duration-log.disable value="true"/>
        <no-step-log value="true"/>
    </report>

</configuration>
-->

<tlsStates xmlns:xsi="http://www.w3.org/2001/XMLSchema-instance" xsi:noNamespaceSchemaLocation="http://sumo.dlr.de/xsd/tlsstates_file.xsd">
    <tlsState time="00:00:00" id="C" programID="mon" phase="0" state="Grrrrrrrrrrrrrrrrrrr"/>
    <tlsState time="24:00:00" id="C" programID="tue" phase="0" state="rGrrrrrrrrrrrrrrrrrr"/>
    <tlsState time="2:00:00:00" id="C" programID="wed" phase="0" state="rrGrrrrrrrrrrrrrrrrr"/>
    <tlsState time="3:00:00:00" id="C" programID="thu" phase="0" state="rrrGrrrrrrrrrrrrrrrr"/>
    <tlsState time="4:00:00:00" id="C" programID="fri" phase="0" state="rrrrGrrrrrrrrrrrrrrr"/>
    <tlsState time="5:00:00:00" id="C" programID="sat" phase="0" state="rrrrrGrrrrrrrrrrrrrr"/>
    <tlsState time="6:00:00:00" id="C" programID="sun" phase="0" state="rrrrrrGrrrrrrrrrrrrr"/>
    <tlsState time="7:00:00:00" id="C" programID="mon" phase="0" state="Grrrrrrrrrrrrrrrrrrr"/>
    <tlsState time="8:00:00:00" id="C" programID="tue" phase="0" state="rGrrrrrrrrrrrrrrrrrr"/>
    <tlsState time="9:00:00:00" id="C" programID="wed" phase="0" state="rrGrrrrrrrrrrrrrrrrr"/>
    <tlsState time="10:00:00:00" id="C" programID="thu" phase="0" state="rrrGrrrrrrrrrrrrrrrr"/>
    <tlsState time="11:00:00:00" id="C" programID="fri" phase="0" state="rrrrGrrrrrrrrrrrrrrr"/>
    <tlsState time="12:00:00:00" id="C" programID="sat" phase="0" state="rrrrrGrrrrrrrrrrrrrr"/>
    <tlsState time="13:00:00:00" id="C" programID="sun" phase="0" state="rrrrrrGrrrrrrrrrrrrr"/>
    <tlsState time="14:00:00:00" id="C" programID="mon" phase="0" state="Grrrrrrrrrrrrrrrrrrr"/>
</tlsStates>
