<routes xmlns:xsi="http://www.w3.org/2001/XMLSchema-instance" xsi:noNamespaceSchemaLocation="http://sumo.dlr.de/xsd/routes_file.xsd">
   <vType id="pseudoPerson" vClass="pedestrian"/>
   <vehicle id="p1" depart="0" type="pseudoPerson">
       <route edges="beg"/>
   </vehicle>
</routes>
