<additional xmlns:xsi="http://www.w3.org/2001/XMLSchema-instance" xsi:noNamespaceSchemaLocation="http://sumo.dlr.de/xsd/additional_file.xsd">

   <e3Detector id="straight" file="detector.xml" nextEdges=":C_7">
       <detEntry lane="SC_0" pos="-20"/>
       <detExit lane="SC_0" pos="-10"/>
   </e3Detector>
   <e3Detector id="right"    file="detector.xml" nextEdges=":C_6">
       <detEntry lane="SC_0" pos="-20"/>
       <detExit lane="SC_0" pos="-10"/>
   </e3Detector>
   <e3Detector id="left"     file="detector.xml" nextEdges=":C_8">
       <detEntry lane="SC_0" pos="-20"/>
       <detExit lane="SC_0" pos="-10"/>
   </e3Detector>

</additional>
