<?xml version="1.0" encoding="UTF-8"?>

<!-- generated on Fri 08 Mar 2013 03:11:41 PM CET by Netedit Version dev-SVN-r13453
<?xml version="1.0" encoding="UTF-8"?>

<configuration xmlns:xsi="http://www.w3.org/2001/XMLSchema-instance" xsi:noNamespaceSchemaLocation="http://sumo-sim.org/xsd/netedit.exeConfiguration.xsd">

    <input>
        <sumo-net-file value="/scr1/erdm_ja/debug/ticket866/debug.net.xml"/>
    </input>

    <output>
        <output-file value="/scr1/erdm_ja/debug/ticket866/small.net.xml"/>
        <plain-output-prefix value="/scr1/erdm_ja/debug/ticket866/input_edges"/>
    </output>

    <processing>
        <no-internal-links value="true"/>
        <no-turnarounds value="true"/>
        <offset.disable-normalization value="true"/>
    </processing>

</configuration>
-->

<nodes version="0.13" xmlns:xsi="http://www.w3.org/2001/XMLSchema-instance" xsi:noNamespaceSchemaLocation="http://sumo-sim.org/xsd/nodes_file.xsd">
    <location netOffset="-357895.14,-5643574.81" convBoundary="0.00,0.00,1062.43,1019.79" origBoundary="6.977606,50.924605,6.993985,50.936346" projParameter="+proj=utm +zone=32 +ellps=WGS84 +datum=WGS84 +units=m +no_defs"/>

    <node id="2159689627" x="318.86" y="414.64" type="unregulated"/>
    <node id="324321646" x="591.43" y="383.49" type="unregulated"/>
    <node id="443238" x="567.03" y="433.03" type="priority"/>
    <node id="cluster_35916474_35916475_443246" x="809.21" y="610.72" type="unregulated"/>
</nodes>
