<?xml version="1.0" encoding="UTF-8"?>

<!-- generated on Wed Apr 20 15:44:40 2016 by SUMO netconvert Version dev-SVN-r20491
<?xml version="1.0" encoding="UTF-8"?>

<configuration xmlns:xsi="http://www.w3.org/2001/XMLSchema-instance" xsi:noNamespaceSchemaLocation="http://sumo.dlr.de/xsd/netconvertConfiguration.xsd">

    <input>
        <node-files value="input_nodes.nod.xml"/>
        <edge-files value="input_edges.edg.xml"/>
    </input>

    <ramp_guessing>
        <ramps.guess value="true"/>
    </ramp_guessing>

    <processing>
        <no-internal-links value="true"/>
    </processing>

    <report>
        <xml-validation value="never"/>
    </report>

</configuration>
-->

<net version="0.27" xmlns:xsi="http://www.w3.org/2001/XMLSchema-instance" xsi:noNamespaceSchemaLocation="http://sumo.dlr.de/xsd/net_file.xsd">

    <location netOffset="-358214.00,-5643940.29" convBoundary="0.00,0.00,490.35,245.24" origBoundary="6.977606,50.924605,6.993985,50.936346" projParameter="+proj=utm +zone=32 +ellps=WGS84 +datum=WGS84 +units=m +no_defs"/>

    <edge id="bug_in_osm_db" from="cluster_35916474_35916475_443246" to="443238" priority="9" spreadType="center" shape="490.02,243.75 472.22,225.80 438.38,192.83 422.32,177.95 405.57,164.02 376.21,141.49 344.54,121.64 320.33,109.04 294.12,95.53 271.94,79.51 246.69,70.50">
        <lane id="bug_in_osm_db_0" index="0" speed="13.89" length="334.11" shape="489.76,245.83 471.06,226.97 437.24,194.03 421.23,179.19 404.54,165.31 375.27,142.85 343.72,123.07 319.57,110.51 293.25,96.94 271.16,80.99 220.91,63.05"/>
        <lane id="bug_in_osm_db_1" index="1" speed="13.89" length="334.11" shape="492.10,243.50 473.38,224.63 439.52,191.63 423.41,176.71 406.60,162.73 377.15,140.13 345.36,120.21 321.09,107.57 294.99,94.12 272.72,78.03 221.93,59.91"/>
    </edge>
    <edge id="exit_with_only_one_lane" from="exit_with_only_one_lane-AddedOnRampNode" to="324321646" priority="10" spreadType="center" shape="340.37,58.76 341.45,57.35 345.11,48.69 346.35,39.52 346.17,31.67 344.86,23.54 341.67,17.30 336.14,10.25 328.81,4.33 314.83,0.45 303.97,0.00 291.35,3.21 280.38,10.06 275.41,19.79">
        <lane id="exit_with_only_one_lane_0" index="0" speed="22.22" length="123.87" shape="341.28,57.57 341.45,57.35 345.11,48.69 346.35,39.52 346.17,31.67 344.86,23.54 341.67,17.30 336.14,10.25 328.81,4.33 314.83,0.45 303.97,0.00 291.35,3.21 280.38,10.06 275.54,19.53"/>
    </edge>
    <edge id="exit_with_only_one_lane-AddedOnRampEdge" from="443238" to="exit_with_only_one_lane-AddedOnRampNode" priority="10" spreadType="center" shape="250.07,61.39 274.34,69.30 294.81,73.18 305.82,73.43 315.53,71.27 324.40,67.69 331.22,62.80 336.56,55.84">
        <lane id="exit_with_only_one_lane-AddedOnRampEdge_0" index="0" speed="22.22" length="131.28" shape="225.73,48.25 275.57,64.50 295.33,68.24 305.33,68.47 314.06,66.53 322.00,63.32 327.74,59.21 331.72,54.02"/>
        <lane id="exit_with_only_one_lane-AddedOnRampEdge_1" index="1" speed="22.22" length="131.28" shape="224.71,51.38 274.75,67.70 294.99,71.53 305.65,71.77 315.04,69.69 323.60,66.24 330.06,61.61 334.34,56.02"/>
        <lane id="exit_with_only_one_lane-AddedOnRampEdge_2" index="2" speed="22.22" length="131.28" shape="223.69,54.52 273.92,70.90 294.64,74.83 305.98,75.08 316.02,72.85 325.20,69.15 332.38,64.00 336.96,58.03"/>
        <lane id="exit_with_only_one_lane-AddedOnRampEdge_3" index="3" speed="22.22" length="131.28" shape="222.67,57.66 273.10,74.11 294.29,78.12 306.30,78.39 317.00,76.01 326.80,72.06 334.71,66.40 339.58,60.04"/>
    </edge>
    <edge id="motorway" from="2159689627" to="443238" priority="9" spreadType="center" shape="0.00,49.16 60.99,48.56 139.39,50.79 190.61,56.09 219.76,60.90 251.60,56.68">
        <lane id="motorway_0" index="0" speed="13.89" length="221.70" shape="-0.02,47.51 61.01,46.91 139.50,49.14 190.83,54.45 216.88,58.75"/>
        <lane id="motorway_1" index="1" speed="13.89" length="221.70" shape="0.02,50.81 60.97,50.21 139.28,52.44 190.39,57.73 217.31,62.17"/>
    </edge>

    <junction id="2159689627" type="unregulated" x="0.00" y="49.16" incLanes="" intLanes="" shape="0.03,52.41 -0.03,45.91"/>
    <junction id="324321646" type="unregulated" x="272.57" y="18.01" incLanes="exit_with_only_one_lane_0" intLanes="" shape="276.97,20.26 274.12,18.80"/>
    <junction id="443238" type="priority" x="248.17" y="67.55" incLanes="bug_in_osm_db_0 bug_in_osm_db_1 motorway_0 motorway_1" intLanes="" shape="220.42,64.57 226.22,46.72 216.67,57.10 217.52,63.82">
        <request index="0" response="0000" foes="0000"/>
        <request index="1" response="0000" foes="0000"/>
        <request index="2" response="0000" foes="0000"/>
        <request index="3" response="0000" foes="0000"/>
    </junction>
    <junction id="cluster_35916474_35916475_443246" type="unregulated" x="490.35" y="245.24" incLanes="" intLanes="" shape="493.24,242.38 488.62,246.95"/>
    <junction id="exit_with_only_one_lane-AddedOnRampNode" type="priority" x="340.37" y="58.76" incLanes="exit_with_only_one_lane-AddedOnRampEdge_0 exit_with_only_one_lane-AddedOnRampEdge_1 exit_with_only_one_lane-AddedOnRampEdge_2 exit_with_only_one_lane-AddedOnRampEdge_3" intLanes="" shape="342.56,58.54 340.01,56.59 330.45,53.04 340.85,61.01">
        <request index="0" response="0" foes="0"/>
    </junction>

    <connection from="bug_in_osm_db" to="exit_with_only_one_lane-AddedOnRampEdge" fromLane="0" toLane="2" pass="1" dir="t" state="M"/>
    <connection from="bug_in_osm_db" to="exit_with_only_one_lane-AddedOnRampEdge" fromLane="1" toLane="3" pass="1" dir="t" state="M"/>
    <connection from="exit_with_only_one_lane-AddedOnRampEdge" to="exit_with_only_one_lane" fromLane="3" toLane="0" dir="s" state="M"/>
    <connection from="motorway" to="exit_with_only_one_lane-AddedOnRampEdge" fromLane="0" toLane="0" pass="1" dir="s" state="M"/>
    <connection from="motorway" to="exit_with_only_one_lane-AddedOnRampEdge" fromLane="1" toLane="1" pass="1" dir="s" state="M"/>

</net>
