<?xml version="1.0" encoding="UTF-8"?>

<additional xmlns:xsi="http://www.w3.org/2001/XMLSchema-instance" xsi:noNamespaceSchemaLocation="http://sumo.dlr.de/xsd/additional_file.xsd">
    <route id="alternative" edges="3fi 3si 4o"/>
    <rerouter id="rerouter_0" edges="3fi" pos="319.43,481.28">
		<interval begin="0" end="86400">
            <routeProbReroute id="alternative"/>
        </interval>
    </rerouter>
</additional>
