<?xml version="1.0"?>

<!-- generated on 09/10/07 12:12:00 by SUMO duarouter Version 0.9.6
<configuration>

   <input>
      <net-file>input_net.net.xml</net-file>
      <flow-definition>input_flows.flows.xml</flow-definition>
   </input>

   <output>
      <output-file>routes.rou.xml</output-file>
   </output>

</configuration>
-->

<routes>
   <vehicle id="0_0" depart="1">
      <route>beg middle end rend</route>
   </vehicle>
   <vehicle id="0_1" depart="3">
      <route>beg middle end rend</route>
   </vehicle>
   <vehicle id="0_2" depart="5">
      <route>beg middle end rend</route>
   </vehicle>
   <vehicle id="0_3" depart="7">
      <route>beg middle end rend</route>
   </vehicle>
   <vehicle id="0_4" depart="9">
      <route>beg middle end rend</route>
   </vehicle>
   <vehicle id="0_5" depart="11">
      <route>beg middle end rend</route>
   </vehicle>
   <vehicle id="0_6" depart="13">
      <route>beg middle end rend</route>
   </vehicle>
   <vehicle id="0_7" depart="15">
      <route>beg middle end rend</route>
   </vehicle>
   <vehicle id="0_8" depart="17">
      <route>beg middle end rend</route>
   </vehicle>
   <vehicle id="0_9" depart="19">
      <route>beg middle end rend</route>
   </vehicle>
   <vehicle id="0_10" depart="21">
      <route>beg middle end rend</route>
   </vehicle>
   <vehicle id="0_11" depart="23">
      <route>beg middle end rend</route>
   </vehicle>
   <vehicle id="0_12" depart="25">
      <route>beg middle end rend</route>
   </vehicle>
   <vehicle id="0_13" depart="27">
      <route>beg middle end rend</route>
   </vehicle>
   <vehicle id="0_14" depart="29">
      <route>beg middle end rend</route>
   </vehicle>
   <vehicle id="0_15" depart="31">
      <route>beg middle end rend</route>
   </vehicle>
   <vehicle id="0_16" depart="33">
      <route>beg middle end rend</route>
   </vehicle>
   <vehicle id="0_17" depart="35">
      <route>beg middle end rend</route>
   </vehicle>
   <vehicle id="0_18" depart="37">
      <route>beg middle end rend</route>
   </vehicle>
   <vehicle id="0_19" depart="39">
      <route>beg middle end rend</route>
   </vehicle>
   <vehicle id="0_20" depart="41">
      <route>beg middle end rend</route>
   </vehicle>
   <vehicle id="0_21" depart="43">
      <route>beg middle end rend</route>
   </vehicle>
   <vehicle id="0_22" depart="45">
      <route>beg middle end rend</route>
   </vehicle>
   <vehicle id="0_23" depart="47">
      <route>beg middle end rend</route>
   </vehicle>
   <vehicle id="0_24" depart="49">
      <route>beg middle end rend</route>
   </vehicle>
   <vehicle id="0_25" depart="51">
      <route>beg middle end rend</route>
   </vehicle>
   <vehicle id="0_26" depart="53">
      <route>beg middle end rend</route>
   </vehicle>
   <vehicle id="0_27" depart="55">
      <route>beg middle end rend</route>
   </vehicle>
   <vehicle id="0_28" depart="57">
      <route>beg middle end rend</route>
   </vehicle>
   <vehicle id="0_29" depart="59">
      <route>beg middle end rend</route>
   </vehicle>
   <vehicle id="0_30" depart="61">
      <route>beg middle end rend</route>
   </vehicle>
   <vehicle id="0_31" depart="63">
      <route>beg middle end rend</route>
   </vehicle>
   <vehicle id="0_32" depart="65">
      <route>beg middle end rend</route>
   </vehicle>
   <vehicle id="0_33" depart="67">
      <route>beg middle end rend</route>
   </vehicle>
   <vehicle id="0_34" depart="69">
      <route>beg middle end rend</route>
   </vehicle>
   <vehicle id="0_35" depart="71">
      <route>beg middle end rend</route>
   </vehicle>
   <vehicle id="0_36" depart="73">
      <route>beg middle end rend</route>
   </vehicle>
   <vehicle id="0_37" depart="75">
      <route>beg middle end rend</route>
   </vehicle>
   <vehicle id="0_38" depart="77">
      <route>beg middle end rend</route>
   </vehicle>
   <vehicle id="0_39" depart="79">
      <route>beg middle end rend</route>
   </vehicle>
   <vehicle id="0_40" depart="81">
      <route>beg middle end rend</route>
   </vehicle>
   <vehicle id="0_41" depart="83">
      <route>beg middle end rend</route>
   </vehicle>
   <vehicle id="0_42" depart="85">
      <route>beg middle end rend</route>
   </vehicle>
   <vehicle id="0_43" depart="87">
      <route>beg middle end rend</route>
   </vehicle>
   <vehicle id="0_44" depart="89">
      <route>beg middle end rend</route>
   </vehicle>
   <vehicle id="0_45" depart="91">
      <route>beg middle end rend</route>
   </vehicle>
   <vehicle id="0_46" depart="93">
      <route>beg middle end rend</route>
   </vehicle>
   <vehicle id="0_47" depart="95">
      <route>beg middle end rend</route>
   </vehicle>
   <vehicle id="0_48" depart="97">
      <route>beg middle end rend</route>
   </vehicle>
   <vehicle id="0_49" depart="99">
      <route>beg middle end rend</route>
   </vehicle>
   <vehicle id="0_50" depart="101">
      <route>beg middle end rend</route>
   </vehicle>
   <vehicle id="0_51" depart="103">
      <route>beg middle end rend</route>
   </vehicle>
   <vehicle id="0_52" depart="105">
      <route>beg middle end rend</route>
   </vehicle>
   <vehicle id="0_53" depart="107">
      <route>beg middle end rend</route>
   </vehicle>
   <vehicle id="0_54" depart="109">
      <route>beg middle end rend</route>
   </vehicle>
   <vehicle id="0_55" depart="111">
      <route>beg middle end rend</route>
   </vehicle>
   <vehicle id="0_56" depart="113">
      <route>beg middle end rend</route>
   </vehicle>
   <vehicle id="0_57" depart="115">
      <route>beg middle end rend</route>
   </vehicle>
   <vehicle id="0_58" depart="117">
      <route>beg middle end rend</route>
   </vehicle>
   <vehicle id="0_59" depart="119">
      <route>beg middle end rend</route>
   </vehicle>
   <vehicle id="0_60" depart="121">
      <route>beg middle end rend</route>
   </vehicle>
   <vehicle id="0_61" depart="123">
      <route>beg middle end rend</route>
   </vehicle>
   <vehicle id="0_62" depart="125">
      <route>beg middle end rend</route>
   </vehicle>
   <vehicle id="0_63" depart="127">
      <route>beg middle end rend</route>
   </vehicle>
   <vehicle id="0_64" depart="129">
      <route>beg middle end rend</route>
   </vehicle>
   <vehicle id="0_65" depart="131">
      <route>beg middle end rend</route>
   </vehicle>
   <vehicle id="0_66" depart="133">
      <route>beg middle end rend</route>
   </vehicle>
   <vehicle id="0_67" depart="135">
      <route>beg middle end rend</route>
   </vehicle>
   <vehicle id="0_68" depart="137">
      <route>beg middle end rend</route>
   </vehicle>
   <vehicle id="0_69" depart="139">
      <route>beg middle end rend</route>
   </vehicle>
   <vehicle id="0_70" depart="141">
      <route>beg middle end rend</route>
   </vehicle>
   <vehicle id="0_71" depart="143">
      <route>beg middle end rend</route>
   </vehicle>
   <vehicle id="0_72" depart="145">
      <route>beg middle end rend</route>
   </vehicle>
   <vehicle id="0_73" depart="147">
      <route>beg middle end rend</route>
   </vehicle>
   <vehicle id="0_74" depart="149">
      <route>beg middle end rend</route>
   </vehicle>
   <vehicle id="0_75" depart="151">
      <route>beg middle end rend</route>
   </vehicle>
   <vehicle id="0_76" depart="153">
      <route>beg middle end rend</route>
   </vehicle>
   <vehicle id="0_77" depart="155">
      <route>beg middle end rend</route>
   </vehicle>
   <vehicle id="0_78" depart="157">
      <route>beg middle end rend</route>
   </vehicle>
   <vehicle id="0_79" depart="159">
      <route>beg middle end rend</route>
   </vehicle>
   <vehicle id="0_80" depart="161">
      <route>beg middle end rend</route>
   </vehicle>
   <vehicle id="0_81" depart="163">
      <route>beg middle end rend</route>
   </vehicle>
   <vehicle id="0_82" depart="165">
      <route>beg middle end rend</route>
   </vehicle>
   <vehicle id="0_83" depart="167">
      <route>beg middle end rend</route>
   </vehicle>
   <vehicle id="0_84" depart="169">
      <route>beg middle end rend</route>
   </vehicle>
   <vehicle id="0_85" depart="171">
      <route>beg middle end rend</route>
   </vehicle>
   <vehicle id="0_86" depart="173">
      <route>beg middle end rend</route>
   </vehicle>
   <vehicle id="0_87" depart="175">
      <route>beg middle end rend</route>
   </vehicle>
   <vehicle id="0_88" depart="177">
      <route>beg middle end rend</route>
   </vehicle>
   <vehicle id="0_89" depart="179">
      <route>beg middle end rend</route>
   </vehicle>
   <vehicle id="0_90" depart="181">
      <route>beg middle end rend</route>
   </vehicle>
   <vehicle id="0_91" depart="183">
      <route>beg middle end rend</route>
   </vehicle>
   <vehicle id="0_92" depart="185">
      <route>beg middle end rend</route>
   </vehicle>
   <vehicle id="0_93" depart="187">
      <route>beg middle end rend</route>
   </vehicle>
   <vehicle id="0_94" depart="189">
      <route>beg middle end rend</route>
   </vehicle>
   <vehicle id="0_95" depart="191">
      <route>beg middle end rend</route>
   </vehicle>
   <vehicle id="0_96" depart="193">
      <route>beg middle end rend</route>
   </vehicle>
   <vehicle id="0_97" depart="195">
      <route>beg middle end rend</route>
   </vehicle>
   <vehicle id="0_98" depart="197">
      <route>beg middle end rend</route>
   </vehicle>
   <vehicle id="0_99" depart="199">
      <route>beg middle end rend</route>
   </vehicle>
</routes>
