<configuration xmlns:xsi="http://www.w3.org/2001/XMLSchema-instance" xsi:noNamespaceSchemaLocation="http://sumo.dlr.de/xsd/sumoConfiguration.xsd">

    <input>
        <net-file value="input_net.net.xml"/>
        <route-files value="input_routes.rou.xml"/>
    </input>

    <report>
        <duration-log.disable value="true"/>
        <no-step-log value="true"/>
        <message-log value="lastrun.stdout"/>
        <error-log value="lastrun.stderr"/>
    </report>

</configuration>
