<?xml version="1.0" encoding="UTF-8"?>

<!-- generated on wto, 25 sie 2020, 20:47:07 by Eclipse SUMO netedit Version 1.5.0
<configuration xmlns:xsi="http://www.w3.org/2001/XMLSchema-instance" xsi:noNamespaceSchemaLocation="http://sumo.dlr.de/xsd/netconvertConfiguration.xsd">

    <output>
        <output-file value="/home/damiano/workspace/intersection-manager/configs/simple/simple.net.xml"/>
    </output>

    <processing>
        <offset.disable-normalization value="true"/>
    </processing>

    <junctions>
        <no-turnarounds value="true"/>
    </junctions>

    <netedit>
        <route-files value="/home/damiano/workspace/intersection-manager/configs/simple/simple.rou.xml"/>
    </netedit>

    <report>
        <aggregate-warnings value="5"/>
    </report>

</configuration>
-->

<routes xmlns:xsi="http://www.w3.org/2001/XMLSchema-instance" xsi:noNamespaceSchemaLocation="http://sumo.dlr.de/xsd/routes_file.xsd">
    <route edges="gneE0 gneE3" color="yellow" id="route_0"/>
    <route edges="gneE0 gneE1" color="red" id="route_1"/>
    <vehicle id="vehicle_0" departSpeed="10" route="route_0" depart="0.00" />
    <vehicle id="vehicle_1" departSpeed="max" route="route_1" depart="0.00" />
</routes>
