<?xml version="1.0" encoding="UTF-8"?>

<!-- generated on nie, 20 wrz 2020, 19:29:22 by Eclipse SUMO netedit Version 1.5.0
<configuration xmlns:xsi="http://www.w3.org/2001/XMLSchema-instance" xsi:noNamespaceSchemaLocation="http://sumo.dlr.de/xsd/netconvertConfiguration.xsd">

    <input>
        <sumo-net-file value="/home/damiano/workspace/intersection-manager-qt/IntersectionManager/configs/simple/simple.net.xml"/>
    </input>

    <output>
        <output-file value="/home/damiano/workspace/intersection-manager-qt/IntersectionManager/configs/simple/simple_tls.net.xml"/>
    </output>

    <processing>
        <geometry.min-radius.fix.railways value="false"/>
        <geometry.max-grade.fix value="false"/>
        <offset.disable-normalization value="true"/>
        <lefthand value="false"/>
    </processing>

    <junctions>
        <no-turnarounds value="true"/>
        <junctions.corner-detail value="5"/>
        <junctions.limit-turn-speed value="5.5"/>
        <rectangular-lane-cut value="false"/>
    </junctions>

    <pedestrian>
        <walkingareas value="false"/>
    </pedestrian>

    <report>
        <aggregate-warnings value="5"/>
    </report>

</configuration>
-->

<net version="1.3" junctionCornerDetail="5" limitTurnSpeed="5.50" xmlns:xsi="http://www.w3.org/2001/XMLSchema-instance" xsi:noNamespaceSchemaLocation="http://sumo.dlr.de/xsd/net_file.xsd">

    <location netOffset="0.00,0.00" convBoundary="-90.26,-79.04,316.05,219.07" origBoundary="-10000000000.00,-10000000000.00,10000000000.00,10000000000.00" projParameter="!"/>

    <edge id=":gneJ1_0" function="internal">
        <lane id=":gneJ1_0_0" index="0" speed="13.89" length="11.25" shape="106.83,82.14 106.65,70.89"/>
    </edge>
    <edge id=":gneJ1_1" function="internal">
        <lane id=":gneJ1_1_0" index="0" speed="6.45" length="9.03" shape="106.83,82.14 107.12,79.67 108.12,77.91 109.86,76.85 112.32,76.49"/>
    </edge>
    <edge id=":gneJ1_2" function="internal">
        <lane id=":gneJ1_2_0" index="0" speed="6.49" length="9.03" shape="101.09,76.52 103.54,76.16 105.29,75.11 106.32,73.35 106.65,70.89"/>
    </edge>
    <edge id=":gneJ1_3" function="internal">
        <lane id=":gneJ1_3_0" index="0" speed="13.89" length="11.22" shape="101.09,76.52 112.32,76.49"/>
    </edge>

    <edge id="gneE0" from="gneJ0" to="gneJ1" priority="-1">
        <lane id="gneE0_0" index="0" speed="13.89" length="191.36" shape="-90.26,77.11 101.09,76.52"/>
    </edge>
    <edge id="gneE1" from="gneJ1" to="gneJ3" priority="-1">
        <lane id="gneE1_0" index="0" speed="13.89" length="203.73" shape="112.32,76.49 316.05,76.14"/>
    </edge>
    <edge id="gneE2" from="gneJ4" to="gneJ1" priority="-1">
        <lane id="gneE2_0" index="0" speed="13.89" length="137.03" shape="110.66,219.11 106.83,82.14"/>
    </edge>
    <edge id="gneE3" from="gneJ1" to="gneJ5" priority="-1">
        <lane id="gneE3_0" index="0" speed="13.89" length="149.93" shape="106.65,70.89 105.16,-79.02"/>
    </edge>

    <tlLogic id="gneJ1" type="static" programID="0" offset="0">
        <phase duration="42" state="GGrr"/>
        <phase duration="3"  state="yyrr"/>
        <phase duration="42" state="rrGG"/>
        <phase duration="3"  state="rryy"/>
    </tlLogic>

    <junction id="gneJ0" type="dead_end" x="-90.26" y="78.71" incLanes="" intLanes="" shape="-90.26,78.71 -90.27,75.51"/>
    <junction id="gneJ1" type="traffic_light" x="108.32" y="78.10" incLanes="gneE2_0 gneE0_0" intLanes=":gneJ1_0_0 :gneJ1_1_0 :gneJ1_2_0 :gneJ1_3_0" shape="105.23,82.19 108.43,82.10 108.81,79.88 109.35,79.10 110.11,78.54 111.10,78.21 112.32,78.09 112.31,74.89 110.07,74.45 109.28,73.89 108.72,73.11 108.37,72.11 108.25,70.88 105.05,70.91 104.63,73.13 104.08,73.91 103.31,74.47 102.31,74.81 101.09,74.92 101.10,78.12 103.34,78.57 104.14,79.13 104.72,79.92 105.09,80.94">
        <request index="0" response="1100" foes="1100" cont="0"/>
        <request index="1" response="1000" foes="1000" cont="0"/>
        <request index="2" response="0000" foes="0001" cont="0"/>
        <request index="3" response="0000" foes="0011" cont="0"/>
    </junction>
    <junction id="gneJ3" type="dead_end" x="316.05" y="77.74" incLanes="gneE1_0" intLanes="" shape="316.04,74.54 316.05,77.74"/>
    <junction id="gneJ4" type="dead_end" x="112.26" y="219.07" incLanes="" intLanes="" shape="112.26,219.07 109.06,219.16"/>
    <junction id="gneJ5" type="dead_end" x="106.76" y="-79.04" incLanes="gneE3_0" intLanes="" shape="103.56,-79.01 106.76,-79.04"/>

    <connection from="gneE0" to="gneE3" fromLane="0" toLane="0" via=":gneJ1_2_0" tl="gneJ1" linkIndex="2" dir="r" state="O"/>
    <connection from="gneE0" to="gneE1" fromLane="0" toLane="0" via=":gneJ1_3_0" tl="gneJ1" linkIndex="3" dir="s" state="O"/>
    <connection from="gneE2" to="gneE3" fromLane="0" toLane="0" via=":gneJ1_0_0" tl="gneJ1" linkIndex="0" dir="s" state="o"/>
    <connection from="gneE2" to="gneE1" fromLane="0" toLane="0" via=":gneJ1_1_0" tl="gneJ1" linkIndex="1" dir="l" state="o"/>

    <connection from=":gneJ1_0" to="gneE3" fromLane="0" toLane="0" dir="s" state="M"/>
    <connection from=":gneJ1_1" to="gneE1" fromLane="0" toLane="0" dir="l" state="M"/>
    <connection from=":gneJ1_2" to="gneE3" fromLane="0" toLane="0" dir="r" state="M"/>
    <connection from=":gneJ1_3" to="gneE1" fromLane="0" toLane="0" dir="s" state="M"/>

</net>
