<?xml version="1.0" encoding="UTF-8"?>

<!-- generated on 2026-03-06 09:07:45.188538 by Eclipse SUMO countEdgeUsage.py v1_26_0+0470-b03bdd44452
<configuration>
    <output-file value="out.rou.xml"/>
    <intermediate value="True"/>
    <taz value="True"/>
    <routefiles value="routes.rou.xml"/>
</configuration>
-->

<edgedata xmlns:xsi="http://www.w3.org/2001/XMLSchema-instance" xsi:noNamespaceSchemaLocation="http://sumo.dlr.de/xsd/edgedata_file.xsd">
    <interval begin="0.0" end="4.0" id="routeStats">
        <edge id="a" departed="0" arrived="0" delta="0" intermediate="1"/>
        <edge id="b" departed="0" arrived="0" delta="0" intermediate="1"/>
        <edge id="c" departed="0" arrived="0" delta="0" intermediate="2"/>
        <edge id="d" departed="0" arrived="0" delta="0" intermediate="1"/>
        <edge id="e" departed="0" arrived="0" delta="0" intermediate="1"/>
        <edge id="f" departed="0" arrived="0" delta="0" intermediate="1"/>
        <edge id="g" departed="0" arrived="0" delta="0" intermediate="1"/>
        <edge id="t0" departed="2" arrived="0" delta="-2" intermediate="0"/>
        <edge id="t1" departed="0" arrived="1" delta="1" intermediate="0"/>
        <edge id="t2" departed="0" arrived="1" delta="1" intermediate="0"/>
        <edge id="t3" departed="1" arrived="0" delta="-1" intermediate="0"/>
        <edge id="t4" departed="0" arrived="1" delta="1" intermediate="0"/>
        <edge id="t5" departed="10" arrived="0" delta="-10" intermediate="0"/>
        <edge id="t6" departed="0" arrived="10" delta="10" intermediate="0"/>
    </interval>
</edgedata>
