<additional xmlns:xsi="http://www.w3.org/2001/XMLSchema-instance" xsi:noNamespaceSchemaLocation="http://sumo.dlr.de/xsd/additional_file.xsd">
    <rerouter id="rerouter_0" edges="gneE0 gneE1" pos="0.00,10.00">
        <interval begin="0.00" end="3600.00">

            <closingLaneReroute id="gneE0_0"/>

        </interval>
    </rerouter>
</additional>
