<?xml version="1.0" encoding="UTF-8"?>

<!-- generated on Tue Apr 22 15:17:31 2014 by SUMO netconvert Version dev-SVN-r16224
<?xml version="1.0" encoding="UTF-8"?>

<configuration xmlns:xsi="http://www.w3.org/2001/XMLSchema-instance" xsi:noNamespaceSchemaLocation="http://sumo.dlr.de/xsd/netconvertConfiguration.xsd">

    <input>
        <node-files value="input_plain.nod.xml"/>
        <edge-files value="input_plain.edg.xml"/>
    </input>

    <output>
        <output-file value="net1.net.xml"/>
    </output>

    <processing>
        <no-turnarounds value="true"/>
    </processing>

</configuration>
-->

<net version="0.13" xmlns:xsi="http://www.w3.org/2001/XMLSchema-instance" xsi:noNamespaceSchemaLocation="http://sumo.dlr.de/xsd/net_file.xsd">

    <location netOffset="100.00,100.00" convBoundary="0.00,0.00,200.00,200.00" origBoundary="-10000000000.00,-10000000000.00,10000000000.00,10000000000.00" projParameter="!"/>

    <edge id=":C_0" function="internal">
        <lane id=":C_0_0" index="0" allow="passenger" speed="13.89" length="5.00" shape="95.05,108.05 94.86,106.69 94.28,105.72 93.31,105.14 91.95,104.95"/>
    </edge>
    <edge id=":C_1" function="internal">
        <lane id=":C_1_0" index="0" allow="passenger" speed="13.89" length="16.10" shape="95.05,108.05 95.05,103.27 95.05,100.00 95.05,96.73 95.05,91.95"/>
        <lane id=":C_1_1" index="1" allow="passenger" speed="13.89" length="16.10" shape="98.35,108.05 98.35,103.27 98.35,100.00 98.35,96.73 98.35,91.95"/>
    </edge>
    <edge id=":C_3" function="internal">
        <lane id=":C_3_0" index="0" allow="passenger" speed="13.89" length="6.80" shape="98.35,108.05 98.96,103.81 100.25,101.65"/>
    </edge>
    <edge id=":C_14" function="internal">
        <lane id=":C_14_0" index="0" speed="13.89" length="8.84" shape="100.25,101.65 100.77,100.78 103.81,98.96 108.05,98.35"/>
    </edge>
    <edge id=":C_4" function="internal">
        <lane id=":C_4_0" index="0" allow="passenger" speed="13.89" length="5.00" shape="108.05,104.95 106.69,105.14 105.72,105.72 105.14,106.69 104.95,108.05"/>
    </edge>
    <edge id=":C_5" function="internal">
        <lane id=":C_5_0" index="0" allow="passenger" speed="13.89" length="16.10" shape="108.05,101.65 103.27,101.65 100.00,101.65 96.73,101.65 91.95,101.65"/>
    </edge>
    <edge id=":C_6" function="internal">
        <lane id=":C_6_0" index="0" allow="passenger" speed="13.89" length="3.13" shape="108.05,101.65 104.95,101.21"/>
    </edge>
    <edge id=":C_15" function="internal">
        <lane id=":C_15_0" index="0" speed="13.89" length="12.51" shape="104.95,101.21 103.81,101.04 100.78,99.23 98.96,96.19 98.35,91.95"/>
    </edge>
    <edge id=":C_7" function="internal">
        <lane id=":C_7_0" index="0" allow="passenger" speed="13.89" length="5.00" shape="104.95,91.95 105.14,93.31 105.72,94.28 106.69,94.86 108.05,95.05"/>
    </edge>
    <edge id=":C_8" function="internal">
        <lane id=":C_8_0" index="0" allow="passenger" speed="13.89" length="16.10" shape="104.95,91.95 104.95,96.73 104.95,100.00 104.95,103.27 104.95,108.05"/>
        <lane id=":C_8_1" index="1" allow="passenger" speed="13.89" length="16.10" shape="101.65,91.95 101.65,96.73 101.65,100.00 101.65,103.27 101.65,108.05"/>
    </edge>
    <edge id=":C_10" function="internal">
        <lane id=":C_10_0" index="0" allow="passenger" speed="13.89" length="6.80" shape="101.65,91.95 101.04,96.19 99.75,98.35"/>
    </edge>
    <edge id=":C_16" function="internal">
        <lane id=":C_16_0" index="0" speed="13.89" length="8.84" shape="99.75,98.35 99.23,99.22 96.19,101.04 91.95,101.65"/>
    </edge>
    <edge id=":C_11" function="internal">
        <lane id=":C_11_0" index="0" allow="passenger" speed="13.89" length="5.00" shape="91.95,95.05 93.31,94.86 94.28,94.28 94.86,93.31 95.05,91.95"/>
    </edge>
    <edge id=":C_12" function="internal">
        <lane id=":C_12_0" index="0" allow="passenger" speed="13.89" length="16.10" shape="91.95,98.35 96.73,98.35 100.00,98.35 103.27,98.35 108.05,98.35"/>
    </edge>
    <edge id=":C_13" function="internal">
        <lane id=":C_13_0" index="0" allow="passenger" speed="13.89" length="3.13" shape="91.95,98.35 95.05,98.79"/>
    </edge>
    <edge id=":C_17" function="internal">
        <lane id=":C_17_0" index="0" speed="13.89" length="12.51" shape="95.05,98.79 96.19,98.96 99.22,100.77 101.04,103.81 101.65,108.05"/>
    </edge>

    <edge id="CE" from="C" to="E" priority="2">
        <lane id="CE_0" index="0" allow="passenger" speed="13.89" length="91.95" shape="108.05,95.05 200.00,95.05"/>
        <lane id="CE_1" index="1" allow="passenger" speed="13.89" length="91.95" shape="108.05,98.35 200.00,98.35"/>
    </edge>
    <edge id="CN" from="C" to="N" priority="2">
        <lane id="CN_0" index="0" allow="passenger" speed="13.89" length="91.95" shape="104.95,108.05 104.95,200.00"/>
        <lane id="CN_1" index="1" allow="passenger" speed="13.89" length="91.95" shape="101.65,108.05 101.65,200.00"/>
    </edge>
    <edge id="CS" from="C" to="S" priority="2">
        <lane id="CS_0" index="0" allow="passenger" speed="13.89" length="91.95" shape="95.05,91.95 95.05,0.00"/>
        <lane id="CS_1" index="1" allow="passenger" speed="13.89" length="91.95" shape="98.35,91.95 98.35,0.00"/>
    </edge>
    <edge id="CW" from="C" to="W" priority="2">
        <lane id="CW_0" index="0" allow="passenger" speed="13.89" length="91.95" shape="91.95,104.95 0.00,104.95"/>
        <lane id="CW_1" index="1" allow="passenger" speed="13.89" length="91.95" shape="91.95,101.65 0.00,101.65"/>
    </edge>
    <edge id="EC" from="E" to="C" priority="2">
        <lane id="EC_0" index="0" allow="passenger" speed="13.89" length="91.95" shape="200.00,104.95 108.05,104.95"/>
        <lane id="EC_1" index="1" allow="passenger" speed="13.89" length="91.95" shape="200.00,101.65 108.05,101.65"/>
    </edge>
    <edge id="NC" from="N" to="C" priority="2">
        <lane id="NC_0" index="0" allow="passenger" speed="13.89" length="91.95" shape="95.05,200.00 95.05,108.05"/>
        <lane id="NC_1" index="1" allow="passenger" speed="13.89" length="91.95" shape="98.35,200.00 98.35,108.05"/>
    </edge>
    <edge id="SC" from="S" to="C" priority="2">
        <lane id="SC_0" index="0" allow="passenger" speed="13.89" length="91.95" shape="104.95,0.00 104.95,91.95"/>
        <lane id="SC_1" index="1" allow="passenger" speed="13.89" length="91.95" shape="101.65,0.00 101.65,91.95"/>
    </edge>
    <edge id="WC" from="W" to="C" priority="2">
        <lane id="WC_0" index="0" allow="passenger" speed="13.89" length="91.95" shape="0.00,95.05 91.95,95.05"/>
        <lane id="WC_1" index="1" allow="passenger" speed="13.89" length="91.95" shape="0.00,98.35 91.95,98.35"/>
    </edge>

    <tlLogic id="C" type="static" programID="0" offset="0">
        <phase duration="31" state="GGGgrrrGGGgrrr"/>
        <phase duration="4" state="yyygrrryyygrrr"/>
        <phase duration="6" state="rrrGrrrrrrGrrr"/>
        <phase duration="4" state="rrryrrrrrryrrr"/>
        <phase duration="31" state="rrrrGGgrrrrGGg"/>
        <phase duration="4" state="rrrryygrrrryyg"/>
        <phase duration="6" state="rrrrrrGrrrrrrG"/>
        <phase duration="4" state="rrrrrryrrrrrry"/>
    </tlLogic>

    <junction id="C" type="traffic_light" x="100.00" y="100.00" incLanes="NC_0 NC_1 EC_0 EC_1 SC_0 SC_1 WC_0 WC_1" intLanes=":C_0_0 :C_1_0 :C_1_1 :C_14_0 :C_4_0 :C_5_0 :C_15_0 :C_7_0 :C_8_0 :C_8_1 :C_16_0 :C_11_0 :C_12_0 :C_17_0" shape="93.45,108.05 106.55,108.05 108.05,106.55 108.05,93.45 106.55,91.95 93.45,91.95 91.95,93.45 91.95,106.55">
        <request index="0" response="00000000000000" foes="00010000100000" cont="0"/>
        <request index="1" response="00000000000000" foes="11110001100000" cont="0"/>
        <request index="2" response="00000000000000" foes="11110001100000" cont="0"/>
        <request index="3" response="00001110000000" foes="11001111100000" cont="1"/>
        <request index="4" response="00001100000000" foes="10001100000000" cont="0"/>
        <request index="5" response="00011100001111" foes="10011100001111" cont="0"/>
        <request index="6" response="01111100001110" foes="01111100001110" cont="1"/>
        <request index="7" response="00000000000000" foes="01000000001000" cont="0"/>
        <request index="8" response="00000000000000" foes="11000001111000" cont="0"/>
        <request index="9" response="00000000000000" foes="11000001111000" cont="0"/>
        <request index="10" response="00000000000111" foes="11000001100111" cont="1"/>
        <request index="11" response="00000000000110" foes="00000001000110" cont="0"/>
        <request index="12" response="00011110001110" foes="00011111001110" cont="0"/>
        <request index="13" response="00011100111110" foes="00011100111110" cont="1"/>
    </junction>
    <junction id="E" type="dead_end" x="200.00" y="100.00" incLanes="CE_0 CE_1" intLanes="" shape="200.00,100.05 200.00,106.55 200.00,93.45 200.00,99.95"/>
    <junction id="N" type="dead_end" x="100.00" y="200.00" incLanes="CN_0 CN_1" intLanes="" shape="99.95,200.00 93.45,200.00 106.55,200.00 100.05,200.00"/>
    <junction id="S" type="dead_end" x="100.00" y="0.00" incLanes="CS_0 CS_1" intLanes="" shape="100.05,-0.00 106.55,-0.00 93.45,0.00 99.95,0.00"/>
    <junction id="W" type="dead_end" x="0.00" y="100.00" incLanes="CW_0 CW_1" intLanes="" shape="-0.00,99.95 -0.00,93.45 0.00,106.55 0.00,100.05"/>

    <junction id=":C_14_0" type="internal" x="100.25" y="101.65" incLanes=":C_3_0 SC_0 SC_1" intLanes=":C_5_0 :C_6_0 :C_7_0 :C_8_0 :C_8_1 :C_12_0 :C_13_0"/>
    <junction id=":C_15_0" type="internal" x="104.95" y="101.21" incLanes=":C_6_0 NC_0 NC_1 SC_0 SC_1 WC_0 WC_1" intLanes=":C_1_0 :C_1_1 :C_3_0 :C_8_0 :C_8_1 :C_10_0 :C_11_0 :C_12_0"/>
    <junction id=":C_16_0" type="internal" x="99.75" y="98.35" incLanes=":C_10_0 NC_0 NC_1" intLanes=":C_0_0 :C_1_0 :C_1_1 :C_5_0 :C_6_0 :C_12_0 :C_13_0"/>
    <junction id=":C_17_0" type="internal" x="95.05" y="98.79" incLanes=":C_13_0 EC_0 EC_1 NC_0 NC_1 SC_0 SC_1" intLanes=":C_1_0 :C_1_1 :C_3_0 :C_4_0 :C_5_0 :C_8_0 :C_8_1 :C_10_0"/>

    <connection from="EC" to="CN" fromLane="0" toLane="0" via=":C_4_0" tl="C" linkIndex="4" dir="r" state="o"/>
    <connection from="EC" to="CW" fromLane="1" toLane="1" via=":C_5_0" tl="C" linkIndex="5" dir="s" state="o"/>
    <connection from="EC" to="CS" fromLane="1" toLane="1" via=":C_6_0" tl="C" linkIndex="6" dir="l" state="o"/>
    <connection from="NC" to="CW" fromLane="0" toLane="0" via=":C_0_0" tl="C" linkIndex="0" dir="r" state="o"/>
    <connection from="NC" to="CS" fromLane="0" toLane="0" via=":C_1_0" tl="C" linkIndex="1" dir="s" state="o"/>
    <connection from="NC" to="CS" fromLane="1" toLane="1" via=":C_1_1" tl="C" linkIndex="2" dir="s" state="o"/>
    <connection from="NC" to="CE" fromLane="1" toLane="1" via=":C_3_0" tl="C" linkIndex="3" dir="l" state="o"/>
    <connection from="SC" to="CE" fromLane="0" toLane="0" via=":C_7_0" tl="C" linkIndex="7" dir="r" state="o"/>
    <connection from="SC" to="CN" fromLane="0" toLane="0" via=":C_8_0" tl="C" linkIndex="8" dir="s" state="o"/>
    <connection from="SC" to="CN" fromLane="1" toLane="1" via=":C_8_1" tl="C" linkIndex="9" dir="s" state="o"/>
    <connection from="SC" to="CW" fromLane="1" toLane="1" via=":C_10_0" tl="C" linkIndex="10" dir="l" state="o"/>
    <connection from="WC" to="CS" fromLane="0" toLane="0" via=":C_11_0" tl="C" linkIndex="11" dir="r" state="o"/>
    <connection from="WC" to="CE" fromLane="1" toLane="1" via=":C_12_0" tl="C" linkIndex="12" dir="s" state="o"/>
    <connection from="WC" to="CN" fromLane="1" toLane="1" via=":C_13_0" tl="C" linkIndex="13" dir="l" state="o"/>

    <connection from=":C_0" to="CW" fromLane="0" toLane="0" dir="s" state="M"/>
    <connection from=":C_1" to="CS" fromLane="0" toLane="0" dir="s" state="M"/>
    <connection from=":C_1" to="CS" fromLane="1" toLane="1" dir="s" state="M"/>
    <connection from=":C_3" to="CE" fromLane="0" toLane="1" via=":C_14_0" dir="s" state="m"/>
    <connection from=":C_14" to="CE" fromLane="0" toLane="1" dir="s" state="M"/>
    <connection from=":C_4" to="CN" fromLane="0" toLane="0" dir="s" state="M"/>
    <connection from=":C_5" to="CW" fromLane="0" toLane="1" dir="s" state="M"/>
    <connection from=":C_6" to="CS" fromLane="0" toLane="1" via=":C_15_0" dir="s" state="m"/>
    <connection from=":C_15" to="CS" fromLane="0" toLane="1" dir="s" state="M"/>
    <connection from=":C_7" to="CE" fromLane="0" toLane="0" dir="s" state="M"/>
    <connection from=":C_8" to="CN" fromLane="0" toLane="0" dir="s" state="M"/>
    <connection from=":C_8" to="CN" fromLane="1" toLane="1" dir="s" state="M"/>
    <connection from=":C_10" to="CW" fromLane="0" toLane="1" via=":C_16_0" dir="s" state="m"/>
    <connection from=":C_16" to="CW" fromLane="0" toLane="1" dir="s" state="M"/>
    <connection from=":C_11" to="CS" fromLane="0" toLane="0" dir="s" state="M"/>
    <connection from=":C_12" to="CE" fromLane="0" toLane="1" dir="s" state="M"/>
    <connection from=":C_13" to="CN" fromLane="0" toLane="1" via=":C_17_0" dir="s" state="m"/>
    <connection from=":C_17" to="CN" fromLane="0" toLane="1" dir="s" state="M"/>

</net>
