<?xml version="1.0" encoding="UTF-8"?>

<routes xmlns:xsi="http://www.w3.org/2001/XMLSchema-instance" xsi:noNamespaceSchemaLocation="http://sumo.dlr.de/xsd/routes_file.xsd">
    <vType id="fullTrain" vClass="rail" length="100" containerCapacity="2"/>
    <vType id="splitTrain" vClass="rail" length="50" containerCapacity="2"/>
    <trip id="t0" type="fullTrain" depart="0.00" line="LAC">
        <stop busStop="A" duration="10.00" until="20"/>
        <stop busStop="B" duration="30.00" until="60" split="t1"/>
        <stop busStop="C" duration="10.00" until="90"/>
    </trip>
    <trip id="t1" type="splitTrain" depart="split" line="LDB">
        <stop busStop="B" duration="30.00" until="60"/>
        <stop busStop="E" duration="30.00" until="60"/>
    </trip>

    <container id="c0" depart="0">
        <stop busStop="A" duration="0"/>
        <transport busStop="C" lines="t0"/>
    </container>
    <container id="c1" depart="0">
        <stop busStop="A" duration="0"/>
        <transport busStop="B" lines="t0"/>
        <transport busStop="E" lines="t1"/>
    </container>
</routes>
