<?xml version="1.0" encoding="UTF-8"?>

<!-- generated on 2022-03-22 09:31:08 by Eclipse SUMO netedit Version v1_12_0+1574-88b58480ab9
<configuration xmlns:xsi="http://www.w3.org/2001/XMLSchema-instance" xsi:noNamespaceSchemaLocation="http://sumo.dlr.de/xsd/netconvertConfiguration.xsd">

    <input>
        <sumo-net-file value="D:\SUMO\tests\netedit\bugs\ticket4528\input_net.net.xml"/>
    </input>

    <output>
        <output-file value="D:\SUMO\tests\netedit\bugs\ticket4528\input_net.net.xml"/>
        <plain-output-prefix value="D:\SUMO\tests\netedit\bugs\ticket4528\input_net"/>
    </output>

    <processing>
        <geometry.min-radius.fix.railways value="false"/>
        <geometry.max-grade.fix value="false"/>
        <offset.disable-normalization value="true"/>
        <lefthand value="false"/>
    </processing>

    <junctions>
        <no-turnarounds value="true"/>
        <junctions.corner-detail value="5"/>
        <junctions.limit-turn-speed value="5.5"/>
        <rectangular-lane-cut value="false"/>
    </junctions>

    <pedestrian>
        <walkingareas value="false"/>
    </pedestrian>

    <report>
        <aggregate-warnings value="5"/>
    </report>

</configuration>
-->

<connections version="1.9" xmlns:xsi="http://www.w3.org/2001/XMLSchema-instance" xsi:noNamespaceSchemaLocation="http://sumo.dlr.de/xsd/connections_file.xsd">
    <connection from="-E1"/>

    <connection from="-E2"/>

    <connection from="E1"/>

    <connection from="E2"/>

</connections>
