<?xml version="1.0" encoding="UTF-8"?>
<!-- generated on 2021-12-01 12:12:32.758781 by $Id: ptlines2flows.py v1_3_1+0313-ccb31df3eb jakob.erdmann@dlr.de 2019-09-02 13:26:32 +0200 $ v1_11_0+0221-bbdd205
  options: -n net.net.xml -s input_additional.add.xml -l ptlines.xml -o out.flows.xml -p 600 <doubleminus>verbose
-->
<routes xmlns:xsi="http://www.w3.org/2001/XMLSchema-instance" xsi:noNamespaceSchemaLocation="http://sumo.dlr.de/xsd/routes_file.xsd">
    <vType id="bus" vClass="bus"/>
    <vType id="tram" vClass="tram"/>
    <vType id="train" vClass="rail"/>
    <vType id="subway" vClass="rail_urban"/>
    <vType id="light_rail" vClass="rail_urban"/>
    <vType id="monorail" vClass="rail"/>
    <vType id="trolleybus" vClass="bus"/>
    <vType id="minibus" vClass="bus"/>
    <vType id="share_taxi" vClass="taxi"/>
    <vType id="aerialway" vClass="bus"/>
    <vType id="ferry" vClass="ship"/>
    <route id="light_rail_S46:0" edges="beg f h branch -branch -h g end" >
        <stop busStop="stopBeg" duration="20" until="31.0"/> <!-- stopBeg -->
        <stop busStop="stopBranch" duration="20" until="91.0"/> <!-- stopBranch -->
        <stop busStop="stopEnd" duration="20" until="150.0"/> <!-- stopEnd -->
    </route>
    <flow id="light_rail_S46:0" type="light_rail" route="light_rail_S46:0" begin="0.0" end="3600.0" period="600" line="S46:0" >
        <param key="name" value="0"/>
        <param key="completeness" value="1.00"/>
    </flow>
</routes>
