<?xml version="1.0" encoding="UTF-8"?>
<!-- generated on 2019-03-21 10:00:39.686135 by $Id: ptlines2flows.py v1_1_0+1215-2a888338c3 jakob.erdmann@dlr.de 2019-03-07 14:56:46 +0100 $
  options: -n net.net.xml -s input_additional.add.xml -l ptlines.xml -o out.flows.xml -p 600 <doubleminus>verbose
-->
<routes xmlns:xsi="http://www.w3.org/2001/XMLSchema-instance" xsi:noNamespaceSchemaLocation="http://sumo.dlr.de/xsd/routes_file.xsd">
    <vType id="bus" vClass="bus"/>
    <vType id="tram" vClass="tram"/>
    <vType id="train" vClass="rail"/>
    <vType id="subway" vClass="rail_urban"/>
    <vType id="light_rail" vClass="rail_urban"/>
    <vType id="monorail" vClass="rail"/>
    <vType id="trolleybus" vClass="bus"/>
    <vType id="aerialway" vClass="bus"/>
    <vType id="ferry" vClass="ship"/>
    <trip id="0_light_rail_S46:0" type="light_rail" depart="0" departLane="best" from="beg" to="end">
        <stop busStop="stopBeg" duration="30"/>
        <stop busStop="stopBranch" duration="30"/>
        <stop busStop="stopEnd" duration="30"/>
    </trip>
</routes>
