<?xml version="1.0" encoding="UTF-8"?>

<!-- generated on 2021-11-16 12:03:46 by Eclipse SUMO netedit Version v1_10_0+2310-e230b72ef81
<configuration xmlns:xsi="http://www.w3.org/2001/XMLSchema-instance" xsi:noNamespaceSchemaLocation="http://sumo.dlr.de/xsd/netconvertConfiguration.xsd">

    <input>
        <sumo-net-file value="C:\Users\alva_pa\.texttest\tmp\netedit.gui.16Nov120327.18684\netedit.gui\additionalElements\calibrator\load\jamThreshold\input_net.net.xml"/>
    </input>

    <output>
        <output-file value="C:\Users\alva_pa\.texttest\tmp\netedit.gui.16Nov120327.18684\netedit.gui\additionalElements\calibrator\load\jamThreshold\net.net.xml"/>
    </output>

    <processing>
        <geometry.min-radius.fix.railways value="false"/>
        <geometry.max-grade.fix value="false"/>
        <offset.disable-normalization value="true"/>
        <lefthand value="false"/>
    </processing>

    <junctions>
        <no-turnarounds value="true"/>
        <junctions.corner-detail value="5"/>
        <junctions.limit-turn-speed value="5.5"/>
        <rectangular-lane-cut value="false"/>
    </junctions>

    <pedestrian>
        <walkingareas value="false"/>
    </pedestrian>

    <netedit>
        <additional-files value="C:\Users\alva_pa\.texttest\tmp\netedit.gui.16Nov120327.18684\netedit.gui\additionalElements\calibrator\load\jamThreshold\additionals.xml"/>
        <additionals-output value="C:\Users\alva_pa\.texttest\tmp\netedit.gui.16Nov120327.18684\netedit.gui\additionalElements\calibrator\load\jamThreshold\additionals.xml"/>
        <route-files value="C:\Users\alva_pa\.texttest\tmp\netedit.gui.16Nov120327.18684\netedit.gui\additionalElements\calibrator\load\jamThreshold\routes.xml"/>
        <demandelements-output value="C:\Users\alva_pa\.texttest\tmp\netedit.gui.16Nov120327.18684\netedit.gui\additionalElements\calibrator\load\jamThreshold\routes.xml"/>
        <data-files value="C:\Users\alva_pa\.texttest\tmp\netedit.gui.16Nov120327.18684\netedit.gui\additionalElements\calibrator\load\jamThreshold\datas.xml"/>
        <dataelements-output value="C:\Users\alva_pa\.texttest\tmp\netedit.gui.16Nov120327.18684\netedit.gui\additionalElements\calibrator\load\jamThreshold\datas.xml"/>
    </netedit>

    <visualisation>
        <gui-settings-file value="C:\Users\alva_pa\.texttest\tmp\netedit.gui.16Nov120327.18684\netedit.gui\additionalElements\calibrator\load\jamThreshold\gui-settings.xml"/>
        <window-size value="936,697"/>
        <window-pos value="50,50"/>
        <gui-testing value="true"/>
        <gui-testing-debug value="true"/>
        <gui-testing-debug-gl value="true"/>
        <gui-testing.setting-output value="C:\Users\alva_pa\.texttest\tmp\netedit.gui.16Nov120327.18684\netedit.gui\additionalElements\calibrator\load\jamThreshold\guisettingsoutput.xml"/>
    </visualisation>

    <report>
        <no-warnings value="true"/>
        <aggregate-warnings value="5"/>
        <error-log value="C:\Users\alva_pa\.texttest\tmp\netedit.gui.16Nov120327.18684\netedit.gui\additionalElements\calibrator\load\jamThreshold\log.txt"/>
    </report>

</configuration>
-->

<additional xmlns:xsi="http://www.w3.org/2001/XMLSchema-instance" xsi:noNamespaceSchemaLocation="http://sumo.dlr.de/xsd/additional_file.xsd">
    <calibrator id="calibrator04" edge="gneE0" pos="0.00" freq="100.00" output="calibrator04.txt" jamThreshold="50.00"/>
    <calibrator id="calibrator05" edge="gneE0" pos="0.00" freq="100.00" output="calibrator05.txt" jamThreshold="0.40"/>
</additional>
