<?xml version="1.0" encoding="UTF-8"?>

<!-- generated on 2022-02-18 14:04:16 by Eclipse SUMO netedit Version v1_12_0+0678-44b8b389ea9
-->

<routes xmlns:xsi="http://www.w3.org/2001/XMLSchema-instance" xsi:noNamespaceSchemaLocation="http://sumo.dlr.de/xsd/routes_file.xsd">
    <person id="p_0" depart="0.00">
        <personTrip from="gneE2" busStop="busStop"/>
    </person>
</routes>
