<?xml version="1.0" encoding="UTF-8"?>

<!-- generated on 11/14/16 16:05:06 by SUMO Version dev-SVN-r21978
<?xml version="1.0" encoding="UTF-8"?>

<configuration xmlns:xsi="http://www.w3.org/2001/XMLSchema-instance" xsi:noNamespaceSchemaLocation="http://sumo.dlr.de/xsd/sumoConfiguration.xsd">

    <input>
        <net-file value="net.net.xml"/>
        <route-files value="input_routes.rou.xml"/>
        <additional-files value="input_additional.add.xml,input_additional2.add.xml"/>
    </input>

    <time>
        <begin value="0"/>
        <end value="100"/>
    </time>

    <report>
        <xml-validation value="never"/>
        <duration-log.disable value="true"/>
        <no-step-log value="true"/>
    </report>

</configuration>
-->

<vehicle-type-probes xmlns:xsi="http://www.w3.org/2001/XMLSchema-instance" xsi:noNamespaceSchemaLocation="http://sumo.dlr.de/xsd/vtypeprobe_file.xsd">
    <timestep time="0.00" id="test1" vType="DEFAULT_VEHTYPE"/>
    <timestep time="10.00" id="test1" vType="DEFAULT_VEHTYPE"/>
    <timestep time="20.00" id="test1" vType="DEFAULT_VEHTYPE"/>
    <timestep time="30.00" id="test1" vType="DEFAULT_VEHTYPE"/>
    <timestep time="40.00" id="test1" vType="DEFAULT_VEHTYPE"/>
    <timestep time="50.00" id="test1" vType="DEFAULT_VEHTYPE"/>
    <timestep time="60.00" id="test1" vType="DEFAULT_VEHTYPE"/>
    <timestep time="70.00" id="test1" vType="DEFAULT_VEHTYPE"/>
    <timestep time="80.00" id="test1" vType="DEFAULT_VEHTYPE"/>
    <timestep time="90.00" id="test1" vType="DEFAULT_VEHTYPE"/>
</vehicle-type-probes>
