<?xml version="1.0"?>

<!-- generated on Fri Mar 23 12:53:17 2012 by SUMO duarouter Version dev-SVN-r12161
<?xml version="1.0" encoding="UTF-8"?>

<configuration xmlns:xsi="http://www.w3.org/2001/XMLSchema-instance" xsi:noNamespaceSchemaLocation="http://sumo.sf.net/xsd/duarouterConfiguration.xsd">

    <input>
        <net-file value="input_net.net.xml"/>
        <weight-files value="input_weights.dump.xml"/>
        <trip-files value="input_trips.trips.xml"/>
    </input>

    <output>
        <output-file value="routes.rou.xml"/>
    </output>

    <report>
        <no-step-log value="true"/>
    </report>

</configuration>
-->

<routes xmlns:xsi="http://www.w3.org/2001/XMLSchema-instance" xsi:noNamespaceSchemaLocation="http://sumo.sf.net/xsd/routes_file.xsd">
    <vehicle id="early" depart="0.00">
        <routeDistribution last="0">
            <route cost="214.79" probability="1.00000000" edges="src e1 short e2 dest"/>
        </routeDistribution>
    </vehicle>
    <vehicle id="later" depart="3600.00">
        <routeDistribution last="0">
            <route cost="249.84" probability="1.00000000" edges="src long dest"/>
        </routeDistribution>
    </vehicle>
</routes>
