<?xml version="1.0" encoding="UTF-8"?>
<!-- generated on 2022-04-27 14:48:14.854633 by generateParkingAreas.py v1_12_0+2329-6b9459f
<configuration>
    <max value="2"/>
    <net-file value="net.net.xml"/>
    <output-file value="out.add.xml"/>
    <random-capacity value="True"/>
</configuration>

-->
<additional xmlns:xsi="http://www.w3.org/2001/XMLSchema-instance" xsi:noNamespaceSchemaLocation="http://sumo.dlr.de/xsd/additional_file.xsd">
    <parkingArea id="paE0" lane="E0_0" roadsideCapacity="0" length="5"/>
    <parkingArea id="paE1" lane="E1_0" roadsideCapacity="2" length="5"/>
    <parkingArea id="paE2" lane="E2_0" roadsideCapacity="2" length="5"/>
    <parkingArea id="paE3" lane="E3_0" roadsideCapacity="2" length="5"/>
</additional>
