<?xml version="1.0" encoding="UTF-8"?>

<!-- generated on 26.06.2018 17:03:58 by Eclipse SUMO netedit Version 88bb7b0b92
<configuration xmlns:xsi="http://www.w3.org/2001/XMLSchema-instance" xsi:noNamespaceSchemaLocation="http://sumo.dlr.de/xsd/netconvertConfiguration.xsd">

    <input>
        <sumo-net-file value="C:/Users/SUMO-Test/.texttest/tmp/netedit.gui.26Jun145422.948/netedit.gui/netElements/lanes/select_vtypes_disallowed\input_net.net.xml"/>
    </input>

    <output>
        <additionals-output value="C:/Users/SUMO-Test/.texttest/tmp/netedit.gui.26Jun145422.948/netedit.gui/netElements/lanes/select_vtypes_disallowed\additionals.xml"/>
        <shapes-output value="C:/Users/SUMO-Test/.texttest/tmp/netedit.gui.26Jun145422.948/netedit.gui/netElements/lanes/select_vtypes_disallowed\shapes.xml"/>
        <output-file value="C:/Users/SUMO-Test/.texttest/tmp/netedit.gui.26Jun145422.948/netedit.gui/netElements/lanes/select_vtypes_disallowed\net.net.xml"/>
    </output>

    <processing>
        <no-turnarounds value="true"/>
        <offset.disable-normalization value="true"/>
        <lefthand value="false"/>
        <junctions.corner-detail value="5"/>
        <rectangular-lane-cut value="false"/>
        <walkingareas value="false"/>
    </processing>

    <visualisation>
        <gui-settings-file value="C:/Users/SUMO-Test/.texttest/tmp/netedit.gui.26Jun145422.948/netedit.gui/netElements/lanes/select_vtypes_disallowed\gui-settings.xml"/>
        <window-size value="700,500"/>
        <window-pos value="50,50"/>
        <gui-testing value="true"/>
        <gui-testing-debug value="true"/>
    </visualisation>

    <report>
        <no-warnings value="true"/>
        <error-log value="C:/Users/SUMO-Test/.texttest/tmp/netedit.gui.26Jun145422.948/netedit.gui/netElements/lanes/select_vtypes_disallowed\log.txt"/>
    </report>

</configuration>
-->

<net version="0.27" junctionCornerDetail="5" xmlns:xsi="http://www.w3.org/2001/XMLSchema-instance" xsi:noNamespaceSchemaLocation="http://sumo.dlr.de/xsd/net_file.xsd">

    <location netOffset="0.00,-10.00" convBoundary="0.00,0.00,80.00,60.00" origBoundary="-10000000000.00,-10000000000.00,10000000000.00,10000000000.00" projParameter="!"/>


    <junction id="gneJ10" type="dead_end" x="50.00" y="60.00" incLanes="" intLanes="" shape="50.00,60.00"/>
    <junction id="gneJ11" type="dead_end" x="60.00" y="60.00" incLanes="" intLanes="" shape="60.00,60.00"/>
    <junction id="gneJ12" type="dead_end" x="80.00" y="60.00" incLanes="" intLanes="" shape="80.00,60.00"/>
    <junction id="gneJ13" type="dead_end" x="60.00" y="45.00" incLanes="" intLanes="" shape="60.00,45.00"/>
    <junction id="gneJ14" type="dead_end" x="80.00" y="45.00" incLanes="" intLanes="" shape="80.00,45.00"/>
    <junction id="gneJ15" type="dead_end" x="60.00" y="30.00" incLanes="" intLanes="" shape="60.00,30.00"/>
    <junction id="gneJ16" type="dead_end" x="80.00" y="30.00" incLanes="" intLanes="" shape="80.00,30.00"/>
    <junction id="gneJ17" type="dead_end" x="30.00" y="45.00" incLanes="" intLanes="" shape="30.00,45.00"/>
    <junction id="gneJ18" type="dead_end" x="50.00" y="45.00" incLanes="" intLanes="" shape="50.00,45.00"/>
    <junction id="gneJ19" type="dead_end" x="30.00" y="30.00" incLanes="" intLanes="" shape="30.00,30.00"/>
    <junction id="gneJ2" type="dead_end" x="0.00" y="60.00" incLanes="" intLanes="" shape="0.00,60.00"/>
    <junction id="gneJ20" type="dead_end" x="50.00" y="30.00" incLanes="" intLanes="" shape="50.00,30.00"/>
    <junction id="gneJ21" type="dead_end" x="0.00" y="15.00" incLanes="" intLanes="" shape="0.00,15.00"/>
    <junction id="gneJ22" type="dead_end" x="20.00" y="15.00" incLanes="" intLanes="" shape="20.00,15.00"/>
    <junction id="gneJ23" type="dead_end" x="30.00" y="15.00" incLanes="" intLanes="" shape="30.00,15.00"/>
    <junction id="gneJ24" type="dead_end" x="50.00" y="15.00" incLanes="" intLanes="" shape="50.00,15.00"/>
    <junction id="gneJ25" type="dead_end" x="60.00" y="15.00" incLanes="" intLanes="" shape="60.00,15.00"/>
    <junction id="gneJ26" type="dead_end" x="80.00" y="15.00" incLanes="" intLanes="" shape="80.00,15.00"/>
    <junction id="gneJ27" type="dead_end" x="30.00" y="0.00" incLanes="" intLanes="" shape="30.00,0.00"/>
    <junction id="gneJ28" type="dead_end" x="50.00" y="0.00" incLanes="" intLanes="" shape="50.00,0.00"/>
    <junction id="gneJ3" type="dead_end" x="20.00" y="60.00" incLanes="" intLanes="" shape="20.00,60.00"/>
    <junction id="gneJ4" type="dead_end" x="0.00" y="45.00" incLanes="" intLanes="" shape="0.00,45.00"/>
    <junction id="gneJ5" type="dead_end" x="20.00" y="45.00" incLanes="" intLanes="" shape="20.00,45.00"/>
    <junction id="gneJ7" type="dead_end" x="0.00" y="30.00" incLanes="" intLanes="" shape="0.00,30.00"/>
    <junction id="gneJ8" type="dead_end" x="20.00" y="30.00" incLanes="" intLanes="" shape="20.00,30.00"/>
    <junction id="gneJ9" type="dead_end" x="30.00" y="60.00" incLanes="" intLanes="" shape="30.00,60.00"/>

</net>
