<?xml version="1.0" encoding="UTF-8"?>

<!-- generated on 2022-04-04 14:54:12 by Eclipse SUMO netedit Version v1_12_0+1915-27c190f6120
-->

<routes xmlns:xsi="http://www.w3.org/2001/XMLSchema-instance" xsi:noNamespaceSchemaLocation="http://sumo.dlr.de/xsd/routes_file.xsd">
    <!-- Routes -->
    <route id="route_0" edges="gneE0 gneE1" color="yellow"/>
    <!-- Vehicles, persons and containers (sorted by depart) -->
    <vehicle id="vehicle_0" depart="0.00" route="route_0">
        <stop busStop="busStopB" duration="60.00" tripId="customLine" speed="13.89"/>
    </vehicle>
</routes>
