<?xml version="1.0" encoding="UTF-8"?>

<!-- generated on 2023-11-09 16:00:57 by Eclipse SUMO netedit Version v1_19_0+0034-128786327d5
-->

<routes xmlns:xsi="http://www.w3.org/2001/XMLSchema-instance" xsi:noNamespaceSchemaLocation="http://sumo.dlr.de/xsd/routes_file.xsd">
    <!-- Routes -->
    <route id="route_0" edges="Edge3 Edge4 Edge5" color="yellow">
        <stop trainStop="trainStopA" duration="70.00" until="12.00" extension="10.00" triggered="container" parking="1" permitted="A B" expectedContainers="containerA containerB" tripId="tripA" line="lineA" actType="walking"/>
    </route>
    <route id="route_1" edges="EdgeCenter0 EdgeCenter1" color="yellow">
        <stop trainStop="trainStopB" duration="60.00" until="20.00" extension="20.00" triggered="container" parking="1" permitted="C D" expectedContainers="containerA containerB" tripId="tripB" line="lineB" actType="singing"/>
    </route>
</routes>
