<?xml version="1.0" encoding="UTF-8"?>

<!-- generated on Thu 14 Nov 2019 04:27:14 PM CET by Eclipse SUMO netedit Version v1_3_1+0875-28b3f460be
<configuration xmlns:xsi="http://www.w3.org/2001/XMLSchema-instance" xsi:noNamespaceSchemaLocation="http://sumo.dlr.de/xsd/netconvertConfiguration.xsd">

    <input>
        <sumo-net-file value="net.net.xml"/>
    </input>

    <output>
        <output-file value="/home/kobo/dlr/sumo/tests/sumo/basic/tls/actuated/dualring/net.net.xml"/>
    </output>

    <processing>
        <geometry.max-grade.fix value="false"/>
        <offset.disable-normalization value="true"/>
        <lefthand value="false"/>
    </processing>

    <junctions>
        <no-turnarounds value="true"/>
        <junctions.corner-detail value="5"/>
        <junctions.limit-turn-speed value="-1"/>
        <rectangular-lane-cut value="false"/>
    </junctions>

    <pedestrian>
        <walkingareas value="false"/>
    </pedestrian>

</configuration>
-->

<net version="1.3" junctionCornerDetail="5" xmlns:xsi="http://www.w3.org/2001/XMLSchema-instance" xsi:noNamespaceSchemaLocation="http://sumo.dlr.de/xsd/net_file.xsd">

    <location netOffset="100.00,100.00" convBoundary="-100.00,-100.00,300.00,300.00" origBoundary="-10000000000.00,-10000000000.00,10000000000.00,10000000000.00" projParameter="!"/>

    <edge id=":C_0" function="internal">
        <lane id=":C_0_0" index="0" speed="13.89" length="9.03" shape="95.20,110.40 94.85,107.95 93.80,106.20 92.05,105.15 89.60,104.80"/>
    </edge>
    <edge id=":C_1" function="internal">
        <lane id=":C_1_0" index="0" speed="13.89" length="20.80" shape="95.20,110.40 95.20,89.60"/>
    </edge>
    <edge id=":C_2" function="internal">
        <lane id=":C_2_0" index="0" speed="13.89" length="11.78" shape="98.40,110.40 99.15,105.15 101.40,101.40 103.20,100.32"/>
    </edge>
    <edge id=":C_12" function="internal">
        <lane id=":C_12_0" index="0" speed="13.89" length="7.58" shape="103.20,100.32 105.15,99.15 110.40,98.40"/>
    </edge>
    <edge id=":C_3" function="internal">
        <lane id=":C_3_0" index="0" speed="13.89" length="9.03" shape="110.40,104.80 107.95,105.15 106.20,106.20 105.15,107.95 104.80,110.40"/>
    </edge>
    <edge id=":C_4" function="internal">
        <lane id=":C_4_0" index="0" speed="13.89" length="20.80" shape="110.40,104.80 89.60,104.80"/>
    </edge>
    <edge id=":C_5" function="internal">
        <lane id=":C_5_0" index="0" speed="13.89" length="11.78" shape="110.40,101.60 105.15,100.85 101.40,98.60 100.32,96.80"/>
    </edge>
    <edge id=":C_13" function="internal">
        <lane id=":C_13_0" index="0" speed="13.89" length="7.58" shape="100.32,96.80 99.15,94.85 98.40,89.60"/>
    </edge>
    <edge id=":C_6" function="internal">
        <lane id=":C_6_0" index="0" speed="13.89" length="9.03" shape="104.80,89.60 105.15,92.05 106.20,93.80 107.95,94.85 110.40,95.20"/>
    </edge>
    <edge id=":C_7" function="internal">
        <lane id=":C_7_0" index="0" speed="13.89" length="20.80" shape="104.80,89.60 104.80,110.40"/>
    </edge>
    <edge id=":C_8" function="internal">
        <lane id=":C_8_0" index="0" speed="13.89" length="11.78" shape="101.60,89.60 100.85,94.85 98.60,98.60 96.80,99.68"/>
    </edge>
    <edge id=":C_14" function="internal">
        <lane id=":C_14_0" index="0" speed="13.89" length="7.58" shape="96.80,99.68 94.85,100.85 89.60,101.60"/>
    </edge>
    <edge id=":C_9" function="internal">
        <lane id=":C_9_0" index="0" speed="13.89" length="9.03" shape="89.60,95.20 92.05,94.85 93.80,93.80 94.85,92.05 95.20,89.60"/>
    </edge>
    <edge id=":C_10" function="internal">
        <lane id=":C_10_0" index="0" speed="13.89" length="20.80" shape="89.60,95.20 110.40,95.20"/>
    </edge>
    <edge id=":C_11" function="internal">
        <lane id=":C_11_0" index="0" speed="13.89" length="11.78" shape="89.60,98.40 94.85,99.15 98.60,101.40 99.68,103.20"/>
    </edge>
    <edge id=":C_15" function="internal">
        <lane id=":C_15_0" index="0" speed="13.89" length="7.58" shape="99.68,103.20 100.85,105.15 101.60,110.40"/>
    </edge>

    <edge id="CE" from="C" to="E" priority="2">
        <lane id="CE_0" index="0" speed="13.89" length="189.60" shape="110.40,95.20 300.00,95.20"/>
        <lane id="CE_1" index="1" speed="13.89" length="189.60" shape="110.40,98.40 300.00,98.40"/>
    </edge>
    <edge id="CN" from="C" to="N" priority="2">
        <lane id="CN_0" index="0" speed="13.89" length="189.60" shape="104.80,110.40 104.80,300.00"/>
        <lane id="CN_1" index="1" speed="13.89" length="189.60" shape="101.60,110.40 101.60,300.00"/>
    </edge>
    <edge id="CS" from="C" to="S" priority="2">
        <lane id="CS_0" index="0" speed="13.89" length="189.60" shape="95.20,89.60 95.20,-100.00"/>
        <lane id="CS_1" index="1" speed="13.89" length="189.60" shape="98.40,89.60 98.40,-100.00"/>
    </edge>
    <edge id="CW" from="C" to="W" priority="2">
        <lane id="CW_0" index="0" speed="13.89" length="189.60" shape="89.60,104.80 -100.00,104.80"/>
        <lane id="CW_1" index="1" speed="13.89" length="189.60" shape="89.60,101.60 -100.00,101.60"/>
    </edge>
    <edge id="EC" from="E" to="C" priority="2">
        <lane id="EC_0" index="0" speed="13.89" length="189.60" shape="300.00,104.80 110.40,104.80"/>
        <lane id="EC_1" index="1" speed="13.89" length="189.60" shape="300.00,101.60 110.40,101.60"/>
    </edge>
    <edge id="NC" from="N" to="C" priority="2">
        <lane id="NC_0" index="0" speed="13.89" length="189.60" shape="95.20,300.00 95.20,110.40"/>
        <lane id="NC_1" index="1" speed="13.89" length="189.60" shape="98.40,300.00 98.40,110.40"/>
    </edge>
    <edge id="SC" from="S" to="C" priority="2">
        <lane id="SC_0" index="0" speed="13.89" length="189.60" shape="104.80,-100.00 104.80,89.60"/>
        <lane id="SC_1" index="1" speed="13.89" length="189.60" shape="101.60,-100.00 101.60,89.60"/>
    </edge>
    <edge id="WC" from="W" to="C" priority="2">
        <lane id="WC_0" index="0" speed="13.89" length="189.60" shape="-100.00,95.20 89.60,95.20"/>
        <lane id="WC_1" index="1" speed="13.89" length="189.60" shape="-100.00,98.40 89.60,98.40"/>
    </edge>

    <tlLogic id="C" type="static" programID="0" offset="0">
        <phase duration="33" state="GGgrrrGGgrrr"/>
        <phase duration="3"  state="yygrrryygrrr"/>
        <phase duration="6"  state="rrGrrrrrGrrr"/>
        <phase duration="3"  state="rryrrrrryrrr"/>
        <phase duration="33" state="rrrGGgrrrGGg"/>
        <phase duration="3"  state="rrryygrrryyg"/>
        <phase duration="6"  state="rrrrrGrrrrrG"/>
        <phase duration="3"  state="rrrrryrrrrry"/>
    </tlLogic>

    <junction id="C" type="traffic_light" x="100.00" y="100.00" incLanes="NC_0 NC_1 EC_0 EC_1 SC_0 SC_1 WC_0 WC_1" intLanes=":C_0_0 :C_1_0 :C_12_0 :C_3_0 :C_4_0 :C_13_0 :C_6_0 :C_7_0 :C_14_0 :C_9_0 :C_10_0 :C_15_0" shape="93.60,110.40 106.40,110.40 106.84,108.18 107.40,107.40 108.18,106.84 109.18,106.51 110.40,106.40 110.40,93.60 108.18,93.16 107.40,92.60 106.84,91.82 106.51,90.82 106.40,89.60 93.60,89.60 93.16,91.82 92.60,92.60 91.82,93.16 90.82,93.49 89.60,93.60 89.60,106.40 91.82,106.84 92.60,107.40 93.16,108.18 93.49,109.18">
        <request index="0"  response="000000000000" foes="000000010000" cont="0"/>
        <request index="1"  response="100000000000" foes="111100010000" cont="0"/>
        <request index="2"  response="100010100000" foes="100010110000" cont="1"/>
        <request index="3"  response="000010000000" foes="000010000000" cont="0"/>
        <request index="4"  response="000010000111" foes="100010000111" cont="0"/>
        <request index="5"  response="010110000100" foes="010110000100" cont="1"/>
        <request index="6"  response="000000000000" foes="010000000000" cont="0"/>
        <request index="7"  response="000000100000" foes="010000111100" cont="0"/>
        <request index="8"  response="100000100010" foes="110000100010" cont="1"/>
        <request index="9"  response="000000000010" foes="000000000010" cont="0"/>
        <request index="10" response="000111000010" foes="000111100010" cont="0"/>
        <request index="11" response="000100010110" foes="000100010110" cont="1"/>
    </junction>
    <junction id="E" type="dead_end" x="300.00" y="100.00" incLanes="CE_0 CE_1" intLanes="" shape="300.00,100.00 300.00,93.60 300.00,100.00"/>
    <junction id="N" type="dead_end" x="100.00" y="300.00" incLanes="CN_0 CN_1" intLanes="" shape="100.00,300.00 106.40,300.00 100.00,300.00"/>
    <junction id="S" type="dead_end" x="100.00" y="-100.00" incLanes="CS_0 CS_1" intLanes="" shape="100.00,-100.00 93.60,-100.00 100.00,-100.00"/>
    <junction id="W" type="dead_end" x="-100.00" y="100.00" incLanes="CW_0 CW_1" intLanes="" shape="-100.00,100.00 -100.00,106.40 -100.00,100.00"/>

    <junction id=":C_12_0" type="internal" x="103.20" y="100.32" incLanes=":C_2_0 SC_0" intLanes=":C_4_0 :C_5_0 :C_6_0 :C_7_0 :C_10_0 :C_11_0"/>
    <junction id=":C_13_0" type="internal" x="100.32" y="96.80" incLanes=":C_5_0 WC_0" intLanes=":C_1_0 :C_2_0 :C_7_0 :C_8_0 :C_9_0 :C_10_0"/>
    <junction id=":C_14_0" type="internal" x="96.80" y="99.68" incLanes=":C_8_0 NC_0" intLanes=":C_0_0 :C_1_0 :C_4_0 :C_5_0 :C_10_0 :C_11_0"/>
    <junction id=":C_15_0" type="internal" x="99.68" y="103.20" incLanes=":C_11_0 EC_0" intLanes=":C_1_0 :C_2_0 :C_3_0 :C_4_0 :C_7_0 :C_8_0"/>

    <connection from="EC" to="CN" fromLane="0" toLane="0" via=":C_3_0" tl="C" linkIndex="3" dir="r" state="o"/>
    <connection from="EC" to="CW" fromLane="0" toLane="0" via=":C_4_0" tl="C" linkIndex="4" dir="s" state="o"/>
    <connection from="EC" to="CS" fromLane="1" toLane="1" via=":C_5_0" tl="C" linkIndex="5" dir="l" state="o"/>
    <connection from="NC" to="CW" fromLane="0" toLane="0" via=":C_0_0" tl="C" linkIndex="0" dir="r" state="O"/>
    <connection from="NC" to="CS" fromLane="0" toLane="0" via=":C_1_0" tl="C" linkIndex="1" dir="s" state="O"/>
    <connection from="NC" to="CE" fromLane="1" toLane="1" via=":C_2_0" tl="C" linkIndex="2" dir="l" state="o"/>
    <connection from="SC" to="CE" fromLane="0" toLane="0" via=":C_6_0" tl="C" linkIndex="6" dir="r" state="O"/>
    <connection from="SC" to="CN" fromLane="0" toLane="0" via=":C_7_0" tl="C" linkIndex="7" dir="s" state="O"/>
    <connection from="SC" to="CW" fromLane="1" toLane="1" via=":C_8_0" tl="C" linkIndex="8" dir="l" state="o"/>
    <connection from="WC" to="CS" fromLane="0" toLane="0" via=":C_9_0" tl="C" linkIndex="9" dir="r" state="o"/>
    <connection from="WC" to="CE" fromLane="0" toLane="0" via=":C_10_0" tl="C" linkIndex="10" dir="s" state="o"/>
    <connection from="WC" to="CN" fromLane="1" toLane="1" via=":C_11_0" tl="C" linkIndex="11" dir="l" state="o"/>

    <connection from=":C_0" to="CW" fromLane="0" toLane="0" dir="r" state="M"/>
    <connection from=":C_1" to="CS" fromLane="0" toLane="0" dir="s" state="M"/>
    <connection from=":C_2" to="CE" fromLane="0" toLane="1" via=":C_12_0" dir="l" state="m"/>
    <connection from=":C_12" to="CE" fromLane="0" toLane="1" dir="l" state="M"/>
    <connection from=":C_3" to="CN" fromLane="0" toLane="0" dir="r" state="M"/>
    <connection from=":C_4" to="CW" fromLane="0" toLane="0" dir="s" state="M"/>
    <connection from=":C_5" to="CS" fromLane="0" toLane="1" via=":C_13_0" dir="l" state="m"/>
    <connection from=":C_13" to="CS" fromLane="0" toLane="1" dir="l" state="M"/>
    <connection from=":C_6" to="CE" fromLane="0" toLane="0" dir="r" state="M"/>
    <connection from=":C_7" to="CN" fromLane="0" toLane="0" dir="s" state="M"/>
    <connection from=":C_8" to="CW" fromLane="0" toLane="1" via=":C_14_0" dir="l" state="m"/>
    <connection from=":C_14" to="CW" fromLane="0" toLane="1" dir="l" state="M"/>
    <connection from=":C_9" to="CS" fromLane="0" toLane="0" dir="r" state="M"/>
    <connection from=":C_10" to="CE" fromLane="0" toLane="0" dir="s" state="M"/>
    <connection from=":C_11" to="CN" fromLane="0" toLane="1" via=":C_15_0" dir="l" state="m"/>
    <connection from=":C_15" to="CN" fromLane="0" toLane="1" dir="l" state="M"/>

</net>
