<?xml version="1.0" encoding="UTF-8"?>

<!-- generated on Thu Aug 30 11:11:23 2018 by Eclipse SUMO netconvert Version 4728da9
This data file and the accompanying materials
are made available under the terms of the Eclipse Public License v2.0
which accompanies this distribution, and is available at
http://www.eclipse.org/legal/epl-v20.html
SPDX-License-Identifier: EPL-2.0
<configuration xmlns:xsi="http://www.w3.org/2001/XMLSchema-instance" xsi:noNamespaceSchemaLocation="http://sumo.dlr.de/xsd/netconvertConfiguration.xsd">

    <input>
        <type-files value="input_types.typ.xml"/>
        <osm-files value="osm.xml"/>
    </input>

    <output>
        <write-license value="true"/>
        <output-file value="net.net.xml"/>
        <output.original-names value="true"/>
        <ptstop-output value="additional.xml"/>
    </output>

    <projection>
        <proj.utm value="true"/>
    </projection>

    <processing>
        <numerical-ids value="true"/>
    </processing>

    <formats>
        <osm.stop-output.length value="200"/>
    </formats>

    <report>
        <xml-validation value="never"/>
    </report>

</configuration>
-->

<additional xmlns:xsi="http://www.w3.org/2001/XMLSchema-instance" xsi:noNamespaceSchemaLocation="http://sumo.dlr.de/xsd/additional_file.xsd">
    <busStop id="-4014639411" name="Hallesche Allee" lane="-412820207_0" startPos="0.00" endPos="48.91" friendlyPos="true"/>
    <busStop id="4014639410" name="Hallesche Allee" lane="412820232_0" startPos="0.00" endPos="62.22" friendlyPos="true"/>
</additional>
