<?xml version="1.0"?>

<!-- generated on 05/14/09 12:19:16 by SUMO sumo Version dev-SVN-r7168
<configuration>

   <input>
      <net-file>net.net.xml</net-file>
      <route-files>input_routes.rou.xml</route-files>
      <additional-files>input_additional.add.xml</additional-files>
   </input>

   <time>
      <begin>150</begin>
      <end>300</end>
   </time>

   <processing>
      <no-duration-log>true</no-duration-log>
      <no-step-log>true</no-step-log>
   </processing>

</configuration>
-->

<tls-switch-states>
    <tlsstate time="150" id="0" subid="0" phase="4">rrrrGGggrrrrGGgg</tlsstate>
    <tlsstate time="166" id="0" subid="0" phase="5">rrrryyggrrrryygg</tlsstate>
    <tlsstate time="170" id="0" subid="0" phase="6">rrrrrrGGrrrrrrGG</tlsstate>
    <tlsstate time="176" id="0" subid="0" phase="7">rrrrrryyrrrrrryy</tlsstate>
    <tlsstate time="180" id="0" subid="0" phase="0">GGggrrrrGGggrrrr</tlsstate>
    <tlsstate time="200" id="0" subid="S1" phase="0">GGggrrrrGGggrrrr</tlsstate>
</tls-switch-states>
