<?xml version="1.0" encoding="UTF-8"?>

<!-- generated on 2022-03-30 13:29:41 by Eclipse SUMO netedit Version v1_12_0+1780-f5ffe7631e0
-->

<additional xmlns:xsi="http://www.w3.org/2001/XMLSchema-instance" xsi:noNamespaceSchemaLocation="http://sumo.dlr.de/xsd/additional_file.xsd">
    <!-- Shapes -->
    <poi id="poi_0" color="red" layer="202.00" name="%%%%;;;%%%" x="2.00" y="18.00"/>
    <poi id="poi_1" color="red" layer="202.00" name="customName" x="6.00" y="18.00"/>
</additional>
