<?xml version="1.0" encoding="UTF-8"?>

<!-- generated on 12.02.2021 09:24:44 by Eclipse SUMO netedit Version v1_8_0+1126-1b9d3d35b1
<configuration xmlns:xsi="http://www.w3.org/2001/XMLSchema-instance" xsi:noNamespaceSchemaLocation="http://sumo.dlr.de/xsd/netconvertConfiguration.xsd">

    <input>
        <sumo-net-file value="C:\Users\alva_pa\.texttest\tmp\netedit.gui.12Feb092050.3412\netedit.gui\additionalElements\e2MultiLaneDetector\inspect\pos\input_net.net.xml"/>
    </input>

    <output>
        <output-file value="C:\Users\alva_pa\.texttest\tmp\netedit.gui.12Feb092050.3412\netedit.gui\additionalElements\e2MultiLaneDetector\inspect\pos\net.net.xml"/>
    </output>

    <processing>
        <geometry.min-radius.fix.railways value="false"/>
        <geometry.max-grade.fix value="false"/>
        <offset.disable-normalization value="true"/>
        <lefthand value="false"/>
    </processing>

    <junctions>
        <no-turnarounds value="true"/>
        <junctions.corner-detail value="5"/>
        <junctions.limit-turn-speed value="5.5"/>
        <rectangular-lane-cut value="false"/>
    </junctions>

    <pedestrian>
        <walkingareas value="false"/>
    </pedestrian>

    <netedit>
        <additional-files value="C:\Users\alva_pa\.texttest\tmp\netedit.gui.12Feb092050.3412\netedit.gui\additionalElements\e2MultiLaneDetector\inspect\pos\additionals.xml"/>
        <additionals-output value="C:\Users\alva_pa\.texttest\tmp\netedit.gui.12Feb092050.3412\netedit.gui\additionalElements\e2MultiLaneDetector\inspect\pos\additionals.xml"/>
        <route-files value="C:\Users\alva_pa\.texttest\tmp\netedit.gui.12Feb092050.3412\netedit.gui\additionalElements\e2MultiLaneDetector\inspect\pos\routes.xml"/>
        <demandelements-output value="C:\Users\alva_pa\.texttest\tmp\netedit.gui.12Feb092050.3412\netedit.gui\additionalElements\e2MultiLaneDetector\inspect\pos\routes.xml"/>
        <data-files value="C:\Users\alva_pa\.texttest\tmp\netedit.gui.12Feb092050.3412\netedit.gui\additionalElements\e2MultiLaneDetector\inspect\pos\datas.xml"/>
        <dataelements-output value="C:\Users\alva_pa\.texttest\tmp\netedit.gui.12Feb092050.3412\netedit.gui\additionalElements\e2MultiLaneDetector\inspect\pos\datas.xml"/>
    </netedit>

    <visualisation>
        <gui-settings-file value="C:\Users\alva_pa\.texttest\tmp\netedit.gui.12Feb092050.3412\netedit.gui\additionalElements\e2MultiLaneDetector\inspect\pos\gui-settings.xml"/>
        <window-size value="700,500"/>
        <window-pos value="50,50"/>
        <gui-testing value="true"/>
        <gui-testing-debug value="true"/>
        <gui-testing-debug-gl value="true"/>
        <gui-testing.setting-output value="C:\Users\alva_pa\.texttest\tmp\netedit.gui.12Feb092050.3412\netedit.gui\additionalElements\e2MultiLaneDetector\inspect\pos\guisettingsoutput.xml"/>
    </visualisation>

    <report>
        <no-warnings value="true"/>
        <aggregate-warnings value="5"/>
        <error-log value="C:\Users\alva_pa\.texttest\tmp\netedit.gui.12Feb092050.3412\netedit.gui\additionalElements\e2MultiLaneDetector\inspect\pos\log.txt"/>
    </report>

</configuration>
-->

<additional xmlns:xsi="http://www.w3.org/2001/XMLSchema-instance" xsi:noNamespaceSchemaLocation="http://sumo.dlr.de/xsd/additional_file.xsd">
    <e2Detector id="e2MultilaneDetector_0" lanes="gneE2_0 gneE3_0" pos="20.00" endPos="7.00" freq="900.00" file="e2MultilaneDetector_0.xml"/>
</additional>
