<routes>

	<vehicle id="1" depart="0" route="1" departSpeed="30" speedFactor="1.2"/>

</routes>
