<edges xmlns:xsi="http://www.w3.org/2001/XMLSchema-instance" xsi:noNamespaceSchemaLocation="http://sumo.dlr.de/xsd/edgediff_file.xsd">
    <edge id="beg2left" allow="all"/>
    <edge id="left2end" allow="all"/>
</edges>

