<?xml version="1.0" encoding="UTF-8"?>

<!-- generated on Mon Feb 17 15:30:46 2020 by Eclipse SUMO netconvert Version v1_5_0+0130-ceb0a01
This data file and the accompanying materials
are made available under the terms of the Eclipse Public License v2.0
which accompanies this distribution, and is available at
http://www.eclipse.org/legal/epl-v20.html
SPDX-License-Identifier: EPL-2.0
<configuration xmlns:xsi="http://www.w3.org/2001/XMLSchema-instance" xsi:noNamespaceSchemaLocation="http://sumo.dlr.de/xsd/netconvertConfiguration.xsd">

    <input>
        <node-files value="input_nodes.nod.xml"/>
        <edge-files value="input_edges.edg.xml"/>
    </input>

    <output>
        <write-license value="true"/>
    </output>

    <report>
        <verbose value="true"/>
        <xml-validation value="never"/>
        <aggregate-warnings value="5"/>
    </report>

</configuration>
-->

<net version="1.6" junctionCornerDetail="5" limitTurnSpeed="5.50" xmlns:xsi="http://www.w3.org/2001/XMLSchema-instance" xsi:noNamespaceSchemaLocation="http://sumo.dlr.de/xsd/net_file.xsd">

    <location netOffset="500.00,500.00" convBoundary="0.00,0.00,1000.00,1000.00" origBoundary="-500.00,-500.00,500.00,500.00" projParameter="!"/>

    <edge id=":0_0" function="internal">
        <lane id=":0_0_0" index="0" speed="7.33" length="11.73" shape="495.20,510.40 494.85,506.55 493.80,503.80 492.05,502.15 489.60,501.60"/>
    </edge>
    <edge id=":0_1" function="internal">
        <lane id=":0_1_0" index="0" speed="11.11" length="21.09" shape="495.20,510.40 495.70,503.63 496.80,498.12 497.90,493.55 498.40,489.60"/>
    </edge>
    <edge id=":0_2" function="internal">
        <lane id=":0_2_0" index="0" speed="9.26" length="19.35" shape="498.40,510.40 499.15,505.15 501.40,501.40 505.15,499.15 510.40,498.40"/>
    </edge>
    <edge id=":0_3" function="internal">
        <lane id=":0_3_0" index="0" speed="3.65" length="4.67" shape="498.40,510.40 499.20,509.20 500.00,508.80 500.80,509.20 501.60,510.40"/>
    </edge>
    <edge id=":0_4" function="internal">
        <lane id=":0_4_0" index="0" speed="7.33" length="11.73" shape="510.40,504.80 506.55,505.15 503.80,506.20 502.15,507.95 501.60,510.40"/>
    </edge>
    <edge id=":0_5" function="internal">
        <lane id=":0_5_0" index="0" speed="11.11" length="21.09" shape="510.40,504.80 503.63,504.30 498.12,503.20 493.55,502.10 489.60,501.60"/>
    </edge>
    <edge id=":0_6" function="internal">
        <lane id=":0_6_0" index="0" speed="9.26" length="19.35" shape="510.40,501.60 505.15,500.85 501.40,498.60 499.15,494.85 498.40,489.60"/>
    </edge>
    <edge id=":0_7" function="internal">
        <lane id=":0_7_0" index="0" speed="3.65" length="4.67" shape="510.40,501.60 509.20,500.80 508.80,500.00 509.20,499.20 510.40,498.40"/>
    </edge>
    <edge id=":0_8" function="internal">
        <lane id=":0_8_0" index="0" speed="7.33" length="11.73" shape="504.80,489.60 505.15,493.45 506.20,496.20 507.95,497.85 510.40,498.40"/>
    </edge>
    <edge id=":0_9" function="internal">
        <lane id=":0_9_0" index="0" speed="11.11" length="21.09" shape="504.80,489.60 504.30,496.37 503.20,501.88 502.10,506.45 501.60,510.40"/>
    </edge>
    <edge id=":0_10" function="internal">
        <lane id=":0_10_0" index="0" speed="9.26" length="19.35" shape="501.60,489.60 500.85,494.85 498.60,498.60 494.85,500.85 489.60,501.60"/>
    </edge>
    <edge id=":0_11" function="internal">
        <lane id=":0_11_0" index="0" speed="3.65" length="4.67" shape="501.60,489.60 500.80,490.80 500.00,491.20 499.20,490.80 498.40,489.60"/>
    </edge>
    <edge id=":0_12" function="internal">
        <lane id=":0_12_0" index="0" speed="7.33" length="11.73" shape="489.60,495.20 493.45,494.85 496.20,493.80 497.85,492.05 498.40,489.60"/>
    </edge>
    <edge id=":0_13" function="internal">
        <lane id=":0_13_0" index="0" speed="11.11" length="21.09" shape="489.60,495.20 496.37,495.70 501.88,496.80 506.45,497.90 510.40,498.40"/>
    </edge>
    <edge id=":0_14" function="internal">
        <lane id=":0_14_0" index="0" speed="9.26" length="19.35" shape="489.60,498.40 494.85,499.15 498.60,501.40 500.85,505.15 501.60,510.40"/>
    </edge>
    <edge id=":0_15" function="internal">
        <lane id=":0_15_0" index="0" speed="3.65" length="4.67" shape="489.60,498.40 490.80,499.20 491.20,500.00 490.80,500.80 489.60,501.60"/>
    </edge>
    <edge id=":1_0" function="internal">
        <lane id=":1_0_0" index="0" speed="3.65" length="4.67" shape="0.00,501.60 -1.20,500.80 -1.60,500.00 -1.20,499.20 0.00,498.40"/>
    </edge>
    <edge id=":2_0" function="internal">
        <lane id=":2_0_0" index="0" speed="3.65" length="4.67" shape="1000.00,498.40 1001.20,499.20 1001.60,500.00 1001.20,500.80 1000.00,501.60"/>
    </edge>
    <edge id=":3_0" function="internal">
        <lane id=":3_0_0" index="0" speed="3.65" length="4.67" shape="498.40,0.00 499.20,-1.20 500.00,-1.60 500.80,-1.20 501.60,0.00"/>
    </edge>
    <edge id=":4_0" function="internal">
        <lane id=":4_0_0" index="0" speed="3.65" length="4.67" shape="501.60,1000.00 500.80,1001.20 500.00,1001.60 499.20,1001.20 498.40,1000.00"/>
    </edge>

    <edge id="1fi" from="1" to="0" priority="-1">
        <lane id="1fi_0" index="0" speed="11.11" length="489.60" shape="0.00,495.20 489.60,495.20"/>
        <lane id="1fi_1" index="1" speed="11.11" length="489.60" shape="0.00,498.40 489.60,498.40"/>
    </edge>
    <edge id="1o" from="0" to="1" priority="-1">
        <lane id="1o_0" index="0" speed="11.11" length="489.60" shape="489.60,501.60 0.00,501.60"/>
    </edge>
    <edge id="2fi" from="2" to="0" priority="-1">
        <lane id="2fi_0" index="0" speed="11.11" length="489.60" shape="1000.00,504.80 510.40,504.80"/>
        <lane id="2fi_1" index="1" speed="11.11" length="489.60" shape="1000.00,501.60 510.40,501.60"/>
    </edge>
    <edge id="2o" from="0" to="2" priority="-1">
        <lane id="2o_0" index="0" speed="11.11" length="489.60" shape="510.40,498.40 1000.00,498.40"/>
    </edge>
    <edge id="3fi" from="3" to="0" priority="-1">
        <lane id="3fi_0" index="0" speed="11.11" length="489.60" shape="504.80,0.00 504.80,489.60"/>
        <lane id="3fi_1" index="1" speed="11.11" length="489.60" shape="501.60,0.00 501.60,489.60"/>
    </edge>
    <edge id="3o" from="0" to="3" priority="-1">
        <lane id="3o_0" index="0" speed="11.11" length="489.60" shape="498.40,489.60 498.40,0.00"/>
    </edge>
    <edge id="4fi" from="4" to="0" priority="-1">
        <lane id="4fi_0" index="0" speed="11.11" length="489.60" shape="495.20,1000.00 495.20,510.40"/>
        <lane id="4fi_1" index="1" speed="11.11" length="489.60" shape="498.40,1000.00 498.40,510.40"/>
    </edge>
    <edge id="4o" from="0" to="4" priority="-1">
        <lane id="4o_0" index="0" speed="11.11" length="489.60" shape="501.60,510.40 501.60,1000.00"/>
    </edge>

    <junction id="0" type="right_before_left" x="500.00" y="500.00" incLanes="4fi_0 4fi_1 2fi_0 2fi_1 3fi_0 3fi_1 1fi_0 1fi_1" intLanes=":0_0_0 :0_1_0 :0_2_0 :0_3_0 :0_4_0 :0_5_0 :0_6_0 :0_7_0 :0_8_0 :0_9_0 :0_10_0 :0_11_0 :0_12_0 :0_13_0 :0_14_0 :0_15_0" shape="493.60,510.40 503.20,510.40 504.00,508.18 505.00,507.40 506.40,506.84 508.20,506.51 510.40,506.40 510.40,496.80 508.18,496.00 507.40,495.00 506.84,493.60 506.51,491.80 506.40,489.60 496.80,489.60 496.00,491.82 495.00,492.60 493.60,493.16 491.80,493.49 489.60,493.60 489.60,503.20 491.82,504.00 492.60,505.00 493.16,506.40 493.49,508.20">
        <request index="0"  response="0000000000000000" foes="1000010000100000" cont="0"/>
        <request index="1"  response="0111000000000000" foes="0111110001100000" cont="0"/>
        <request index="2"  response="0110001100000000" foes="0110001111100000" cont="0"/>
        <request index="3"  response="0100001000010000" foes="0100001000010000" cont="0"/>
        <request index="4"  response="0000000000000000" foes="0100001000001000" cont="0"/>
        <request index="5"  response="0000000000000111" foes="1100011000000111" cont="0"/>
        <request index="6"  response="0011000000000110" foes="0011111000000110" cont="0"/>
        <request index="7"  response="0010000100000100" foes="0010000100000100" cont="0"/>
        <request index="8"  response="0000000000000000" foes="0010000010000100" cont="0"/>
        <request index="9"  response="0000000001110000" foes="0110000001111100" cont="0"/>
        <request index="10" response="0000000001100011" foes="1110000001100011" cont="0"/>
        <request index="11" response="0001000001000010" foes="0001000001000010" cont="0"/>
        <request index="12" response="0000000000000000" foes="0000100001000010" cont="0"/>
        <request index="13" response="0000011100000000" foes="0000011111000110" cont="0"/>
        <request index="14" response="0000011000110000" foes="0000011000111110" cont="0"/>
        <request index="15" response="0000010000100001" foes="0000010000100001" cont="0"/>
    </junction>
    <junction id="1" type="priority" x="0.00" y="500.00" incLanes="1o_0" intLanes=":1_0_0" shape="0.00,500.00 0.00,503.20 0.00,500.00">
        <request index="0" response="0" foes="0" cont="0"/>
    </junction>
    <junction id="2" type="priority" x="1000.00" y="500.00" incLanes="2o_0" intLanes=":2_0_0" shape="1000.00,500.00 1000.00,496.80 1000.00,500.00">
        <request index="0" response="0" foes="0" cont="0"/>
    </junction>
    <junction id="3" type="priority" x="500.00" y="0.00" incLanes="3o_0" intLanes=":3_0_0" shape="500.00,0.00 496.80,0.00 500.00,0.00">
        <request index="0" response="0" foes="0" cont="0"/>
    </junction>
    <junction id="4" type="priority" x="500.00" y="1000.00" incLanes="4o_0" intLanes=":4_0_0" shape="500.00,1000.00 503.20,1000.00 500.00,1000.00">
        <request index="0" response="0" foes="0" cont="0"/>
    </junction>

    <connection from="1fi" to="3o" fromLane="0" toLane="0" via=":0_12_0" dir="r" state="="/>
    <connection from="1fi" to="2o" fromLane="0" toLane="0" via=":0_13_0" dir="s" state="="/>
    <connection from="1fi" to="4o" fromLane="1" toLane="0" via=":0_14_0" dir="l" state="="/>
    <connection from="1fi" to="1o" fromLane="1" toLane="0" via=":0_15_0" dir="t" state="="/>
    <connection from="1o" to="1fi" fromLane="0" toLane="1" via=":1_0_0" dir="t" state="M"/>
    <connection from="2fi" to="4o" fromLane="0" toLane="0" via=":0_4_0" dir="r" state="="/>
    <connection from="2fi" to="1o" fromLane="0" toLane="0" via=":0_5_0" dir="s" state="="/>
    <connection from="2fi" to="3o" fromLane="1" toLane="0" via=":0_6_0" dir="l" state="="/>
    <connection from="2fi" to="2o" fromLane="1" toLane="0" via=":0_7_0" dir="t" state="="/>
    <connection from="2o" to="2fi" fromLane="0" toLane="1" via=":2_0_0" dir="t" state="M"/>
    <connection from="3fi" to="2o" fromLane="0" toLane="0" via=":0_8_0" dir="r" state="="/>
    <connection from="3fi" to="4o" fromLane="0" toLane="0" via=":0_9_0" dir="s" state="="/>
    <connection from="3fi" to="1o" fromLane="1" toLane="0" via=":0_10_0" dir="l" state="="/>
    <connection from="3fi" to="3o" fromLane="1" toLane="0" via=":0_11_0" dir="t" state="="/>
    <connection from="3o" to="3fi" fromLane="0" toLane="1" via=":3_0_0" dir="t" state="M"/>
    <connection from="4fi" to="1o" fromLane="0" toLane="0" via=":0_0_0" dir="r" state="="/>
    <connection from="4fi" to="3o" fromLane="0" toLane="0" via=":0_1_0" dir="s" state="="/>
    <connection from="4fi" to="2o" fromLane="1" toLane="0" via=":0_2_0" dir="l" state="="/>
    <connection from="4fi" to="4o" fromLane="1" toLane="0" via=":0_3_0" dir="t" state="="/>
    <connection from="4o" to="4fi" fromLane="0" toLane="1" via=":4_0_0" dir="t" state="M"/>

    <connection from=":0_0" to="1o" fromLane="0" toLane="0" dir="r" state="M"/>
    <connection from=":0_1" to="3o" fromLane="0" toLane="0" dir="s" state="M"/>
    <connection from=":0_2" to="2o" fromLane="0" toLane="0" dir="l" state="M"/>
    <connection from=":0_3" to="4o" fromLane="0" toLane="0" dir="t" state="M"/>
    <connection from=":0_4" to="4o" fromLane="0" toLane="0" dir="r" state="M"/>
    <connection from=":0_5" to="1o" fromLane="0" toLane="0" dir="s" state="M"/>
    <connection from=":0_6" to="3o" fromLane="0" toLane="0" dir="l" state="M"/>
    <connection from=":0_7" to="2o" fromLane="0" toLane="0" dir="t" state="M"/>
    <connection from=":0_8" to="2o" fromLane="0" toLane="0" dir="r" state="M"/>
    <connection from=":0_9" to="4o" fromLane="0" toLane="0" dir="s" state="M"/>
    <connection from=":0_10" to="1o" fromLane="0" toLane="0" dir="l" state="M"/>
    <connection from=":0_11" to="3o" fromLane="0" toLane="0" dir="t" state="M"/>
    <connection from=":0_12" to="3o" fromLane="0" toLane="0" dir="r" state="M"/>
    <connection from=":0_13" to="2o" fromLane="0" toLane="0" dir="s" state="M"/>
    <connection from=":0_14" to="4o" fromLane="0" toLane="0" dir="l" state="M"/>
    <connection from=":0_15" to="1o" fromLane="0" toLane="0" dir="t" state="M"/>
    <connection from=":1_0" to="1fi" fromLane="0" toLane="1" dir="t" state="M"/>
    <connection from=":2_0" to="2fi" fromLane="0" toLane="1" dir="t" state="M"/>
    <connection from=":3_0" to="3fi" fromLane="0" toLane="1" dir="t" state="M"/>
    <connection from=":4_0" to="4fi" fromLane="0" toLane="1" dir="t" state="M"/>

</net>
