<trips>
    <bogus_item expectation="fail!">
</trips>
