<?xml version="1.0" encoding="UTF-8"?>
<!-- generated on 2021-08-09 14:00:00.922860 by $Id: ptlines2flows.py v1_3_1+0313-ccb31df3eb jakob.erdmann@dlr.de 2019-09-02 13:26:32 +0200 $ v1_8_0+1925-6bf04e0fef
  options: 
-->
<routes xmlns:xsi="http://www.w3.org/2001/XMLSchema-instance" xsi:noNamespaceSchemaLocation="http://sumo.dlr.de/xsd/routes_file.xsd">
    <vType id="pt_bus" vClass="bus"/>
    <vType id="pt_tram" vClass="tram"/>
    <vType id="pt_train" vClass="rail"/>
    <vType id="pt_subway" vClass="rail_urban"/>
    <vType id="pt_light_rail" vClass="rail_urban"/>
    <vType id="pt_monorail" vClass="rail"/>
    <vType id="pt_trolleybus" vClass="bus"/>
    <vType id="pt_aerialway" vClass="bus"/>
    <vType id="pt_ferry" vClass="ship"/>
    <trip id="0_tram_10:0" type="pt_tram" depart="3" departLane="best" from="728830240#1" to="245334408#5">
        <stop busStop="2525484930" duration="30"/>
        <stop busStop="2525484873" duration="30"/>
        <stop busStop="333148448" duration="30"/>
        <stop busStop="2525484946" duration="30"/>
        <stop busStop="54143138" duration="30"/>
    </trip>
    <trip id="1_tram_10:1" type="pt_tram" depart="15" departLane="best" from="245334406#0" to="728830240#1">
        <stop busStop="54143139" duration="30"/>
        <stop busStop="54143135" duration="30"/>
        <stop busStop="333148451" duration="30"/>
        <stop busStop="54143083" duration="30"/>
        <stop busStop="2525484930" duration="30"/>
    </trip>
    <trip id="2_bus_424:0" type="pt_bus" depart="15" departLane="best" from="222336041#2" to="-5640228#0">
        <stop busStop="1780723613" duration="30"/>
        <stop busStop="-310417058" duration="30"/>
        <stop busStop="333697505" duration="30"/>
        <stop busStop="2313104473" duration="30"/>
        <stop busStop="-2310890309" duration="30"/>
        <stop busStop="2310890289" duration="30"/>
    </trip>
    <trip id="3_bus_113:0" type="pt_bus" depart="17" departLane="best" from="24803131" to="611113394">
        <stop busStop="2078032882" duration="30"/>
        <stop busStop="481115891" duration="30"/>
    </trip>
    <trip id="4_bus_113:1" type="pt_bus" depart="27" departLane="best" from="24803131" to="611113394">
        <stop busStop="2078032882" duration="30"/>
        <stop busStop="481115891" duration="30"/>
    </trip>
    <trip id="5_bus_112:0" type="pt_bus" depart="47" departLane="best" from="23187673#1" to="611113394">
        <stop busStop="250749715" duration="30"/>
        <stop busStop="481115891" duration="30"/>
    </trip>
    <trip id="6_bus_480:0" type="pt_bus" depart="52" departLane="best" from="10743323" to="-113049480#0">
        <stop busStop="-2303819179" duration="30"/>
        <stop busStop="-2304877718" duration="30"/>
        <stop busStop="-2126769010" duration="30"/>
    </trip>
    <trip id="7_tram_1:0" type="pt_tram" depart="55" departLane="best" from="859066434#3" to="245334408#5">
        <stop busStop="54142977" duration="30"/>
        <stop busStop="54143009" duration="30"/>
        <stop busStop="2525484928" duration="30"/>
        <stop busStop="2525484930" duration="30"/>
        <stop busStop="2525484873" duration="30"/>
        <stop busStop="333148448" duration="30"/>
        <stop busStop="2525484946" duration="30"/>
        <stop busStop="54143138" duration="30"/>
    </trip>
    <trip id="8_bus_416:0" type="pt_bus" depart="58" departLane="best" from="-108915817#1" to="71962469#1">
        <stop busStop="-2304877721" duration="30"/>
    </trip>
    <trip id="9_bus_416:1" type="pt_bus" depart="60" departLane="best" from="71962469#1" to="108915817#1">
        <stop busStop="2299687606" duration="30"/>
        <stop busStop="1944469926" duration="30"/>
        <stop busStop="247261400" duration="30"/>
    </trip>
    <trip id="10_bus_416:2" type="pt_bus" depart="93" departLane="best" from="71962469#1" to="108915817#1">
        <stop busStop="2299687606" duration="30"/>
        <stop busStop="1944469926" duration="30"/>
        <stop busStop="247261400" duration="30"/>
    </trip>
    <trip id="11_bus_416:3" type="pt_bus" depart="98" departLane="best" from="-108915817#1" to="71962469#1">
        <stop busStop="-2304877721" duration="30"/>
    </trip>
    <trip id="12_bus_436:0" type="pt_bus" depart="102" departLane="best" from="-165484800#1" to="427480092">
        <stop busStop="-632920367" duration="30"/>
    </trip>
    <trip id="13_bus_436:1" type="pt_bus" depart="119" departLane="best" from="-427480092" to="165484800#1">
        <stop busStop="632920372" duration="30"/>
    </trip>
    <trip id="14_bus_464:0" type="pt_bus" depart="125" departLane="best" from="222336041#2" to="427480092">
        <stop busStop="1780723613" duration="30"/>
        <stop busStop="-310417058" duration="30"/>
        <stop busStop="333697505" duration="30"/>
        <stop busStop="2313104473" duration="30"/>
        <stop busStop="-2310890309" duration="30"/>
        <stop busStop="2310890289" duration="30"/>
    </trip>
    <trip id="15_bus_464:1" type="pt_bus" depart="131" departLane="best" from="-427480092" to="625075010#1">
        <stop busStop="632920372" duration="30"/>
    </trip>
    <trip id="16_tram_1:1" type="pt_tram" depart="132" departLane="best" from="245334406#0" to="859066434#3">
        <stop busStop="54143139" duration="30"/>
        <stop busStop="54143135" duration="30"/>
        <stop busStop="333148451" duration="30"/>
        <stop busStop="54143083" duration="30"/>
        <stop busStop="54153340" duration="30"/>
        <stop busStop="54143015" duration="30"/>
        <stop busStop="54143012" duration="30"/>
        <stop busStop="54142977" duration="30"/>
    </trip>
    <trip id="17_tram_1:2" type="pt_tram" depart="133" departLane="best" from="245334406#0" to="859066434#3">
        <stop busStop="54143139" duration="30"/>
        <stop busStop="54143135" duration="30"/>
        <stop busStop="333148451" duration="30"/>
        <stop busStop="54143083" duration="30"/>
        <stop busStop="54153340" duration="30"/>
        <stop busStop="54143015" duration="30"/>
        <stop busStop="54143012" duration="30"/>
        <stop busStop="54142977" duration="30"/>
    </trip>
    <trip id="18_tram_1:3" type="pt_tram" depart="136" departLane="best" from="859066434#3" to="245334408#5">
        <stop busStop="54142977" duration="30"/>
        <stop busStop="54143009" duration="30"/>
        <stop busStop="2525484928" duration="30"/>
        <stop busStop="2525484930" duration="30"/>
        <stop busStop="2525484873" duration="30"/>
        <stop busStop="333148448" duration="30"/>
        <stop busStop="2525484946" duration="30"/>
        <stop busStop="54143138" duration="30"/>
    </trip>
    <trip id="19_bus_424:1" type="pt_bus" depart="139" departLane="best" from="5640228#0" to="625075010#1">
        <stop busStop="-4393542161" duration="30"/>
        <stop busStop="-333325794" duration="30"/>
        <stop busStop="2310890299" duration="30"/>
        <stop busStop="333697509" duration="30"/>
        <stop busStop="-2310869837" duration="30"/>
        <stop busStop="-333697504" duration="30"/>
        <stop busStop="-333697507" duration="30"/>
        <stop busStop="310417074" duration="30"/>
        <stop busStop="2313104483" duration="30"/>
    </trip>
    <trip id="20_bus_464:2" type="pt_bus" depart="160" departLane="best" from="-611113394" to="427480092">
        <stop busStop="-4539421793" duration="30"/>
    </trip>
    <trip id="21_bus_433:0" type="pt_bus" depart="165" departLane="best" from="-108915817#1" to="22780141#1">
        <stop busStop="-2304877721" duration="30"/>
    </trip>
    <trip id="22_bus_480:1" type="pt_bus" depart="166" departLane="best" from="113049480#0" to="-10743323">
        <stop busStop="2304877719" duration="30"/>
        <stop busStop="2126769011" duration="30"/>
        <stop busStop="4397131130" duration="30"/>
        <stop busStop="763452451" duration="30"/>
    </trip>
    <trip id="23_bus_484:0" type="pt_bus" depart="173" departLane="best" from="506455706" to="625075010#1">
        <stop busStop="4393374272" duration="30"/>
        <stop busStop="4112400478" duration="30"/>
        <stop busStop="4393374271" duration="30"/>
        <stop busStop="4112400476" duration="30"/>
        <stop busStop="-269321181" duration="30"/>
        <stop busStop="-4112396296" duration="30"/>
        <stop busStop="-269321182" duration="30"/>
        <stop busStop="-4112395169" duration="30"/>
        <stop busStop="269320966" duration="30"/>
        <stop busStop="344536365" duration="30"/>
        <stop busStop="4103379673" duration="30"/>
        <stop busStop="4103379672" duration="30"/>
        <stop busStop="4112383489" duration="30"/>
        <stop busStop="343692308" duration="30"/>
        <stop busStop="4112385564" duration="30"/>
        <stop busStop="343692314" duration="30"/>
        <stop busStop="343692301" duration="30"/>
        <stop busStop="2314078461" duration="30"/>
        <stop busStop="367019569" duration="30"/>
        <stop busStop="2313104483" duration="30"/>
    </trip>
    <trip id="24_bus_433:1" type="pt_bus" depart="201" departLane="best" from="-22780141#1" to="108915817#1">
        <stop busStop="-4080471903" duration="30"/>
        <stop busStop="-763406413" duration="30"/>
        <stop busStop="-763406410" duration="30"/>
        <stop busStop="-2126769009" duration="30"/>
        <stop busStop="4488574841" duration="30"/>
    </trip>
    <trip id="25_bus_414:0" type="pt_bus" depart="204" departLane="best" from="70908501#2" to="-4726782#0">
        <stop busStop="4539379541" duration="30"/>
        <stop busStop="842199418" duration="30"/>
        <stop busStop="-4539379540" duration="30"/>
        <stop busStop="-844172737" duration="30"/>
        <stop busStop="-4539379539" duration="30"/>
        <stop busStop="-844172689" duration="30"/>
        <stop busStop="4103294756" duration="30"/>
        <stop busStop="844172723" duration="30"/>
        <stop busStop="-4103274675" duration="30"/>
        <stop busStop="-844172698" duration="30"/>
        <stop busStop="-4103260847" duration="30"/>
        <stop busStop="-844172702" duration="30"/>
        <stop busStop="-4103249696" duration="30"/>
        <stop busStop="-855328418" duration="30"/>
        <stop busStop="-4103243803" duration="30"/>
        <stop busStop="-844172717" duration="30"/>
    </trip>
    <trip id="26_bus_414:1" type="pt_bus" depart="218" departLane="best" from="4726782#0" to="82457821#1">
        <stop busStop="4539379534" duration="30"/>
        <stop busStop="844172701" duration="30"/>
        <stop busStop="4103249697" duration="30"/>
        <stop busStop="844172703" duration="30"/>
        <stop busStop="4539379535" duration="30"/>
        <stop busStop="844172696" duration="30"/>
        <stop busStop="4103284302" duration="30"/>
        <stop busStop="844172692" duration="30"/>
    </trip>
    <trip id="27_bus_414:2" type="pt_bus" depart="222" departLane="best" from="4726782#0" to="23187673#1">
        <stop busStop="4539379534" duration="30"/>
        <stop busStop="844172701" duration="30"/>
        <stop busStop="4103249697" duration="30"/>
        <stop busStop="844172703" duration="30"/>
        <stop busStop="4539379535" duration="30"/>
        <stop busStop="844172696" duration="30"/>
        <stop busStop="4539379536" duration="30"/>
        <stop busStop="844172750" duration="30"/>
        <stop busStop="269321675" duration="30"/>
        <stop busStop="4103294757" duration="30"/>
        <stop busStop="4103297697" duration="30"/>
        <stop busStop="844172741" duration="30"/>
        <stop busStop="4103308340" duration="30"/>
        <stop busStop="844172725" duration="30"/>
        <stop busStop="4103284302" duration="30"/>
        <stop busStop="844172692" duration="30"/>
        <stop busStop="248483771" duration="30"/>
        <stop busStop="715902961" duration="30"/>
        <stop busStop="91600371" duration="30"/>
        <stop busStop="4103408008" duration="30"/>
        <stop busStop="4539420388" duration="30"/>
        <stop busStop="4103427181" duration="30"/>
        <stop busStop="91556880" duration="30"/>
        <stop busStop="4103539293" duration="30"/>
        <stop busStop="4626215440" duration="30"/>
        <stop busStop="4103489890" duration="30"/>
        <stop busStop="-4539421793" duration="30"/>
    </trip>
    <trip id="28_bus_414:3" type="pt_bus" depart="227" departLane="best" from="4726782#0" to="31000150#2">
        <stop busStop="4539379534" duration="30"/>
        <stop busStop="844172701" duration="30"/>
        <stop busStop="4103249697" duration="30"/>
        <stop busStop="844172703" duration="30"/>
        <stop busStop="4539379535" duration="30"/>
        <stop busStop="844172696" duration="30"/>
        <stop busStop="4539379536" duration="30"/>
        <stop busStop="844172750" duration="30"/>
        <stop busStop="269321675" duration="30"/>
        <stop busStop="4103294757" duration="30"/>
        <stop busStop="4103297697" duration="30"/>
        <stop busStop="844172741@6768241" duration="30"/>
    </trip>
    <trip id="29_bus_414:4" type="pt_bus" depart="227" departLane="best" from="-625070025#0" to="-4726782#0">
        <stop busStop="-4539379539" duration="30"/>
        <stop busStop="-844172689@6768242" duration="30"/>
        <stop busStop="4103294756" duration="30"/>
        <stop busStop="844172723" duration="30"/>
        <stop busStop="-4103274675" duration="30"/>
        <stop busStop="-844172698" duration="30"/>
        <stop busStop="-4103260847" duration="30"/>
        <stop busStop="-844172702" duration="30"/>
        <stop busStop="-4103249696" duration="30"/>
        <stop busStop="-855328418" duration="30"/>
        <stop busStop="-4103243803" duration="30"/>
        <stop busStop="-844172717" duration="30"/>
    </trip>
    <trip id="30_bus_434:0" type="pt_bus" depart="253" departLane="best" from="23187673#1" to="611113394">
        <stop busStop="250749715" duration="30"/>
        <stop busStop="481115891" duration="30"/>
    </trip>
    <trip id="31_bus_434:1" type="pt_bus" depart="303" departLane="best" from="-611113394" to="23187673#1">
        <stop busStop="-4539421793" duration="30"/>
    </trip>
    <trip id="32_bus_414:5" type="pt_bus" depart="321" departLane="best" from="70908501#2" to="-625070025#0">
        <stop busStop="4539379541" duration="30"/>
        <stop busStop="842199418" duration="30"/>
        <stop busStop="-4539379540" duration="30"/>
        <stop busStop="-844172737" duration="30"/>
        <stop busStop="-4539379539" duration="30"/>
        <stop busStop="-844172689" duration="30"/>
    </trip>
    <trip id="33_bus_414:6" type="pt_bus" depart="326" departLane="best" from="4726782#0" to="625070018#2">
        <stop busStop="4539379534" duration="30"/>
        <stop busStop="844172701" duration="30"/>
        <stop busStop="4103249697" duration="30"/>
        <stop busStop="844172703" duration="30"/>
        <stop busStop="4539379535" duration="30"/>
        <stop busStop="844172696" duration="30"/>
        <stop busStop="4539379536" duration="30"/>
        <stop busStop="844172750" duration="30"/>
        <stop busStop="269321675" duration="30"/>
        <stop busStop="4103294757" duration="30"/>
        <stop busStop="4103297697" duration="30"/>
        <stop busStop="844172741" duration="30"/>
        <stop busStop="4103308340" duration="30"/>
        <stop busStop="844172725@6953325" duration="30"/>
    </trip>
    <trip id="34_bus_416:4" type="pt_bus" depart="331" departLane="best" from="-5640212#12" to="71962469#1">
        <stop busStop="-41944784" duration="30"/>
        <stop busStop="2299687606" duration="30"/>
        <stop busStop="1944469926@6953326" duration="30"/>
    </trip>
    <trip id="35_bus_424:2" type="pt_bus" depart="346" departLane="best" from="5640228#0" to="23187673#1">
        <stop busStop="-4393542161" duration="30"/>
        <stop busStop="-333325794" duration="30"/>
        <stop busStop="2310890299" duration="30"/>
        <stop busStop="333697509" duration="30"/>
        <stop busStop="-2310869837" duration="30"/>
        <stop busStop="-333697504" duration="30"/>
        <stop busStop="-333697507" duration="30"/>
        <stop busStop="4539421794" duration="30"/>
    </trip>
    <trip id="36_bus_424:3" type="pt_bus" depart="353" departLane="best" from="5640228#0" to="625075010#1">
        <stop busStop="-4393542161" duration="30"/>
        <stop busStop="-333325794" duration="30"/>
        <stop busStop="2310890299" duration="30"/>
        <stop busStop="333697509" duration="30"/>
        <stop busStop="-2310869837" duration="30"/>
        <stop busStop="-333697504" duration="30"/>
        <stop busStop="-333697507" duration="30"/>
        <stop busStop="310417074" duration="30"/>
        <stop busStop="2313104483" duration="30"/>
    </trip>
    <trip id="37_bus_424:4" type="pt_bus" depart="362" departLane="best" from="5640228#0" to="625075010#1">
        <stop busStop="-4393542161" duration="30"/>
        <stop busStop="-333325794" duration="30"/>
        <stop busStop="2310890299" duration="30"/>
        <stop busStop="333697509" duration="30"/>
        <stop busStop="-2310869837" duration="30"/>
        <stop busStop="-333697504" duration="30"/>
        <stop busStop="-333697507" duration="30"/>
        <stop busStop="310417074" duration="30"/>
        <stop busStop="2313104483" duration="30"/>
    </trip>
    <trip id="38_bus_424:5" type="pt_bus" depart="365" departLane="best" from="222336041#2" to="-5640228#0">
        <stop busStop="1780723613" duration="30"/>
        <stop busStop="-310417058" duration="30"/>
        <stop busStop="333697505" duration="30"/>
        <stop busStop="2313104473" duration="30"/>
        <stop busStop="-2310890309" duration="30"/>
        <stop busStop="2310890289" duration="30"/>
    </trip>
    <trip id="39_bus_424:6" type="pt_bus" depart="371" departLane="best" from="222336041#2" to="-5640228#0">
        <stop busStop="1780723613" duration="30"/>
        <stop busStop="-310417058" duration="30"/>
        <stop busStop="333697505" duration="30"/>
        <stop busStop="2313104473" duration="30"/>
        <stop busStop="-2310890309" duration="30"/>
        <stop busStop="2310890289" duration="30"/>
    </trip>
    <trip id="40_bus_433:2" type="pt_bus" depart="381" departLane="best" from="-108915817#1" to="22780141#1">
        <stop busStop="-2304877721" duration="30"/>
    </trip>
    <trip id="41_bus_434:2" type="pt_bus" depart="383" departLane="best" from="23187673#1" to="611113394">
        <stop busStop="481115891" duration="30"/>
    </trip>
    <trip id="42_bus_434:3" type="pt_bus" depart="388" departLane="best" from="23187673#1" to="611113394">
        <stop busStop="481115891" duration="30"/>
    </trip>
    <trip id="43_bus_434:4" type="pt_bus" depart="389" departLane="best" from="-611113394" to="23187673#1">
        <stop busStop="-4539421793" duration="30"/>
    </trip>
    <trip id="44_bus_434:5" type="pt_bus" depart="406" departLane="best" from="-611113394" to="23187673#1">
        <stop busStop="-4539421793" duration="30"/>
    </trip>
    <trip id="45_bus_484:1" type="pt_bus" depart="418" departLane="best" from="278491962#27" to="625075010#1">
        <stop busStop="4393385970" duration="30"/>
        <stop busStop="-4393385969" duration="30"/>
        <stop busStop="4393385966" duration="30"/>
        <stop busStop="4393385967" duration="30"/>
        <stop busStop="4393374272" duration="30"/>
        <stop busStop="4112400478" duration="30"/>
        <stop busStop="4393374271" duration="30"/>
        <stop busStop="4112400476" duration="30"/>
        <stop busStop="-269321181" duration="30"/>
        <stop busStop="-4112396296" duration="30"/>
        <stop busStop="-269321182" duration="30"/>
        <stop busStop="-4112395169" duration="30"/>
        <stop busStop="269320966" duration="30"/>
        <stop busStop="344536365" duration="30"/>
        <stop busStop="4103379673" duration="30"/>
        <stop busStop="4103379672" duration="30"/>
        <stop busStop="4112383489" duration="30"/>
        <stop busStop="343692308" duration="30"/>
        <stop busStop="4112385564" duration="30"/>
        <stop busStop="343692314" duration="30"/>
        <stop busStop="343692301" duration="30"/>
        <stop busStop="2314078461" duration="30"/>
        <stop busStop="367019569" duration="30"/>
        <stop busStop="2313104483" duration="30"/>
    </trip>
    <trip id="46_bus_484:2" type="pt_bus" depart="422" departLane="best" from="722504211#3" to="625075010#1">
        <stop busStop="4393374272" duration="30"/>
        <stop busStop="4112400478" duration="30"/>
        <stop busStop="4393374271" duration="30"/>
        <stop busStop="4112400476" duration="30"/>
        <stop busStop="-269321181" duration="30"/>
        <stop busStop="-4112396296" duration="30"/>
        <stop busStop="-269321182" duration="30"/>
        <stop busStop="-4112395169" duration="30"/>
        <stop busStop="269320966" duration="30"/>
        <stop busStop="344536365" duration="30"/>
        <stop busStop="4103379673" duration="30"/>
        <stop busStop="4103379672" duration="30"/>
        <stop busStop="4112383489" duration="30"/>
        <stop busStop="343692308" duration="30"/>
        <stop busStop="4112385564" duration="30"/>
        <stop busStop="343692314" duration="30"/>
        <stop busStop="343692301" duration="30"/>
        <stop busStop="2314078461" duration="30"/>
        <stop busStop="367019569" duration="30"/>
        <stop busStop="2313104483" duration="30"/>
    </trip>
    <trip id="47_bus_484:3" type="pt_bus" depart="437" departLane="best" from="222336041#2" to="722504209#3">
        <stop busStop="1780723613" duration="30"/>
        <stop busStop="367019365" duration="30"/>
        <stop busStop="343692298" duration="30"/>
        <stop busStop="4112383490" duration="30"/>
        <stop busStop="343692303" duration="30"/>
        <stop busStop="4112385563" duration="30"/>
        <stop busStop="343692311" duration="30"/>
        <stop busStop="269320278" duration="30"/>
        <stop busStop="4103379671" duration="30"/>
        <stop busStop="1355332139" duration="30"/>
        <stop busStop="344536364" duration="30"/>
        <stop busStop="4393374269" duration="30"/>
        <stop busStop="4112395168" duration="30"/>
        <stop busStop="4393374270" duration="30"/>
        <stop busStop="4112396297" duration="30"/>
        <stop busStop="-269321180" duration="30"/>
        <stop busStop="-4112400477" duration="30"/>
        <stop busStop="-269321183" duration="30"/>
        <stop busStop="-4112400479" duration="30"/>
        <stop busStop="4393385968" duration="30"/>
        <stop busStop="4393385965" duration="30"/>
        <stop busStop="4393385970" duration="30"/>
        <stop busStop="4393385969@7018922" duration="30"/>
    </trip>
    <trip id="48_bus_484:4" type="pt_bus" depart="437" departLane="best" from="222336041#2" to="-23170152#0">
        <stop busStop="1780723613" duration="30"/>
        <stop busStop="367019365" duration="30"/>
        <stop busStop="343692298" duration="30"/>
        <stop busStop="4112383490" duration="30"/>
        <stop busStop="343692303" duration="30"/>
        <stop busStop="4112385563" duration="30"/>
        <stop busStop="343692311" duration="30"/>
        <stop busStop="269320278" duration="30"/>
        <stop busStop="4103379671" duration="30"/>
        <stop busStop="1355332139" duration="30"/>
        <stop busStop="344536364" duration="30"/>
        <stop busStop="4393374269" duration="30"/>
        <stop busStop="4112395168" duration="30"/>
        <stop busStop="4393374270" duration="30"/>
        <stop busStop="4112396297" duration="30"/>
        <stop busStop="-269321180" duration="30"/>
        <stop busStop="-4112400477" duration="30"/>
        <stop busStop="-269321183" duration="30"/>
        <stop busStop="-4112400479@7018923" duration="30"/>
    </trip>
    <trip id="49_bus_484:5" type="pt_bus" depart="441" departLane="best" from="222336041#2" to="-506455706">
        <stop busStop="1780723613" duration="30"/>
        <stop busStop="367019365" duration="30"/>
        <stop busStop="343692298" duration="30"/>
        <stop busStop="4112383490" duration="30"/>
        <stop busStop="343692303" duration="30"/>
        <stop busStop="4112385563" duration="30"/>
        <stop busStop="343692311" duration="30"/>
        <stop busStop="269320278" duration="30"/>
        <stop busStop="4103379671" duration="30"/>
        <stop busStop="1355332139" duration="30"/>
        <stop busStop="344536364" duration="30"/>
        <stop busStop="4393374269" duration="30"/>
        <stop busStop="4112395168" duration="30"/>
        <stop busStop="4393374270" duration="30"/>
        <stop busStop="4112396297" duration="30"/>
        <stop busStop="-269321180" duration="30"/>
        <stop busStop="-4112400477" duration="30"/>
        <stop busStop="-269321183" duration="30"/>
        <stop busStop="-4112400479" duration="30"/>
    </trip>
    <trip id="50_tram_1:4" type="pt_tram" depart="483" departLane="best" from="245334406#0" to="859066434#3">
        <stop busStop="54143139" duration="30"/>
        <stop busStop="54143135" duration="30"/>
        <stop busStop="333148451" duration="30"/>
        <stop busStop="54143083" duration="30"/>
        <stop busStop="54153340" duration="30"/>
        <stop busStop="54143015" duration="30"/>
        <stop busStop="54143012" duration="30"/>
        <stop busStop="54142977" duration="30"/>
    </trip>
    <trip id="51_tram_1:5" type="pt_tram" depart="484" departLane="best" from="859066434#3" to="245334408#5">
        <stop busStop="54142977" duration="30"/>
        <stop busStop="54143009" duration="30"/>
        <stop busStop="2525484928" duration="30"/>
        <stop busStop="2525484930" duration="30"/>
        <stop busStop="2525484873" duration="30"/>
        <stop busStop="333148448" duration="30"/>
        <stop busStop="2525484946" duration="30"/>
        <stop busStop="54143138" duration="30"/>
    </trip>
    <trip id="52_bus_191:0" type="pt_bus" depart="485" departLane="best" from="-611113394" to="23187673#1">
        <stop busStop="-4539421793" duration="30"/>
    </trip>
    <trip id="53_bus_191:1" type="pt_bus" depart="497" departLane="best" from="23187673#1" to="611113394">
        <stop busStop="250749715" duration="30"/>
        <stop busStop="481115891" duration="30"/>
    </trip>
    <trip id="54_bus_191:2" type="pt_bus" depart="508" departLane="best" from="-611113394" to="23187673#1">
        <stop busStop="-4539421793" duration="30"/>
    </trip>
    <trip id="55_bus_191:3" type="pt_bus" depart="517" departLane="best" from="23187673#1" to="611113394">
        <stop busStop="250749715" duration="30"/>
        <stop busStop="481115891" duration="30"/>
    </trip>
    <trip id="56_bus_111:0" type="pt_bus" depart="535" departLane="best" from="-611113394" to="23187673#1">
        <stop busStop="-4539421793" duration="30"/>
    </trip>
    <trip id="57_bus_111:1" type="pt_bus" depart="561" departLane="best" from="23187673#1" to="611113394">
        <stop busStop="250749715" duration="30"/>
        <stop busStop="481115891" duration="30"/>
    </trip>
    <trip id="58_bus_484:6" type="pt_bus" depart="574" departLane="best" from="222336041#2" to="-506455706">
        <stop busStop="1780723613" duration="30"/>
        <stop busStop="367019365" duration="30"/>
        <stop busStop="343692298" duration="30"/>
        <stop busStop="4112383490" duration="30"/>
        <stop busStop="343692303" duration="30"/>
        <stop busStop="4112385563" duration="30"/>
        <stop busStop="343692311" duration="30"/>
        <stop busStop="269320278" duration="30"/>
        <stop busStop="4103379671" duration="30"/>
        <stop busStop="1355332139" duration="30"/>
        <stop busStop="344536364" duration="30"/>
        <stop busStop="4393374269" duration="30"/>
        <stop busStop="4112395168" duration="30"/>
        <stop busStop="4393374270" duration="30"/>
        <stop busStop="4112396297" duration="30"/>
        <stop busStop="-269321180" duration="30"/>
        <stop busStop="-4112400477" duration="30"/>
        <stop busStop="-269321183" duration="30"/>
        <stop busStop="-4112400479" duration="30"/>
        <stop busStop="4393385968" duration="30"/>
        <stop busStop="4393385965" duration="30"/>
        <stop busStop="4393385970" duration="30"/>
        <stop busStop="4393385969@7018922" duration="30"/>
        <stop busStop="4393385966" duration="30"/>
        <stop busStop="4393385967" duration="30"/>
    </trip>
    <trip id="59_bus_414:7" type="pt_bus" depart="583" departLane="best" from="23187673#1" to="-4726782#0">
        <stop busStop="250749715" duration="30"/>
        <stop busStop="481115891" duration="30"/>
    </trip>
</routes>
