<?xml version="1.0" encoding="UTF-8"?>

<routes xmlns:xsi="http://www.w3.org/2001/XMLSchema-instance" xsi:noNamespaceSchemaLocation="http://sumo.dlr.de/xsd/routes_file.xsd">
    <vType id="DEFAULT_VEHTYPE" sigma="0"/>
    <route id="r0" edges="SC CN"/>
    <flow id="f" begin="0" end="20" probability="0.25" route="r0"/>
</routes>
