<?xml version="1.0" encoding="UTF-8"?>

<!-- generated on 2023-04-24 09:00:10 by Eclipse SUMO netedit Version v1_16_0+2323-f17b5f3d5ae
-->

<additional xmlns:xsi="http://www.w3.org/2001/XMLSchema-instance" xsi:noNamespaceSchemaLocation="http://sumo.dlr.de/xsd/additional_file.xsd">
    <!-- Detectors -->
    <inductionLoop id="e1_0" lane="E10_0" pos="17.80" period="300.00" file="detectorOutput.xml" friendlyPos="1"/>
    <inductionLoop id="e1_2" lane="E30_0" pos="17.80" period="300.00" file="detectorOutput.xml" friendlyPos="1"/>
    <inductionLoop id="e1_4" lane="E00_0" pos="17.80" period="300.00" file="detectorOutput.xml" friendlyPos="1"/>
    <inductionLoop id="e1_7" lane="E20_0" pos="17.80" period="300.00" file="detectorOutput.xml" friendlyPos="1"/>
</additional>
