<?xml version="1.0" encoding="UTF-8"?>

<!-- generated on 2023-04-24 09:00:08 by Eclipse SUMO netedit Version v1_16_0+2323-f17b5f3d5ae
<configuration xmlns:xsi="http://www.w3.org/2001/XMLSchema-instance" xsi:noNamespaceSchemaLocation="http://sumo.dlr.de/xsd/netconvertConfiguration.xsd">

    <input>
        <additional-files value="C:\Users\alva_pa\.texttest\tmp\netedit.gui.24Apr085909.18148\netedit.gui\netelements\junctions\roundabouts\big_radius\additionals.add.xml"/>
        <route-files value="C:\Users\alva_pa\.texttest\tmp\netedit.gui.24Apr085909.18148\netedit.gui\netelements\junctions\roundabouts\big_radius\routes.rou.xml"/>
        <data-files value="C:\Users\alva_pa\.texttest\tmp\netedit.gui.24Apr085909.18148\netedit.gui\netelements\junctions\roundabouts\big_radius\datas.dat.xml"/>
        <sumo-net-file value="C:\Users\alva_pa\.texttest\tmp\netedit.gui.24Apr085909.18148\netedit.gui\netelements\junctions\roundabouts\big_radius\net.net.xml"/>
    </input>

    <output>
        <output-file value="C:\Users\alva_pa\.texttest\tmp\netedit.gui.24Apr085909.18148\netedit.gui\netelements\junctions\roundabouts\big_radius\net.net.xml"/>
    </output>

    <processing>
        <geometry.min-radius.fix.railways value="false"/>
        <geometry.max-grade.fix value="false"/>
        <offset.disable-normalization value="true"/>
        <lefthand value="0"/>
    </processing>

    <junctions>
        <no-turnarounds value="true"/>
        <junctions.corner-detail value="5"/>
        <junctions.limit-turn-speed value="5.50"/>
        <rectangular-lane-cut value="0"/>
    </junctions>

    <pedestrian>
        <walkingareas value="0"/>
    </pedestrian>

    <visualisation>
        <gui-settings-file value="C:\Users\alva_pa\.texttest\tmp\netedit.gui.24Apr085909.18148\netedit.gui\netelements\junctions\roundabouts\big_radius\gui-settings.xml"/>
        <window-size value="1280, 720"/>
        <window-pos value="50,50"/>
        <gui-testing value="true"/>
        <gui-testing.setting-output value="C:\Users\alva_pa\.texttest\tmp\netedit.gui.24Apr085909.18148\netedit.gui\netelements\junctions\roundabouts\big_radius\guisettingsoutput.xml"/>
    </visualisation>

    <report>
        <no-warnings value="true"/>
        <error-log value="C:\Users\alva_pa\.texttest\tmp\netedit.gui.24Apr085909.18148\netedit.gui\netelements\junctions\roundabouts\big_radius\log.txt"/>
    </report>

</configuration>
-->

<net version="1.16" junctionCornerDetail="5" limitTurnSpeed="5.50" xmlns:xsi="http://www.w3.org/2001/XMLSchema-instance" xsi:noNamespaceSchemaLocation="http://sumo.dlr.de/xsd/net_file.xsd">

    <location netOffset="25.00,0.00" convBoundary="-399.96,-399.96,399.96,399.96" origBoundary="-10000000000.00,-10000000000.00,10000000000.00,10000000000.00" projParameter="!"/>

    <edge id=":J5_0" function="internal">
        <lane id=":J5_0_0" index="0" speed="3.25" length="3.20" shape="-1.60,49.90 1.60,49.93"/>
    </edge>
    <edge id=":J5_1" function="internal">
        <lane id=":J5_1_0" index="0" speed="3.25" length="3.20" shape="-1.60,49.93 1.60,49.90"/>
    </edge>
    <edge id=":J6_0" function="internal">
        <lane id=":J6_0_0" index="0" speed="3.25" length="3.20" shape="49.90,1.60 49.93,-1.60"/>
    </edge>
    <edge id=":J6_1" function="internal">
        <lane id=":J6_1_0" index="0" speed="3.25" length="3.20" shape="49.93,1.60 49.90,-1.60"/>
    </edge>
    <edge id=":J7_0" function="internal">
        <lane id=":J7_0_0" index="0" speed="3.25" length="3.20" shape="1.60,-49.90 -1.60,-49.93"/>
    </edge>
    <edge id=":J7_1" function="internal">
        <lane id=":J7_1_0" index="0" speed="3.25" length="3.20" shape="1.60,-49.93 -1.60,-49.90"/>
    </edge>
    <edge id=":J8_0" function="internal">
        <lane id=":J8_0_0" index="0" speed="3.25" length="3.20" shape="-49.90,-1.60 -49.93,1.60"/>
    </edge>
    <edge id=":J8_1" function="internal">
        <lane id=":J8_1_0" index="0" speed="3.25" length="3.20" shape="-49.93,-1.60 -49.90,1.60"/>
    </edge>

    <edge id="-E0" from="J1" to="J6" priority="-1">
        <lane id="-E0_0" index="0" speed="13.89" length="0.10" shape="50.00,1.60 49.90,1.60"/>
    </edge>
    <edge id="-E1" from="J2" to="J8" priority="-1">
        <lane id="-E1_0" index="0" speed="13.89" length="0.10" shape="-50.00,-1.60 -49.90,-1.60"/>
    </edge>
    <edge id="-E2" from="J3" to="J7" priority="-1">
        <lane id="-E2_0" index="0" speed="13.89" length="0.10" shape="1.60,-50.00 1.60,-49.90"/>
    </edge>
    <edge id="-E3" from="J4" to="J5" priority="-1">
        <lane id="-E3_0" index="0" speed="13.89" length="0.10" shape="-1.60,50.00 -1.60,49.90"/>
    </edge>
    <edge id="E0" from="J6" to="J5" priority="-1" shape="49.90,0.00 399.96,5.98 399.82,11.97 399.60,17.95 399.28,23.92 398.88,29.89 398.39,35.86 397.81,41.81 397.14,47.76 396.38,53.69 395.53,59.62 394.60,65.53 393.57,71.42 392.46,77.30 391.26,83.16 389.97,89.01 388.60,94.83 387.13,100.63 385.59,106.41 383.95,112.17 382.23,117.90 380.42,123.61 378.53,129.28 376.55,134.93 374.49,140.55 372.35,146.14 370.12,151.69 367.81,157.21 365.42,162.69 362.94,168.14 360.39,173.55 357.75,178.93 355.03,184.26 352.24,189.55 349.36,194.80 346.41,200.00 343.38,205.16 340.27,210.27 337.09,215.34 333.83,220.36 330.50,225.33 327.09,230.25 323.61,235.11 320.05,239.93 316.43,244.69 312.73,249.40 308.97,254.05 305.13,258.64 301.23,263.18 297.26,267.65 293.22,272.07 289.12,276.43 284.95,280.72 280.72,284.95 276.43,289.12 272.07,293.22 267.65,297.26 263.18,301.23 258.64,305.13 254.05,308.97 249.40,312.73 244.69,316.43 239.93,320.05 235.11,323.61 230.25,327.09 225.33,330.50 220.36,333.83 215.34,337.09 210.27,340.27 205.16,343.38 200.00,346.41 194.80,349.36 189.55,352.24 184.26,355.03 178.93,357.75 173.55,360.39 168.14,362.94 162.69,365.42 157.21,367.81 151.69,370.12 146.14,372.35 140.55,374.49 134.93,376.55 129.28,378.53 123.61,380.42 117.90,382.23 112.17,383.95 106.41,385.59 100.63,387.13 94.83,388.60 89.01,389.97 83.16,391.26 77.30,392.46 71.42,393.57 65.53,394.60 59.62,395.53 53.69,396.38 47.76,397.14 41.81,397.81 35.86,398.39 29.89,398.88 23.92,399.28 17.95,399.60 11.97,399.82 5.98,399.96 0.00,49.90">
        <lane id="E0_0" index="0" speed="13.89" length="1325.45" shape="49.93,-1.60 401.60,4.41 401.42,12.02 401.20,18.02 400.88,24.02 400.48,30.01 399.98,36.00 399.40,41.98 398.73,47.95 397.97,53.91 397.11,59.86 396.18,65.79 395.14,71.71 394.03,77.61 392.83,83.49 391.53,89.37 390.15,95.21 388.68,101.03 387.13,106.84 385.49,112.62 383.76,118.37 381.94,124.10 380.04,129.80 378.06,135.47 375.99,141.11 373.84,146.72 371.60,152.30 369.28,157.84 366.88,163.34 364.39,168.81 361.83,174.24 359.18,179.65 356.45,185.00 353.65,190.31 350.76,195.58 347.80,200.80 344.75,205.98 341.63,211.11 338.44,216.20 335.17,221.24 331.82,226.23 328.40,231.17 324.90,236.05 321.33,240.89 317.70,245.67 313.98,250.40 310.21,255.07 306.35,259.67 302.44,264.23 298.45,268.72 294.39,273.16 290.28,277.54 286.09,281.84 281.84,286.09 277.54,290.28 273.16,294.39 268.72,298.45 264.23,302.44 259.67,306.35 255.07,310.21 250.40,313.98 245.67,317.70 240.89,321.33 236.05,324.90 231.17,328.40 226.23,331.82 221.24,335.17 216.20,338.44 211.11,341.63 205.98,344.75 200.80,347.80 195.58,350.76 190.31,353.65 185.00,356.45 179.65,359.18 174.24,361.83 168.81,364.39 163.34,366.88 157.84,369.28 152.30,371.60 146.72,373.84 141.11,375.99 135.47,378.06 129.80,380.04 124.10,381.94 118.37,383.76 112.62,385.49 106.84,387.13 101.03,388.68 95.21,390.15 89.37,391.53 83.49,392.83 77.61,394.03 71.71,395.14 65.79,396.18 59.86,397.11 53.91,397.97 47.95,398.73 41.98,399.40 36.00,399.98 30.01,400.48 24.02,400.88 18.02,401.20 12.02,401.42 4.41,401.60 -1.60,49.93"/>
    </edge>
    <edge id="E00" from="J6" to="J1" priority="-1">
        <lane id="E00_0" index="0" speed="13.89" length="0.10" shape="49.90,-1.60 50.00,-1.60"/>
    </edge>
    <edge id="E1" from="J7" to="J6" priority="-1" shape="0.00,-49.90 5.98,-399.96 11.97,-399.82 17.95,-399.60 23.92,-399.28 29.89,-398.88 35.86,-398.39 41.81,-397.81 47.76,-397.14 53.69,-396.38 59.62,-395.53 65.53,-394.60 71.42,-393.57 77.30,-392.46 83.16,-391.26 89.01,-389.97 94.83,-388.60 100.63,-387.13 106.41,-385.59 112.17,-383.95 117.90,-382.23 123.61,-380.42 129.28,-378.53 134.93,-376.55 140.55,-374.49 146.14,-372.35 151.69,-370.12 157.21,-367.81 162.69,-365.42 168.14,-362.94 173.55,-360.39 178.93,-357.75 184.26,-355.03 189.55,-352.24 194.80,-349.36 200.00,-346.41 205.16,-343.38 210.27,-340.27 215.34,-337.09 220.36,-333.83 225.33,-330.50 230.25,-327.09 235.11,-323.61 239.93,-320.05 244.69,-316.43 249.40,-312.73 254.05,-308.97 258.64,-305.13 263.18,-301.23 267.65,-297.26 272.07,-293.22 276.43,-289.12 280.72,-284.95 284.95,-280.72 289.12,-276.43 293.22,-272.07 297.26,-267.65 301.23,-263.18 305.13,-258.64 308.97,-254.05 312.73,-249.40 316.43,-244.69 320.05,-239.93 323.61,-235.11 327.09,-230.25 330.50,-225.33 333.83,-220.36 337.09,-215.34 340.27,-210.27 343.38,-205.16 346.41,-200.00 349.36,-194.80 352.24,-189.55 355.03,-184.26 357.75,-178.93 360.39,-173.55 362.94,-168.14 365.42,-162.69 367.81,-157.21 370.12,-151.69 372.35,-146.14 374.49,-140.55 376.55,-134.93 378.53,-129.28 380.42,-123.61 382.23,-117.90 383.95,-112.17 385.59,-106.41 387.13,-100.63 388.60,-94.83 389.97,-89.01 391.26,-83.16 392.46,-77.30 393.57,-71.42 394.60,-65.53 395.53,-59.62 396.38,-53.69 397.14,-47.76 397.81,-41.81 398.39,-35.86 398.88,-29.89 399.28,-23.92 399.60,-17.95 399.82,-11.97 399.96,-5.98 49.90,0.00">
        <lane id="E1_0" index="0" speed="13.89" length="1325.45" shape="-1.60,-49.93 4.41,-401.60 12.02,-401.42 18.02,-401.20 24.02,-400.88 30.01,-400.48 36.00,-399.98 41.98,-399.40 47.95,-398.73 53.91,-397.97 59.86,-397.11 65.79,-396.18 71.71,-395.14 77.61,-394.03 83.49,-392.83 89.37,-391.53 95.21,-390.15 101.03,-388.68 106.84,-387.13 112.62,-385.49 118.37,-383.76 124.10,-381.94 129.80,-380.04 135.47,-378.06 141.11,-375.99 146.72,-373.84 152.30,-371.60 157.84,-369.28 163.34,-366.88 168.81,-364.39 174.24,-361.83 179.65,-359.18 185.00,-356.45 190.31,-353.65 195.58,-350.76 200.80,-347.80 205.98,-344.75 211.11,-341.63 216.20,-338.44 221.24,-335.17 226.23,-331.82 231.17,-328.40 236.05,-324.90 240.89,-321.33 245.67,-317.70 250.40,-313.98 255.07,-310.21 259.67,-306.35 264.23,-302.44 268.72,-298.45 273.16,-294.39 277.54,-290.28 281.84,-286.09 286.09,-281.84 290.28,-277.54 294.39,-273.16 298.45,-268.72 302.44,-264.23 306.35,-259.67 310.21,-255.07 313.98,-250.40 317.70,-245.67 321.33,-240.89 324.90,-236.05 328.40,-231.17 331.82,-226.23 335.17,-221.24 338.44,-216.20 341.63,-211.11 344.75,-205.98 347.80,-200.80 350.76,-195.58 353.65,-190.31 356.45,-185.00 359.18,-179.65 361.83,-174.24 364.39,-168.81 366.88,-163.34 369.28,-157.84 371.60,-152.30 373.84,-146.72 375.99,-141.11 378.06,-135.47 380.04,-129.80 381.94,-124.10 383.76,-118.37 385.49,-112.62 387.13,-106.84 388.68,-101.03 390.15,-95.21 391.53,-89.37 392.83,-83.49 394.03,-77.61 395.14,-71.71 396.18,-65.79 397.11,-59.86 397.97,-53.91 398.73,-47.95 399.40,-41.98 399.98,-36.00 400.48,-30.01 400.88,-24.02 401.20,-18.02 401.42,-12.02 401.60,-4.41 49.93,1.60"/>
    </edge>
    <edge id="E10" from="J8" to="J2" priority="-1">
        <lane id="E10_0" index="0" speed="13.89" length="0.10" shape="-49.90,1.60 -50.00,1.60"/>
    </edge>
    <edge id="E2" from="J8" to="J7" priority="-1" shape="-49.90,0.00 -399.96,-5.98 -399.82,-11.97 -399.60,-17.95 -399.28,-23.92 -398.88,-29.89 -398.39,-35.86 -397.81,-41.81 -397.14,-47.76 -396.38,-53.69 -395.53,-59.62 -394.60,-65.53 -393.57,-71.42 -392.46,-77.30 -391.26,-83.16 -389.97,-89.01 -388.60,-94.83 -387.13,-100.63 -385.59,-106.41 -383.95,-112.17 -382.23,-117.90 -380.42,-123.61 -378.53,-129.28 -376.55,-134.93 -374.49,-140.55 -372.35,-146.14 -370.12,-151.69 -367.81,-157.21 -365.42,-162.69 -362.94,-168.14 -360.39,-173.55 -357.75,-178.93 -355.03,-184.26 -352.24,-189.55 -349.36,-194.80 -346.41,-200.00 -343.38,-205.16 -340.27,-210.27 -337.09,-215.34 -333.83,-220.36 -330.50,-225.33 -327.09,-230.25 -323.61,-235.11 -320.05,-239.93 -316.43,-244.69 -312.73,-249.40 -308.97,-254.05 -305.13,-258.64 -301.23,-263.18 -297.26,-267.65 -293.22,-272.07 -289.12,-276.43 -284.95,-280.72 -280.72,-284.95 -276.43,-289.12 -272.07,-293.22 -267.65,-297.26 -263.18,-301.23 -258.64,-305.13 -254.05,-308.97 -249.40,-312.73 -244.69,-316.43 -239.93,-320.05 -235.11,-323.61 -230.25,-327.09 -225.33,-330.50 -220.36,-333.83 -215.34,-337.09 -210.27,-340.27 -205.16,-343.38 -200.00,-346.41 -194.80,-349.36 -189.55,-352.24 -184.26,-355.03 -178.93,-357.75 -173.55,-360.39 -168.14,-362.94 -162.69,-365.42 -157.21,-367.81 -151.69,-370.12 -146.14,-372.35 -140.55,-374.49 -134.93,-376.55 -129.28,-378.53 -123.61,-380.42 -117.90,-382.23 -112.17,-383.95 -106.41,-385.59 -100.63,-387.13 -94.83,-388.60 -89.01,-389.97 -83.16,-391.26 -77.30,-392.46 -71.42,-393.57 -65.53,-394.60 -59.62,-395.53 -53.69,-396.38 -47.76,-397.14 -41.81,-397.81 -35.86,-398.39 -29.89,-398.88 -23.92,-399.28 -17.95,-399.60 -11.97,-399.82 -5.98,-399.96 0.00,-49.90">
        <lane id="E2_0" index="0" speed="13.89" length="1325.45" shape="-49.93,1.60 -401.60,-4.41 -401.42,-12.02 -401.20,-18.02 -400.88,-24.02 -400.48,-30.01 -399.98,-36.00 -399.40,-41.98 -398.73,-47.95 -397.97,-53.91 -397.11,-59.86 -396.18,-65.79 -395.14,-71.71 -394.03,-77.61 -392.83,-83.49 -391.53,-89.37 -390.15,-95.21 -388.68,-101.03 -387.13,-106.84 -385.49,-112.62 -383.76,-118.37 -381.94,-124.10 -380.04,-129.80 -378.06,-135.47 -375.99,-141.11 -373.84,-146.72 -371.60,-152.30 -369.28,-157.84 -366.88,-163.34 -364.39,-168.81 -361.83,-174.24 -359.18,-179.65 -356.45,-185.00 -353.65,-190.31 -350.76,-195.58 -347.80,-200.80 -344.75,-205.98 -341.63,-211.11 -338.44,-216.20 -335.17,-221.24 -331.82,-226.23 -328.40,-231.17 -324.90,-236.05 -321.33,-240.89 -317.70,-245.67 -313.98,-250.40 -310.21,-255.07 -306.35,-259.67 -302.44,-264.23 -298.45,-268.72 -294.39,-273.16 -290.28,-277.54 -286.09,-281.84 -281.84,-286.09 -277.54,-290.28 -273.16,-294.39 -268.72,-298.45 -264.23,-302.44 -259.67,-306.35 -255.07,-310.21 -250.40,-313.98 -245.67,-317.70 -240.89,-321.33 -236.05,-324.90 -231.17,-328.40 -226.23,-331.82 -221.24,-335.17 -216.20,-338.44 -211.11,-341.63 -205.98,-344.75 -200.80,-347.80 -195.58,-350.76 -190.31,-353.65 -185.00,-356.45 -179.65,-359.18 -174.24,-361.83 -168.81,-364.39 -163.34,-366.88 -157.84,-369.28 -152.30,-371.60 -146.72,-373.84 -141.11,-375.99 -135.47,-378.06 -129.80,-380.04 -124.10,-381.94 -118.37,-383.76 -112.62,-385.49 -106.84,-387.13 -101.03,-388.68 -95.21,-390.15 -89.37,-391.53 -83.49,-392.83 -77.61,-394.03 -71.71,-395.14 -65.79,-396.18 -59.86,-397.11 -53.91,-397.97 -47.95,-398.73 -41.98,-399.40 -36.00,-399.98 -30.01,-400.48 -24.02,-400.88 -18.02,-401.20 -12.02,-401.42 -4.41,-401.60 1.60,-49.93"/>
    </edge>
    <edge id="E20" from="J7" to="J3" priority="-1">
        <lane id="E20_0" index="0" speed="13.89" length="0.10" shape="-1.60,-49.90 -1.60,-50.00"/>
    </edge>
    <edge id="E3" from="J5" to="J8" priority="-1" shape="0.00,49.90 -5.98,399.96 -11.97,399.82 -17.95,399.60 -23.92,399.28 -29.89,398.88 -35.86,398.39 -41.81,397.81 -47.76,397.14 -53.69,396.38 -59.62,395.53 -65.53,394.60 -71.42,393.57 -77.30,392.46 -83.16,391.26 -89.01,389.97 -94.83,388.60 -100.63,387.13 -106.41,385.59 -112.17,383.95 -117.90,382.23 -123.61,380.42 -129.28,378.53 -134.93,376.55 -140.55,374.49 -146.14,372.35 -151.69,370.12 -157.21,367.81 -162.69,365.42 -168.14,362.94 -173.55,360.39 -178.93,357.75 -184.26,355.03 -189.55,352.24 -194.80,349.36 -200.00,346.41 -205.16,343.38 -210.27,340.27 -215.34,337.09 -220.36,333.83 -225.33,330.50 -230.25,327.09 -235.11,323.61 -239.93,320.05 -244.69,316.43 -249.40,312.73 -254.05,308.97 -258.64,305.13 -263.18,301.23 -267.65,297.26 -272.07,293.22 -276.43,289.12 -280.72,284.95 -284.95,280.72 -289.12,276.43 -293.22,272.07 -297.26,267.65 -301.23,263.18 -305.13,258.64 -308.97,254.05 -312.73,249.40 -316.43,244.69 -320.05,239.93 -323.61,235.11 -327.09,230.25 -330.50,225.33 -333.83,220.36 -337.09,215.34 -340.27,210.27 -343.38,205.16 -346.41,200.00 -349.36,194.80 -352.24,189.55 -355.03,184.26 -357.75,178.93 -360.39,173.55 -362.94,168.14 -365.42,162.69 -367.81,157.21 -370.12,151.69 -372.35,146.14 -374.49,140.55 -376.55,134.93 -378.53,129.28 -380.42,123.61 -382.23,117.90 -383.95,112.17 -385.59,106.41 -387.13,100.63 -388.60,94.83 -389.97,89.01 -391.26,83.16 -392.46,77.30 -393.57,71.42 -394.60,65.53 -395.53,59.62 -396.38,53.69 -397.14,47.76 -397.81,41.81 -398.39,35.86 -398.88,29.89 -399.28,23.92 -399.60,17.95 -399.82,11.97 -399.96,5.98 -49.90,0.00">
        <lane id="E3_0" index="0" speed="13.89" length="1325.45" shape="1.60,49.93 -4.41,401.60 -12.02,401.42 -18.02,401.20 -24.02,400.88 -30.01,400.48 -36.00,399.98 -41.98,399.40 -47.95,398.73 -53.91,397.97 -59.86,397.11 -65.79,396.18 -71.71,395.14 -77.61,394.03 -83.49,392.83 -89.37,391.53 -95.21,390.15 -101.03,388.68 -106.84,387.13 -112.62,385.49 -118.37,383.76 -124.10,381.94 -129.80,380.04 -135.47,378.06 -141.11,375.99 -146.72,373.84 -152.30,371.60 -157.84,369.28 -163.34,366.88 -168.81,364.39 -174.24,361.83 -179.65,359.18 -185.00,356.45 -190.31,353.65 -195.58,350.76 -200.80,347.80 -205.98,344.75 -211.11,341.63 -216.20,338.44 -221.24,335.17 -226.23,331.82 -231.17,328.40 -236.05,324.90 -240.89,321.33 -245.67,317.70 -250.40,313.98 -255.07,310.21 -259.67,306.35 -264.23,302.44 -268.72,298.45 -273.16,294.39 -277.54,290.28 -281.84,286.09 -286.09,281.84 -290.28,277.54 -294.39,273.16 -298.45,268.72 -302.44,264.23 -306.35,259.67 -310.21,255.07 -313.98,250.40 -317.70,245.67 -321.33,240.89 -324.90,236.05 -328.40,231.17 -331.82,226.23 -335.17,221.24 -338.44,216.20 -341.63,211.11 -344.75,205.98 -347.80,200.80 -350.76,195.58 -353.65,190.31 -356.45,185.00 -359.18,179.65 -361.83,174.24 -364.39,168.81 -366.88,163.34 -369.28,157.84 -371.60,152.30 -373.84,146.72 -375.99,141.11 -378.06,135.47 -380.04,129.80 -381.94,124.10 -383.76,118.37 -385.49,112.62 -387.13,106.84 -388.68,101.03 -390.15,95.21 -391.53,89.37 -392.83,83.49 -394.03,77.61 -395.14,71.71 -396.18,65.79 -397.11,59.86 -397.97,53.91 -398.73,47.95 -399.40,41.98 -399.98,36.00 -400.48,30.01 -400.88,24.02 -401.20,18.02 -401.42,12.02 -401.60,4.41 -49.93,-1.60"/>
    </edge>
    <edge id="E30" from="J5" to="J4" priority="-1">
        <lane id="E30_0" index="0" speed="13.89" length="0.10" shape="1.60,49.90 1.60,50.00"/>
    </edge>

    <junction id="J1" type="dead_end" x="50.00" y="0.00" incLanes="E00_0" intLanes="" shape="50.00,0.00 50.00,-3.20 50.00,0.00"/>
    <junction id="J2" type="dead_end" x="-50.00" y="0.00" incLanes="E10_0" intLanes="" shape="-50.00,0.00 -50.00,3.20 -50.00,0.00"/>
    <junction id="J3" type="dead_end" x="0.00" y="-50.00" incLanes="E20_0" intLanes="" shape="0.00,-50.00 -3.20,-50.00 0.00,-50.00"/>
    <junction id="J4" type="dead_end" x="0.00" y="50.00" incLanes="E30_0" intLanes="" shape="0.00,50.00 3.20,50.00 0.00,50.00"/>
    <junction id="J5" type="priority" x="0.00" y="49.90" incLanes="-E3_0 E0_0" intLanes=":J5_0_0 :J5_1_0" shape="-3.20,49.90 3.20,49.90 -3.20,49.95 0.00,49.90 3.20,49.95">
        <request index="0" response="00" foes="00" cont="0"/>
        <request index="1" response="00" foes="00" cont="0"/>
    </junction>
    <junction id="J6" type="priority" x="49.90" y="0.00" incLanes="-E0_0 E1_0" intLanes=":J6_0_0 :J6_1_0" shape="49.90,0.00 49.95,-3.20 49.90,0.00 49.90,3.20 49.90,0.00 49.95,3.20">
        <request index="0" response="00" foes="10" cont="0"/>
        <request index="1" response="01" foes="01" cont="0"/>
    </junction>
    <junction id="J7" type="priority" x="0.00" y="-49.90" incLanes="-E2_0 E2_0" intLanes=":J7_0_0 :J7_1_0" shape="0.00,-49.90 -3.20,-49.95 0.00,-49.90 3.20,-49.90 0.00,-49.90 3.20,-49.95">
        <request index="0" response="00" foes="10" cont="0"/>
        <request index="1" response="01" foes="01" cont="0"/>
    </junction>
    <junction id="J8" type="priority" x="-49.90" y="0.00" incLanes="-E1_0 E3_0" intLanes=":J8_0_0 :J8_1_0" shape="-49.90,-0.00 -49.95,3.20 -49.90,0.00 -49.90,-3.20 -49.90,0.00 -49.95,-3.20">
        <request index="0" response="00" foes="10" cont="0"/>
        <request index="1" response="01" foes="01" cont="0"/>
    </junction>

    <connection from="-E0" to="E0" fromLane="0" toLane="0" keepClear="0" via=":J6_0_0" dir="r" state="M"/>
    <connection from="-E1" to="E2" fromLane="0" toLane="0" keepClear="0" via=":J8_0_0" dir="r" state="M"/>
    <connection from="-E2" to="E1" fromLane="0" toLane="0" keepClear="0" via=":J7_0_0" dir="r" state="M"/>
    <connection from="-E3" to="E3" fromLane="0" toLane="0" via=":J5_0_0" dir="r" state="M"/>
    <connection from="E0" to="E30" fromLane="0" toLane="0" via=":J5_1_0" dir="r" state="M"/>
    <connection from="E1" to="E00" fromLane="0" toLane="0" via=":J6_1_0" dir="r" state="m"/>
    <connection from="E2" to="E20" fromLane="0" toLane="0" via=":J7_1_0" dir="r" state="m"/>
    <connection from="E3" to="E10" fromLane="0" toLane="0" via=":J8_1_0" dir="r" state="m"/>

    <connection from=":J5_0" to="E3" fromLane="0" toLane="0" dir="r" state="M"/>
    <connection from=":J5_1" to="E30" fromLane="0" toLane="0" dir="r" state="M"/>
    <connection from=":J6_0" to="E0" fromLane="0" toLane="0" dir="r" state="M"/>
    <connection from=":J6_1" to="E00" fromLane="0" toLane="0" dir="r" state="M"/>
    <connection from=":J7_0" to="E1" fromLane="0" toLane="0" dir="r" state="M"/>
    <connection from=":J7_1" to="E20" fromLane="0" toLane="0" dir="r" state="M"/>
    <connection from=":J8_0" to="E2" fromLane="0" toLane="0" dir="r" state="M"/>
    <connection from=":J8_1" to="E10" fromLane="0" toLane="0" dir="r" state="M"/>

</net>
