<?xml version="1.0" encoding="UTF-8"?>


<additional xmlns:xsi="http://www.w3.org/2001/XMLSchema-instance" xsi:noNamespaceSchemaLocation="http://sumo.dlr.de/xsd/additional_file.xsd">
    <poly id="%%%%$$$%" color="green" fill="0" layer="0.00" shape="-30.000000,40.000000 -20.000000,40.000000 -20.000000,30.000000 -30.000000,30.000000 -30.000000,40.000000"/>
    <poly id="poly_0" color="green" fill="0" layer="0.00" shape="-50.000000,40.000000 -40.000000,40.000000 -40.000000,30.000000 -50.000000,30.000000 -50.000000,40.000000"/>
    <poly id="poly_1" color="green" fill="0" layer="0.00" shape="-30.000000,40.000000 -20.000000,40.000000 -20.000000,30.000000 -30.000000,30.000000 -30.000000,40.000000"/>
    <poly id="poly_10" color="green" fill="1" layer="1.00" shape="-50.000000,-20.000000 -40.000000,-20.000000 -40.000000,-30.000000 -50.000000,-30.000000 -50.000000,-20.000000"/>
    <poly id="poly_13" color="green" fill="1" layer="0.00" shape="10.000000,-40.000000 20.000000,-40.000000 20.000000,-50.000000 20.000000,-50.000000 10.000000,-50.000000 10.000000,-50.000000 10.000000,-40.000000"/>
    <poly id="poly_14" color="green" fill="1" layer="0.00" shape="40.000000,-40.000000"/>
    <poly id="poly_15" color="green" fill="1" layer="0.00" shape="-70.000000,40.000000 -60.000000,40.000000 -70.000000,40.000000 -60.000000,40.000000"/>
    <poly id="poly_16" color="green" fill="1" layer="0.00" shape="-70.000000,20.000000 -60.000000,20.000000"/>
    <poly id="poly_17" color="green" fill="1" layer="0.00" shape="-50.000000,40.000000 -40.000000,40.000000 -40.000000,30.000000 -50.000000,30.000000 -50.000000,40.000000"/>
    <poly id="poly_18" color="green" fill="1" layer="0.00" shape="-70.000000,0.000000 -60.000000,0.000000 -60.000000,0.000000 -60.000000,-10.000000 -70.000000,-10.000000 -70.000000,0.000000"/>
    <poly id="poly_19" type="myOwnType" color="green" fill="1" layer="0.00" shape="-70.000000,-20.000000 -60.000000,-20.000000 -60.000000,-30.000000 -70.000000,-30.000000 -70.000000,-30.000000 -70.000000,-20.000000"/>
    <poly id="poly_2" color="red" fill="0" layer="0.00" shape="-10.000000,40.000000 0.000000,40.000000 0.000000,30.000000 -10.000000,30.000000 -10.000000,40.000000"/>
    <poly id="poly_20" color="green" fill="1" layer="0.00" shape="-70.000000,-40.000000 -60.000000,-40.000000 -60.000000,-50.000000 -70.000000,-50.000000 -70.000000,-40.000000"/>
    <poly id="poly_21" color="green" fill="1" layer="0.00" shape="50.000000,40.000000 60.000000,40.000000 60.000000,30.000000 50.000000,30.000000 50.000000,40.000000"/>
    <poly id="poly_22" color="green" fill="1" layer="0.00" shape="60.000000,20.000000 60.000000,20.000000 60.000000,10.000000 50.000000,10.000000 50.000000,20.000000 60.000000,20.000000" imgFile="C:/Users/SUMO-Test/.texttest/tmp/netedit.gui.11Jun130404.232/netedit.gui/shapeElements/poly/load\berlin_icon.ico"/>
    <poly id="poly_23" color="green" fill="1" layer="0.00" shape="60.000000,0.000000 60.000000,-10.000000 50.000000,-10.000000 50.000000,0.000000 60.000000,0.000000" angle="-1.00" imgFile="C:/Users/SUMO-Test/.texttest/tmp/netedit.gui.11Jun130404.232/netedit.gui/shapeElements/poly/load\berlin_icon.ico"/>
    <poly id="poly_24" color="green" fill="1" layer="0.00" shape="60.000000,-20.000000 60.000000,-30.000000 50.000000,-30.000000 50.000000,-20.000000 60.000000,-20.000000" angle="500.00" imgFile="C:/Users/SUMO-Test/.texttest/tmp/netedit.gui.11Jun130404.232/netedit.gui/shapeElements/poly/load\berlin_icon.ico"/>
    <poly id="poly_25" color="green" fill="1" layer="0.00" shape="60.000000,-40.000000 60.000000,-50.000000 50.000000,-50.000000 50.000000,-40.000000 60.000000,-40.000000" angle="-30.00" imgFile="C:/Users/SUMO-Test/.texttest/tmp/netedit.gui.11Jun130404.232/netedit.gui/shapeElements/poly/load\berlin_icon.ico"/>
    <poly id="poly_26" color="green" fill="1" layer="0.00" shape="60.000000,-40.000000 60.000000,-50.000000 50.000000,-50.000000 50.000000,-40.000000 60.000000,-40.000000" angle="-30.00" imgFile="C:/Users/SUMO-Test/.texttest/tmp/netedit.gui.11Jun130404.232/netedit.gui/shapeElements/poly/load\berlin_icon.ico"/>
    <poly id="poly_27" color="green" fill="1" layer="0.00" shape="60.000000,-40.000000 60.000000,-50.000000 50.000000,-50.000000 50.000000,-40.000000 60.000000,-40.000000" angle="-30.00" imgFile="C:/Users/SUMO-Test/.texttest/tmp/netedit.gui.11Jun130404.232/netedit.gui/shapeElements/poly/load\berlin_icon.ico"/>
    <poly id="poly_28" color="green" fill="1" layer="0.00" shape="60.000000,-40.000000 60.000000,-50.000000 50.000000,-50.000000 50.000000,-40.000000 60.000000,-40.000000" angle="-30.00" imgFile="C:/Users/SUMO-Test/.texttest/tmp/netedit.gui.11Jun130404.232/netedit.gui/shapeElements/poly/load\berlin_icon.ico"/>
    <poly id="poly_29" color="green" fill="1" layer="0.00" shape="60.000000,-40.000000 60.000000,-50.000000 50.000000,-50.000000 50.000000,-40.000000 60.000000,-40.000000" angle="-30.00" imgFile="berlin_icon.ico"/>
    <poly id="poly_3" color="0,0,0,0" fill="0" layer="0.00" shape="10.000000,40.000000 20.000000,40.000000 20.000000,30.000000 10.000000,30.000000 10.000000,40.000000"/>
    <poly id="poly_4" color="red" fill="0" layer="0.00" shape="30.000000,40.000000 40.000000,40.000000 40.000000,30.000000 30.000000,30.000000 30.000000,40.000000"/>
    <poly id="poly_5" color="green" fill="0" layer="0.00" shape="30.000000,20.000000 40.000000,20.000000 40.000000,10.000000 30.000000,10.000000 30.000000,20.000000"/>
    <poly id="poly_6" color="green" fill="0" layer="0.00" shape="30.000000,-20.000000 40.000000,-20.000000 40.000000,-30.000000 30.000000,-30.000000 30.000000,-20.000000"/>
    <poly id="poly_7" color="green" fill="1" layer="0.00" shape="30.000000,0.000000 40.000000,0.000000 40.000000,-10.000000 30.000000,-10.000000 30.000000,0.000000"/>
    <poly id="poly_8" color="green" fill="1" layer="128.00" shape="-50.000000,20.000000 -40.000000,20.000000 -40.000000,10.000000 -50.000000,10.000000 -50.000000,20.000000"/>
    <poly id="poly_9" color="green" fill="1" layer="-1.00" shape="-50.000000,0.000000 -40.000000,0.000000 -40.000000,-10.000000 -50.000000,-10.000000 -50.000000,0.000000"/>
</additional>
