<?xml version="1.0" encoding="UTF-8"?>

<!-- generated on Mon Feb 17 15:30:53 2020 by Eclipse SUMO netconvert Version v1_5_0+0130-ceb0a01
This data file and the accompanying materials
are made available under the terms of the Eclipse Public License v2.0
which accompanies this distribution, and is available at
http://www.eclipse.org/legal/epl-v20.html
SPDX-License-Identifier: EPL-2.0
<configuration xmlns:xsi="http://www.w3.org/2001/XMLSchema-instance" xsi:noNamespaceSchemaLocation="http://sumo.dlr.de/xsd/netconvertConfiguration.xsd">

    <input>
        <node-files value="input_plain.nod.xml"/>
        <edge-files value="input_plain.edg.xml"/>
    </input>

    <output>
        <write-license value="true"/>
        <output-file value="net.net.xml"/>
    </output>

    <junctions>
        <no-internal-links value="true"/>
        <no-turnarounds value="true"/>
    </junctions>

    <report>
        <xml-validation value="never"/>
        <aggregate-warnings value="5"/>
    </report>

</configuration>
-->

<net version="1.6" junctionCornerDetail="5" limitTurnSpeed="5.50" xmlns:xsi="http://www.w3.org/2001/XMLSchema-instance" xsi:noNamespaceSchemaLocation="http://sumo.dlr.de/xsd/net_file.xsd">

    <location netOffset="100.00,100.00" convBoundary="0.00,0.00,200.00,200.00" origBoundary="-10000000000.00,-10000000000.00,10000000000.00,10000000000.00" projParameter="!"/>

    <edge id="CE" from="C" to="E" priority="1">
        <lane id="CE_0" index="0" speed="13.89" length="100.00" shape="116.80,88.80 200.00,88.80"/>
        <lane id="CE_1" index="1" speed="13.89" length="100.00" shape="116.80,92.00 200.00,92.00"/>
        <lane id="CE_2" index="2" speed="13.89" length="100.00" shape="116.80,95.20 200.00,95.20"/>
        <lane id="CE_3" index="3" speed="13.89" length="100.00" shape="116.80,98.40 200.00,98.40"/>
    </edge>
    <edge id="CN" from="C" to="N" priority="2">
        <lane id="CN_0" index="0" speed="13.89" length="100.00" shape="111.20,116.80 111.20,200.00"/>
        <lane id="CN_1" index="1" speed="13.89" length="100.00" shape="108.00,116.80 108.00,200.00"/>
        <lane id="CN_2" index="2" speed="13.89" length="100.00" shape="104.80,116.80 104.80,200.00"/>
        <lane id="CN_3" index="3" speed="13.89" length="100.00" shape="101.60,116.80 101.60,200.00"/>
    </edge>
    <edge id="CS" from="C" to="S" priority="2">
        <lane id="CS_0" index="0" speed="13.89" length="100.00" shape="88.80,83.20 88.80,0.00"/>
        <lane id="CS_1" index="1" speed="13.89" length="100.00" shape="92.00,83.20 92.00,0.00"/>
        <lane id="CS_2" index="2" speed="13.89" length="100.00" shape="95.20,83.20 95.20,0.00"/>
        <lane id="CS_3" index="3" speed="13.89" length="100.00" shape="98.40,83.20 98.40,0.00"/>
    </edge>
    <edge id="CW" from="C" to="W" priority="1">
        <lane id="CW_0" index="0" speed="13.89" length="100.00" shape="83.20,111.20 0.00,111.20"/>
        <lane id="CW_1" index="1" speed="13.89" length="100.00" shape="83.20,108.00 0.00,108.00"/>
        <lane id="CW_2" index="2" speed="13.89" length="100.00" shape="83.20,104.80 0.00,104.80"/>
        <lane id="CW_3" index="3" speed="13.89" length="100.00" shape="83.20,101.60 0.00,101.60"/>
    </edge>
    <edge id="EC" from="E" to="C" priority="1">
        <lane id="EC_0" index="0" speed="13.89" length="100.00" shape="200.00,111.20 116.80,111.20"/>
        <lane id="EC_1" index="1" speed="13.89" length="100.00" shape="200.00,108.00 116.80,108.00"/>
        <lane id="EC_2" index="2" speed="13.89" length="100.00" shape="200.00,104.80 116.80,104.80"/>
        <lane id="EC_3" index="3" speed="13.89" length="100.00" shape="200.00,101.60 116.80,101.60"/>
    </edge>
    <edge id="NC" from="N" to="C" priority="2">
        <lane id="NC_0" index="0" speed="13.89" length="100.00" shape="88.80,200.00 88.80,116.80"/>
        <lane id="NC_1" index="1" speed="13.89" length="100.00" shape="92.00,200.00 92.00,116.80"/>
        <lane id="NC_2" index="2" speed="13.89" length="100.00" shape="95.20,200.00 95.20,116.80"/>
        <lane id="NC_3" index="3" speed="13.89" length="100.00" shape="98.40,200.00 98.40,116.80"/>
    </edge>
    <edge id="SC" from="S" to="C" priority="2">
        <lane id="SC_0" index="0" speed="13.89" length="100.00" shape="111.20,0.00 111.20,83.20"/>
        <lane id="SC_1" index="1" speed="13.89" length="100.00" shape="108.00,0.00 108.00,83.20"/>
        <lane id="SC_2" index="2" speed="13.89" length="100.00" shape="104.80,0.00 104.80,83.20"/>
        <lane id="SC_3" index="3" speed="13.89" length="100.00" shape="101.60,0.00 101.60,83.20"/>
    </edge>
    <edge id="WC" from="W" to="C" priority="1">
        <lane id="WC_0" index="0" speed="13.89" length="100.00" shape="0.00,88.80 83.20,88.80"/>
        <lane id="WC_1" index="1" speed="13.89" length="100.00" shape="0.00,92.00 83.20,92.00"/>
        <lane id="WC_2" index="2" speed="13.89" length="100.00" shape="0.00,95.20 83.20,95.20"/>
        <lane id="WC_3" index="3" speed="13.89" length="100.00" shape="0.00,98.40 83.20,98.40"/>
    </edge>

    <tlLogic id="C" type="static" programID="0" offset="0">
        <phase duration="42" state="GGGGGgrrrrrrGGGGGgrrrrrr"/>
        <phase duration="3"  state="yyyyyyrrrrrryyyyyyrrrrrr"/>
        <phase duration="42" state="rrrrrrGGGGGgrrrrrrGGGGGg"/>
        <phase duration="3"  state="rrrrrryyyyyyrrrrrryyyyyy"/>
    </tlLogic>

    <junction id="C" type="traffic_light" x="100.00" y="100.00" incLanes="NC_0 NC_1 NC_2 NC_3 EC_0 EC_1 EC_2 EC_3 SC_0 SC_1 SC_2 SC_3 WC_0 WC_1 WC_2 WC_3" intLanes="" shape="87.20,116.80 112.80,116.80 113.24,114.58 113.80,113.80 114.58,113.24 115.58,112.91 116.80,112.80 116.80,87.20 114.58,86.76 113.80,86.20 113.24,85.42 112.91,84.42 112.80,83.20 87.20,83.20 86.76,85.42 86.20,86.20 85.42,86.76 84.42,87.09 83.20,87.20 83.20,112.80 85.42,113.24 86.20,113.80 86.76,114.58 87.09,115.58">
        <request index="0"  response="000000000000000000000000" foes="000000000000011110000000"/>
        <request index="1"  response="000000000000000000000000" foes="111111100000111110000000"/>
        <request index="2"  response="000000000000000000000000" foes="111111100000111110000000"/>
        <request index="3"  response="000000000000000000000000" foes="111111100000111110000000"/>
        <request index="4"  response="000000000000000000000000" foes="111111100000111110000000"/>
        <request index="5"  response="000000011110000000000000" foes="111110011110111110000000"/>
        <request index="6"  response="000000011110000000000000" foes="000000011110000000000000"/>
        <request index="7"  response="000000111110000000111111" foes="100000111110000000111111"/>
        <request index="8"  response="000000111110000000111111" foes="100000111110000000111111"/>
        <request index="9"  response="000000111110000000111111" foes="100000111110000000111111"/>
        <request index="10" response="000000111110000000111111" foes="100000111110000000111111"/>
        <request index="11" response="011110111110000000111110" foes="011110111110000000111110"/>
        <request index="12" response="000000000000000000000000" foes="011110000000000000000000"/>
        <request index="13" response="000000000000000000000000" foes="111110000000111111100000"/>
        <request index="14" response="000000000000000000000000" foes="111110000000111111100000"/>
        <request index="15" response="000000000000000000000000" foes="111110000000111111100000"/>
        <request index="16" response="000000000000000000000000" foes="111110000000111111100000"/>
        <request index="17" response="000000000000000000011110" foes="111110000000111110011110"/>
        <request index="18" response="000000000000000000011110" foes="000000000000000000011110"/>
        <request index="19" response="000000111111000000111110" foes="000000111111100000111110"/>
        <request index="20" response="000000111111000000111110" foes="000000111111100000111110"/>
        <request index="21" response="000000111111000000111110" foes="000000111111100000111110"/>
        <request index="22" response="000000111111000000111110" foes="000000111111100000111110"/>
        <request index="23" response="000000111110011110111110" foes="000000111110011110111110"/>
    </junction>
    <junction id="E" type="dead_end" x="200.00" y="100.00" incLanes="CE_0 CE_1 CE_2 CE_3" intLanes="" shape="200.00,100.00 200.00,87.20 200.00,100.00"/>
    <junction id="N" type="dead_end" x="100.00" y="200.00" incLanes="CN_0 CN_1 CN_2 CN_3" intLanes="" shape="100.00,200.00 112.80,200.00 100.00,200.00"/>
    <junction id="S" type="dead_end" x="100.00" y="0.00" incLanes="CS_0 CS_1 CS_2 CS_3" intLanes="" shape="100.00,0.00 87.20,0.00 100.00,0.00"/>
    <junction id="W" type="dead_end" x="0.00" y="100.00" incLanes="CW_0 CW_1 CW_2 CW_3" intLanes="" shape="0.00,100.00 0.00,112.80 0.00,100.00"/>

    <connection from="EC" to="CN" fromLane="0" toLane="0" tl="C" linkIndex="6" dir="r" state="o"/>
    <connection from="EC" to="CW" fromLane="0" toLane="0" tl="C" linkIndex="7" dir="s" state="o"/>
    <connection from="EC" to="CW" fromLane="1" toLane="1" tl="C" linkIndex="8" dir="s" state="o"/>
    <connection from="EC" to="CW" fromLane="2" toLane="2" tl="C" linkIndex="9" dir="s" state="o"/>
    <connection from="EC" to="CW" fromLane="3" toLane="3" tl="C" linkIndex="10" dir="s" state="o"/>
    <connection from="EC" to="CS" fromLane="3" toLane="3" tl="C" linkIndex="11" dir="l" state="o"/>
    <connection from="NC" to="CW" fromLane="0" toLane="0" tl="C" linkIndex="0" dir="r" state="O"/>
    <connection from="NC" to="CS" fromLane="0" toLane="0" tl="C" linkIndex="1" dir="s" state="O"/>
    <connection from="NC" to="CS" fromLane="1" toLane="1" tl="C" linkIndex="2" dir="s" state="O"/>
    <connection from="NC" to="CS" fromLane="2" toLane="2" tl="C" linkIndex="3" dir="s" state="O"/>
    <connection from="NC" to="CS" fromLane="3" toLane="3" tl="C" linkIndex="4" dir="s" state="O"/>
    <connection from="NC" to="CE" fromLane="3" toLane="3" tl="C" linkIndex="5" dir="l" state="o"/>
    <connection from="SC" to="CE" fromLane="0" toLane="0" tl="C" linkIndex="12" dir="r" state="O"/>
    <connection from="SC" to="CN" fromLane="0" toLane="0" tl="C" linkIndex="13" dir="s" state="O"/>
    <connection from="SC" to="CN" fromLane="1" toLane="1" tl="C" linkIndex="14" dir="s" state="O"/>
    <connection from="SC" to="CN" fromLane="2" toLane="2" tl="C" linkIndex="15" dir="s" state="O"/>
    <connection from="SC" to="CN" fromLane="3" toLane="3" tl="C" linkIndex="16" dir="s" state="O"/>
    <connection from="SC" to="CW" fromLane="3" toLane="3" tl="C" linkIndex="17" dir="l" state="o"/>
    <connection from="WC" to="CS" fromLane="0" toLane="0" tl="C" linkIndex="18" dir="r" state="o"/>
    <connection from="WC" to="CE" fromLane="0" toLane="0" tl="C" linkIndex="19" dir="s" state="o"/>
    <connection from="WC" to="CE" fromLane="1" toLane="1" tl="C" linkIndex="20" dir="s" state="o"/>
    <connection from="WC" to="CE" fromLane="2" toLane="2" tl="C" linkIndex="21" dir="s" state="o"/>
    <connection from="WC" to="CE" fromLane="3" toLane="3" tl="C" linkIndex="22" dir="s" state="o"/>
    <connection from="WC" to="CN" fromLane="3" toLane="3" tl="C" linkIndex="23" dir="l" state="o"/>

</net>
