<?xml version="1.0" encoding="UTF-8"?>
<edges>
   <edge id="1i" fromnode="1" tonode="0" priority="78" nolanes="1" speed="19.444"></edge>
   <edge id="1o" fromnode="0" tonode="1" priority="46" nolanes="1" speed="11.111"></edge>

   <edge id="2i" fromnode="2" tonode="0" priority="78" nolanes="1" speed="19.444"></edge>
   <edge id="2o" fromnode="0" tonode="2" priority="46" nolanes="1" speed="11.111"></edge>

   <edge id="3i" fromnode="3" tonode="4" priority="78" nolanes="1" speed="19.444"></edge>
   <edge id="3o" fromnode="4" tonode="3" priority="46" nolanes="1" speed="11.111"></edge>

   <edge id="4i" fromnode="4" tonode="3" priority="78" nolanes="1" speed="19.444"></edge>
   <edge id="4o" fromnode="3" tonode="4" priority="46" nolanes="1" speed="11.111"></edge>

</edges>
