<?xml version="1.0" encoding="UTF-8"?>

<!-- generated on Mon Mar  3 10:23:16 2014 by SUMO netconvert Version dev-SVN-r15793
<?xml version="1.0" encoding="UTF-8"?>

<configuration xmlns:xsi="http://www.w3.org/2001/XMLSchema-instance" xsi:noNamespaceSchemaLocation="http://sumo-sim.org/xsd/netconvertConfiguration.xsd">

    <input>
        <node-files value="./tests/tools/net/netcheck/broken/cross1l.nod.xml"/>
        <edge-files value="./tests/tools/net/netcheck/broken/cross1l.edg.xml"/>
    </input>

    <output>
        <output-file value="./tests/tools/net/netcheck/broken/input_net.net.xml"/>
    </output>

    <report>
        <verbose value="true"/>
    </report>

</configuration>
-->

<net version="0.13" xmlns:xsi="http://www.w3.org/2001/XMLSchema-instance" xsi:noNamespaceSchemaLocation="http://sumo-sim.org/xsd/net_file.xsd">

    <location netOffset="500.00,500.00" convBoundary="0.00,0.00,1000.00,1000.00" origBoundary="-500.00,-500.00,500.00,500.00" projParameter="!"/>

    <edge id=":0_0" function="internal">
        <lane id=":0_0_0" index="0" speed="15.28" length="0.10" shape="500.00,501.65 500.00,501.65"/>
    </edge>
    <edge id=":0_1" function="internal">
        <lane id=":0_1_0" index="0" speed="15.28" length="2.41" shape="500.00,501.65 498.76,500.82 498.35,500.00"/>
    </edge>
    <edge id=":0_4" function="internal">
        <lane id=":0_4_0" index="0" speed="15.28" length="2.41" shape="498.35,500.00 498.76,499.18 500.00,498.35"/>
    </edge>
    <edge id=":0_2" function="internal">
        <lane id=":0_2_0" index="0" speed="15.28" length="0.10" shape="500.00,498.35 500.00,498.35"/>
    </edge>
    <edge id=":0_3" function="internal">
        <lane id=":0_3_0" index="0" speed="15.28" length="2.41" shape="500.00,498.35 501.24,499.18 501.65,500.00"/>
    </edge>
    <edge id=":0_5" function="internal">
        <lane id=":0_5_0" index="0" speed="15.28" length="2.41" shape="501.65,500.00 501.24,500.82 500.00,501.65"/>
    </edge>
    <edge id=":1_0" function="internal">
        <lane id=":1_0_0" index="0" speed="15.28" length="4.82" shape="0.00,501.65 -1.24,500.82 -1.65,500.00 -1.24,499.18 0.00,498.35"/>
    </edge>
    <edge id=":2_0" function="internal">
        <lane id=":2_0_0" index="0" speed="15.28" length="4.82" shape="1000.00,498.35 1001.24,499.18 1001.65,500.00 1001.24,500.82 1000.00,501.65"/>
    </edge>
    <edge id=":3_0" function="internal">
        <lane id=":3_0_0" index="0" speed="11.11" length="3.30" shape="498.35,0.00 501.65,0.00"/>
    </edge>
    <edge id=":3_1" function="internal">
        <lane id=":3_1_0" index="0" speed="15.28" length="4.82" shape="498.35,0.00 499.18,-1.24 500.00,-1.65 500.82,-1.24 501.65,0.00"/>
    </edge>
    <edge id=":3_2" function="internal">
        <lane id=":3_2_0" index="0" speed="19.44" length="3.30" shape="498.35,0.00 501.65,0.00"/>
    </edge>
    <edge id=":3_3" function="internal">
        <lane id=":3_3_0" index="0" speed="15.28" length="4.82" shape="498.35,0.00 499.18,-1.24 500.00,-1.65 500.82,-1.24 501.65,0.00"/>
    </edge>
    <edge id=":4_0" function="internal">
        <lane id=":4_0_0" index="0" speed="19.44" length="3.30" shape="501.65,1000.00 498.35,1000.00"/>
    </edge>
    <edge id=":4_1" function="internal">
        <lane id=":4_1_0" index="0" speed="15.28" length="4.82" shape="501.65,1000.00 500.82,1001.24 500.00,1001.65 499.18,1001.24 498.35,1000.00"/>
    </edge>
    <edge id=":4_2" function="internal">
        <lane id=":4_2_0" index="0" speed="11.11" length="3.30" shape="501.65,1000.00 498.35,1000.00"/>
    </edge>
    <edge id=":4_3" function="internal">
        <lane id=":4_3_0" index="0" speed="15.28" length="4.82" shape="501.65,1000.00 500.82,1001.24 500.00,1001.65 499.18,1001.24 498.35,1000.00"/>
    </edge>

    <edge id="1i" from="1" to="0" priority="78">
        <lane id="1i_0" index="0" speed="19.44" length="500.00" shape="0.00,498.35 500.00,498.35"/>
    </edge>
    <edge id="1o" from="0" to="1" priority="46">
        <lane id="1o_0" index="0" speed="11.11" length="500.00" shape="500.00,501.65 0.00,501.65"/>
    </edge>
    <edge id="2i" from="2" to="0" priority="78">
        <lane id="2i_0" index="0" speed="19.44" length="500.00" shape="1000.00,501.65 500.00,501.65"/>
    </edge>
    <edge id="2o" from="0" to="2" priority="46">
        <lane id="2o_0" index="0" speed="11.11" length="500.00" shape="500.00,498.35 1000.00,498.35"/>
    </edge>
    <edge id="3i" from="3" to="4" priority="78">
        <lane id="3i_0" index="0" speed="19.44" length="1000.00" shape="501.65,0.00 501.65,1000.00"/>
    </edge>
    <edge id="3o" from="4" to="3" priority="46">
        <lane id="3o_0" index="0" speed="11.11" length="1000.00" shape="498.35,1000.00 498.35,0.00"/>
    </edge>
    <edge id="4i" from="4" to="3" priority="78">
        <lane id="4i_0" index="0" speed="19.44" length="1000.00" shape="498.35,1000.00 498.35,0.00"/>
    </edge>
    <edge id="4o" from="3" to="4" priority="46">
        <lane id="4o_0" index="0" speed="11.11" length="1000.00" shape="501.65,0.00 501.65,1000.00"/>
    </edge>

    <junction id="0" type="priority" x="500.00" y="500.00" incLanes="2i_0 1i_0" intLanes=":0_0_0 :0_4_0 :0_2_0 :0_5_0" shape="500.00,503.25 500.00,496.75 500.00,503.25">
        <request index="0" response="0000" foes="1000" cont="0"/>
        <request index="1" response="0100" foes="0100" cont="1"/>
        <request index="2" response="0000" foes="0010" cont="0"/>
        <request index="3" response="0001" foes="0001" cont="1"/>
    </junction>
    <junction id="1" type="priority" x="0.00" y="500.00" incLanes="1o_0" intLanes=":1_0_0" shape="-0.00,499.95 -0.00,496.75 0.00,503.25 0.00,500.05">
        <request index="0" response="0" foes="0" cont="0"/>
    </junction>
    <junction id="2" type="priority" x="1000.00" y="500.00" incLanes="2o_0" intLanes=":2_0_0" shape="1000.00,500.05 1000.00,503.25 1000.00,496.75 1000.00,499.95">
        <request index="0" response="0" foes="0" cont="0"/>
    </junction>
    <junction id="3" type="priority" x="500.00" y="0.00" incLanes="3o_0 4i_0" intLanes=":3_0_0 :3_1_0 :3_2_0 :3_3_0" shape="496.75,0.00 499.95,0.00 503.25,-0.00 496.75,0.00 499.95,0.00 503.25,-0.00">
        <request index="0" response="0000" foes="1000" cont="0"/>
        <request index="1" response="0100" foes="0100" cont="0"/>
        <request index="2" response="0000" foes="0010" cont="0"/>
        <request index="3" response="0001" foes="0001" cont="0"/>
    </junction>
    <junction id="4" type="priority" x="500.00" y="1000.00" incLanes="3i_0 4o_0" intLanes=":4_0_0 :4_1_0 :4_2_0 :4_3_0" shape="503.25,1000.00 500.05,1000.00 496.75,1000.00 503.25,1000.00 500.05,1000.00 496.75,1000.00">
        <request index="0" response="0000" foes="1000" cont="0"/>
        <request index="1" response="0100" foes="0100" cont="0"/>
        <request index="2" response="0000" foes="0010" cont="0"/>
        <request index="3" response="0001" foes="0001" cont="0"/>
    </junction>

    <junction id=":0_4_0" type="internal" x="498.35" y="500.00" incLanes=":0_1_0 1i_0" intLanes=":0_2_0"/>
    <junction id=":0_5_0" type="internal" x="501.65" y="500.00" incLanes=":0_3_0 2i_0" intLanes=":0_0_0"/>

    <connection from="1i" to="2o" fromLane="0" toLane="0" via=":0_2_0" dir="s" state="M"/>
    <connection from="1i" to="1o" fromLane="0" toLane="0" via=":0_3_0" dir="t" state="m"/>
    <connection from="1o" to="1i" fromLane="0" toLane="0" via=":1_0_0" dir="t" state="M"/>
    <connection from="2i" to="1o" fromLane="0" toLane="0" via=":0_0_0" dir="s" state="M"/>
    <connection from="2i" to="2o" fromLane="0" toLane="0" via=":0_1_0" dir="t" state="m"/>
    <connection from="2o" to="2i" fromLane="0" toLane="0" via=":2_0_0" dir="t" state="M"/>
    <connection from="3i" to="4i" fromLane="0" toLane="0" via=":4_0_0" dir="l" state="M"/>
    <connection from="3i" to="3o" fromLane="0" toLane="0" via=":4_1_0" dir="t" state="m"/>
    <connection from="3o" to="4o" fromLane="0" toLane="0" via=":3_0_0" dir="l" state="M"/>
    <connection from="3o" to="3i" fromLane="0" toLane="0" via=":3_1_0" dir="t" state="m"/>
    <connection from="4i" to="3i" fromLane="0" toLane="0" via=":3_2_0" dir="l" state="M"/>
    <connection from="4i" to="4o" fromLane="0" toLane="0" via=":3_3_0" dir="t" state="m"/>
    <connection from="4o" to="3o" fromLane="0" toLane="0" via=":4_2_0" dir="l" state="M"/>
    <connection from="4o" to="4i" fromLane="0" toLane="0" via=":4_3_0" dir="t" state="m"/>

    <connection from=":0_0" to="1o" fromLane="0" toLane="0" dir="s" state="M"/>
    <connection from=":0_1" to="2o" fromLane="0" toLane="0" via=":0_4_0" dir="s" state="m"/>
    <connection from=":0_4" to="2o" fromLane="0" toLane="0" dir="s" state="M"/>
    <connection from=":0_2" to="2o" fromLane="0" toLane="0" dir="s" state="M"/>
    <connection from=":0_3" to="1o" fromLane="0" toLane="0" via=":0_5_0" dir="s" state="m"/>
    <connection from=":0_5" to="1o" fromLane="0" toLane="0" dir="s" state="M"/>
    <connection from=":1_0" to="1i" fromLane="0" toLane="0" dir="s" state="M"/>
    <connection from=":2_0" to="2i" fromLane="0" toLane="0" dir="s" state="M"/>
    <connection from=":3_0" to="4o" fromLane="0" toLane="0" dir="s" state="M"/>
    <connection from=":3_1" to="3i" fromLane="0" toLane="0" dir="s" state="M"/>
    <connection from=":3_2" to="3i" fromLane="0" toLane="0" dir="s" state="M"/>
    <connection from=":3_3" to="4o" fromLane="0" toLane="0" dir="s" state="M"/>
    <connection from=":4_0" to="4i" fromLane="0" toLane="0" dir="s" state="M"/>
    <connection from=":4_1" to="3o" fromLane="0" toLane="0" dir="s" state="M"/>
    <connection from=":4_2" to="3o" fromLane="0" toLane="0" dir="s" state="M"/>
    <connection from=":4_3" to="4i" fromLane="0" toLane="0" dir="s" state="M"/>

</net>
