<?xml version="1.0" encoding="UTF-8"?>

<!-- generated on Thu Dec 12 07:35:15 2013 by SUMO netconvert Version dev-SVN-r15319
<?xml version="1.0" encoding="UTF-8"?>

<configuration xmlns:xsi="http://www.w3.org/2001/XMLSchema-instance" xsi:noNamespaceSchemaLocation="http://sumo-sim.org/xsd/netconvertConfiguration.xsd">

    <input>
        <node-files value="input_nodes.nod.xml"/>
        <edge-files value="input_edges.edg.xml"/>
    </input>

    <output>
        <output-file value="net.net.xml"/>
    </output>

</configuration>
-->

<net version="0.13" xmlns:xsi="http://www.w3.org/2001/XMLSchema-instance" xsi:noNamespaceSchemaLocation="http://sumo-sim.org/xsd/net_file.xsd">

    <location netOffset="-51303.08,-53830.21" convBoundary="0.00,0.00,224.35,423.85" origBoundary="51303.08,53830.21,51527.43,54254.06" projParameter="!"/>

    <edge id=":6365_0" function="internal">
        <lane id=":6365_0_0" index="0" speed="13.90" length="5.54" shape="152.01,251.40 150.43,251.92 149.27,252.68 148.54,253.67 148.23,254.89"/>
    </edge>
    <edge id=":6365_1" function="internal">
        <lane id=":6365_1_0" index="0" speed="13.90" length="3.55" shape="152.01,251.40 149.00,251.61 148.51,251.38"/>
    </edge>
    <edge id=":6365_8" function="internal">
        <lane id=":6365_8_0" index="0" speed="13.90" length="7.41" shape="148.51,251.38 146.94,250.65 145.84,248.53 145.70,245.24"/>
    </edge>
    <edge id=":6365_2" function="internal">
        <lane id=":6365_2_0" index="0" speed="13.90" length="9.39" shape="148.98,245.52 148.23,254.89"/>
    </edge>
    <edge id=":6365_3" function="internal">
        <lane id=":6365_3_0" index="0" speed="13.90" length="2.41" shape="148.98,245.52 148.06,246.69 147.20,247.03"/>
    </edge>
    <edge id=":6365_9" function="internal">
        <lane id=":6365_9_0" index="0" speed="13.90" length="2.41" shape="147.20,247.03 146.41,246.55 145.70,245.24"/>
    </edge>
    <edge id=":6365_4" function="internal">
        <lane id=":6365_4_0" index="0" speed="13.90" length="5.26" shape="142.08,247.70 143.55,247.92 144.64,247.59 145.36,246.69 145.70,245.24"/>
    </edge>
    <edge id=":6365_5" function="internal">
        <lane id=":6365_5_0" index="0" speed="13.90" length="3.66" shape="142.08,247.70 144.91,248.89 145.37,249.26"/>
    </edge>
    <edge id=":6365_10" function="internal">
        <lane id=":6365_10_0" index="0" speed="13.90" length="6.65" shape="145.37,249.26 146.88,250.48 147.99,252.48 148.23,254.89"/>
    </edge>
    <edge id=":6365_6" function="internal">
        <lane id=":6365_6_0" index="0" speed="13.90" length="9.43" shape="144.94,254.64 145.70,245.24"/>
    </edge>
    <edge id=":6365_7" function="internal">
        <lane id=":6365_7_0" index="0" speed="13.90" length="2.41" shape="144.94,254.64 145.85,253.47 146.70,253.12"/>
    </edge>
    <edge id=":6365_11" function="internal">
        <lane id=":6365_11_0" index="0" speed="13.90" length="2.41" shape="146.70,253.12 147.49,253.59 148.23,254.89"/>
    </edge>
    <edge id=":6454_0" function="internal">
        <lane id=":6454_0_0" index="0" speed="13.90" length="4.82" shape="157.38,109.12 158.30,107.96 159.16,107.62 159.95,108.10 160.66,109.40"/>
    </edge>
    <edge id=":6562_0" function="internal">
        <lane id=":6562_0_0" index="0" speed="13.90" length="4.82" shape="135.66,423.97 134.74,425.15 133.89,425.50 133.10,425.02 132.36,423.73"/>
    </edge>

    <edge id="-1570" from="6366" to="6365" priority="-1" spreadType="center" shape="1.75,1.30 2.23,7.92 121.83,241.60 142.08,247.70">
        <lane id="-1570_0" index="0" speed="13.90" length="291.72" shape="1.65,-0.12 2.23,7.92 121.83,241.60 142.08,247.70"/>
    </edge>
    <edge id="-1839" from="6454" to="6365" priority="-1">
        <lane id="-1839_0" index="0" speed="13.90" length="136.62" shape="160.66,109.40 148.98,245.52"/>
    </edge>
    <edge id="-1841" from="6365" to="6562" priority="-1">
        <lane id="-1841_0" index="0" speed="13.90" length="169.55" shape="148.23,254.89 135.66,423.97"/>
    </edge>
    <edge id="1816" from="6564" to="6365" priority="-1" spreadType="center" shape="220.91,224.24 162.04,248.16 154.71,250.79 152.01,251.40">
        <lane id="1816_0" index="0" speed="13.90" length="78.49" shape="224.98,222.59 162.04,248.16 154.71,250.79 152.01,251.40"/>
    </edge>
    <edge id="1839" from="6365" to="6454" priority="-1">
        <lane id="1839_0" index="0" speed="13.90" length="136.62" shape="145.70,245.24 157.38,109.12"/>
    </edge>
    <edge id="1841" from="6562" to="6365" priority="-1">
        <lane id="1841_0" index="0" speed="13.90" length="169.55" shape="132.36,423.73 144.94,254.64"/>
    </edge>

    <tlLogic id="6365" type="static" programID="0" offset="0">
        <phase duration="31" state="rrGgrrGg"/>
        <phase duration="4" state="rryyrryy"/>
        <phase duration="31" state="GgrrGgrr"/>
        <phase duration="4" state="ygrrygrr"/>
        <phase duration="6" state="rGrrrGrr"/>
        <phase duration="4" state="ryrrryrr"/>
    </tlLogic>

    <junction id="6365" type="traffic_light" x="146.87" y="250.87" incLanes="1816_0 -1839_0 -1570_0 1841_0" intLanes=":6365_0_0 :6365_8_0 :6365_2_0 :6365_9_0 :6365_4_0 :6365_10_0 :6365_6_0 :6365_11_0" shape="152.36,252.96 151.66,249.84 150.58,245.66 144.10,245.11 142.54,246.17 141.62,249.23 143.34,254.52 149.82,255.01">
        <request index="0" response="00000100" foes="10100100" cont="0"/>
        <request index="1" response="01010100" foes="01011100" cont="1"/>
        <request index="2" response="00000000" foes="10100011" cont="0"/>
        <request index="3" response="01010010" foes="01010010" cont="1"/>
        <request index="4" response="01000000" foes="01001010" cont="0"/>
        <request index="5" response="01000101" foes="11000101" cont="1"/>
        <request index="6" response="00000000" foes="00111010" cont="0"/>
        <request index="7" response="00100101" foes="00100101" cont="1"/>
    </junction>
    <junction id="6366" type="unregulated" x="0.00" y="0.00" incLanes="" intLanes="" shape="0.05,-0.00 3.24,-0.24"/>
    <junction id="6454" type="priority" x="159.02" y="109.26" incLanes="1839_0" intLanes=":6454_0_0" shape="159.07,109.26 162.26,109.54 155.78,108.98 158.97,109.26">
        <request index="0" response="0" foes="0" cont="0"/>
    </junction>
    <junction id="6562" type="priority" x="134.01" y="423.85" incLanes="-1841_0" intLanes=":6562_0_0" shape="133.96,423.85 130.77,423.61 137.25,424.09 134.06,423.85">
        <request index="0" response="0" foes="0" cont="0"/>
    </junction>
    <junction id="6564" type="unregulated" x="224.35" y="221.05" incLanes="" intLanes="" shape="224.37,221.11 225.58,224.07"/>

    <junction id=":6365_8_0" type="internal" x="148.51" y="251.38" incLanes=":6365_1_0 -1570_0 -1839_0 1841_0" intLanes=":6365_2_0 :6365_3_0 :6365_4_0 :6365_6_0"/>
    <junction id=":6365_9_0" type="internal" x="147.20" y="247.03" incLanes=":6365_3_0 -1570_0 1816_0 1841_0" intLanes=":6365_1_0 :6365_4_0 :6365_6_0"/>
    <junction id=":6365_10_0" type="internal" x="145.37" y="249.26" incLanes=":6365_5_0 -1839_0 1816_0 1841_0" intLanes=":6365_0_0 :6365_2_0 :6365_6_0 :6365_7_0"/>
    <junction id=":6365_11_0" type="internal" x="146.70" y="253.12" incLanes=":6365_7_0 -1570_0 -1839_0 1816_0" intLanes=":6365_0_0 :6365_2_0 :6365_5_0"/>

    <connection from="-1570" to="1839" fromLane="0" toLane="0" via=":6365_4_0" tl="6365" linkIndex="4" dir="r" state="o"/>
    <connection from="-1570" to="-1841" fromLane="0" toLane="0" via=":6365_5_0" tl="6365" linkIndex="5" dir="l" state="o"/>
    <connection from="-1839" to="-1841" fromLane="0" toLane="0" via=":6365_2_0" tl="6365" linkIndex="2" dir="s" state="o"/>
    <connection from="-1839" to="1839" fromLane="0" toLane="0" via=":6365_3_0" tl="6365" linkIndex="3" dir="t" state="o"/>
    <connection from="-1841" to="1841" fromLane="0" toLane="0" via=":6562_0_0" dir="t" state="M"/>
    <connection from="1816" to="-1841" fromLane="0" toLane="0" via=":6365_0_0" tl="6365" linkIndex="0" dir="r" state="o"/>
    <connection from="1816" to="1839" fromLane="0" toLane="0" via=":6365_1_0" tl="6365" linkIndex="1" dir="l" state="o"/>
    <connection from="1839" to="-1839" fromLane="0" toLane="0" via=":6454_0_0" dir="t" state="M"/>
    <connection from="1841" to="1839" fromLane="0" toLane="0" via=":6365_6_0" tl="6365" linkIndex="6" dir="s" state="o"/>
    <connection from="1841" to="-1841" fromLane="0" toLane="0" via=":6365_7_0" tl="6365" linkIndex="7" dir="t" state="o"/>

    <connection from=":6365_0" to="-1841" fromLane="0" toLane="0" dir="s" state="M"/>
    <connection from=":6365_1" to="1839" fromLane="0" toLane="0" via=":6365_8_0" dir="s" state="m"/>
    <connection from=":6365_8" to="1839" fromLane="0" toLane="0" dir="s" state="M"/>
    <connection from=":6365_2" to="-1841" fromLane="0" toLane="0" dir="s" state="M"/>
    <connection from=":6365_3" to="1839" fromLane="0" toLane="0" via=":6365_9_0" dir="s" state="m"/>
    <connection from=":6365_9" to="1839" fromLane="0" toLane="0" dir="s" state="M"/>
    <connection from=":6365_4" to="1839" fromLane="0" toLane="0" dir="s" state="M"/>
    <connection from=":6365_5" to="-1841" fromLane="0" toLane="0" via=":6365_10_0" dir="s" state="m"/>
    <connection from=":6365_10" to="-1841" fromLane="0" toLane="0" dir="s" state="M"/>
    <connection from=":6365_6" to="1839" fromLane="0" toLane="0" dir="s" state="M"/>
    <connection from=":6365_7" to="-1841" fromLane="0" toLane="0" via=":6365_11_0" dir="s" state="m"/>
    <connection from=":6365_11" to="-1841" fromLane="0" toLane="0" dir="s" state="M"/>
    <connection from=":6454_0" to="-1839" fromLane="0" toLane="0" dir="s" state="M"/>
    <connection from=":6562_0" to="1841" fromLane="0" toLane="0" dir="s" state="M"/>

</net>
