<?xml version="1.0" encoding="UTF-8"?>
<routes xmlns:xsi="http://www.w3.org/2001/XMLSchema-instance" xsi:noNamespaceSchemaLocation="http://sumo.dlr.de/xsd/routes_file.xsd">
    <vType id="car" accel="5.0" decel="6.0" sigma="0" length="4.5" minGap="1.5" maxSpeed="50" guiShape="passenger"/>
    <vType id="car_trailer" accel="3.5" decel="5.0" sigma="0.0" length="7.5" minGap="1.5" maxSpeed="50" guiShape="passenger"/>
    <vType id="truck" accel="3.0" decel="4.0" sigma="0.0" length="12.0" minGap="1.5" maxSpeed="50" guiShape="truck"/>

    <vehicle arrival="12.00" depart="1.00" id="s1_car_0" type="car">
        <route edges="gneE6 gneE5"/>
    </vehicle>
    <vehicle arrival="18.00" depart="1.00" id="w1_car_0" type="car">
        <route edges="gneE0 gneE3"/>
    </vehicle>
    <vehicle arrival="15.00" depart="2.00" id="n1_car_0" type="car">
        <route edges="gneE4 gneE7"/>
    </vehicle>
    <vehicle arrival="17.00" depart="2.00" id="o3_car_trailer_0" type="car_trailer">
        <route edges="gneE2 gneE7"/>
    </vehicle>
    <vehicle arrival="21.00" depart="3.00" id="s1_car_1" type="car">
        <route edges="gneE6 gneE5"/>
    </vehicle>
    <vehicle arrival="42.00" depart="3.00" id="w1_car_1" type="car">
        <route edges="gneE0 gneE3"/>
    </vehicle>
    <vehicle arrival="19.00" depart="4.00" id="o1_car_0" type="car">
        <route edges="gneE2 gneE1"/>
    </vehicle>
    <vehicle arrival="51.00" depart="4.00" id="n3_car_trailer_0" type="car_trailer">
        <route edges="gneE4 gneE3"/>
    </vehicle>
    <vehicle arrival="29.00" depart="5.00" id="s3_car_0" type="car">
        <route edges="gneE6 gneE1"/>
    </vehicle>
    <vehicle arrival="50.00" depart="5.00" id="w3_car_0" type="car">
        <route edges="gneE0 gneE5"/>
    </vehicle>
    <vehicle arrival="25.00" depart="6.00" id="n1_car_trailer_1" type="car_trailer">
        <route edges="gneE4 gneE7"/>
    </vehicle>
    <vehicle arrival="27.00" depart="6.00" id="o3_car_1" type="car">
        <route edges="gneE2 gneE7"/>
    </vehicle>
    <vehicle arrival="34.00" depart="7.00" id="s3_car_1" type="car">
        <route edges="gneE6 gneE1"/>
    </vehicle>
    <vehicle arrival="35.00" depart="7.00" id="w1_car_2" type="car">
        <route edges="gneE0 gneE3"/>
    </vehicle>
    <vehicle arrival="23.00" depart="8.00" id="o1_car_1" type="car">
        <route edges="gneE2 gneE1"/>
    </vehicle>
    <vehicle arrival="35.00" depart="8.00" id="n1_car_2" type="car">
        <route edges="gneE4 gneE7"/>
    </vehicle>
    <vehicle arrival="25.00" depart="9.00" id="s2_truck_0" type="truck">
        <route edges="gneE6 gneE3"/>
    </vehicle>
    <vehicle arrival="45.00" depart="9.00" id="w1_car_3" type="car">
        <route edges="gneE0 gneE3"/>
    </vehicle>
    <vehicle arrival="31.00" depart="10.00" id="o1_car_2" type="car">
        <route edges="gneE2 gneE1"/>
    </vehicle>
    <vehicle arrival="28.00" depart="11.00" id="s2_car_1" type="car">
        <route edges="gneE6 gneE3"/>
    </vehicle>
    <vehicle arrival="44.00" depart="11.00" id="w1_car_trailer_4" type="car_trailer">
        <route edges="gneE0 gneE3"/>
    </vehicle>
    <vehicle arrival="50.00" depart="11.00" id="n3_car_1" type="car">
        <route edges="gneE4 gneE3"/>
    </vehicle>
    <vehicle arrival="39.00" depart="12.00" id="o1_car_7" type="car">
        <route edges="gneE2 gneE1"/>
    </vehicle>
    <vehicle arrival="40.00" depart="13.00" id="w3_car_2" type="car">
        <route edges="gneE0 gneE5"/>
    </vehicle>
    <vehicle arrival="37.00" depart="15.00" id="s3_car_4" type="car">
        <route edges="gneE6 gneE1"/>
    </vehicle>
    <vehicle arrival="47.00" depart="15.00" id="w1_car_7" type="car">
        <route edges="gneE0 gneE3"/>
    </vehicle>
    <vehicle arrival="29.00" depart="16.00" id="o2_car_2" type="car">
        <route edges="gneE2 gneE5"/>
    </vehicle>
    <vehicle arrival="82.00" depart="17.00" id="w3_car_4" type="car">
        <route edges="gneE0 gneE5"/>
    </vehicle>
    <vehicle arrival="31.00" depart="18.00" id="o2_car_3" type="car">
        <route edges="gneE2 gneE5"/>
    </vehicle>
    <vehicle arrival="44.00" depart="20.00" id="o1_car_11" type="car">
        <route edges="gneE2 gneE1"/>
    </vehicle>
    <vehicle arrival="67.00" depart="20.00" id="w1_truck_10" type="truck">
        <route edges="gneE0 gneE3"/>
    </vehicle>
    <vehicle arrival="36.00" depart="21.00" id="s1_car_5" type="car">
        <route edges="gneE6 gneE5"/>
    </vehicle>
    <vehicle arrival="76.00" depart="21.00" id="n3_truck_3" type="truck">
        <route edges="gneE4 gneE3"/>
    </vehicle>
    <vehicle arrival="55.00" depart="22.00" id="o1_truck_12" type="truck">
        <route edges="gneE2 gneE1"/>
    </vehicle>
    <vehicle arrival="46.00" depart="23.00" id="s3_car_5" type="car">
        <route edges="gneE6 gneE1"/>
    </vehicle>
    <vehicle arrival="46.00" depart="23.00" id="w1_car_13" type="car">
        <route edges="gneE0 gneE3"/>
    </vehicle>
    <vehicle arrival="63.00" depart="24.00" id="o1_car_14" type="car">
        <route edges="gneE2 gneE1"/>
    </vehicle>
    <vehicle arrival="84.00" depart="25.00" id="n3_truck_4" type="truck">
        <route edges="gneE4 gneE3"/>
    </vehicle>
    <vehicle arrival="49.00" depart="26.00" id="w3_car_7" type="car">
        <route edges="gneE0 gneE5"/>
    </vehicle>
    <vehicle arrival="41.00" depart="27.00" id="o2_car_7" type="car">
        <route edges="gneE2 gneE5"/>
    </vehicle>
    <vehicle arrival="51.00" depart="28.00" id="n1_car_9" type="car">
        <route edges="gneE4 gneE7"/>
    </vehicle>
    <vehicle arrival="53.00" depart="29.00" id="o3_car_7" type="car">
        <route edges="gneE2 gneE7"/>
    </vehicle>
    <vehicle arrival="88.00" depart="30.00" id="n3_truck_6" type="truck">
        <route edges="gneE4 gneE3"/>
    </vehicle>
    <vehicle arrival="66.00" depart="31.00" id="w1_car_trailer_16" type="car_trailer">
        <route edges="gneE0 gneE3"/>
    </vehicle>
    <vehicle arrival="75.00" depart="31.00" id="o1_car_16" type="car">
        <route edges="gneE2 gneE1"/>
    </vehicle>
    <vehicle arrival="46.00" depart="33.00" id="o2_car_10" type="car">
        <route edges="gneE2 gneE5"/>
    </vehicle>
    <vehicle arrival="58.00" depart="33.00" id="s3_car_6" type="car">
        <route edges="gneE6 gneE1"/>
    </vehicle>
    <vehicle arrival="61.00" depart="33.00" id="w3_car_9" type="car">
        <route edges="gneE0 gneE5"/>
    </vehicle>
    <vehicle arrival="76.00" depart="35.00" id="n3_car_8" type="car">
        <route edges="gneE4 gneE3"/>
    </vehicle>
    <vehicle arrival="88.00" depart="35.00" id="o1_truck_18" type="truck">
        <route edges="gneE2 gneE1"/>
    </vehicle>
    <vehicle arrival="137.00" depart="37.00" id="w3_car_12" type="car">
        <route edges="gneE0 gneE5"/>
    </vehicle>
    <vehicle arrival="70.00" depart="37.00" id="o3_truck_10" type="truck">
        <route edges="gneE2 gneE7"/>
    </vehicle>
    <vehicle arrival="97.00" depart="37.00" id="n1_car_14" type="car">
        <route edges="gneE4 gneE7"/>
    </vehicle>
    <vehicle arrival="60.00" depart="38.00" id="s1_car_8" type="car">
        <route edges="gneE6 gneE5"/>
    </vehicle>
    <vehicle arrival="52.00" depart="39.00" id="o2_car_11" type="car">
        <route edges="gneE2 gneE5"/>
    </vehicle>
    <vehicle arrival="69.00" depart="39.00" id="w3_car_13" type="car">
        <route edges="gneE0 gneE5"/>
    </vehicle>
    <vehicle arrival="77.00" depart="40.00" id="n2_car_4" type="car">
        <route edges="gneE4 gneE1"/>
    </vehicle>
    <vehicle arrival="64.00" depart="41.00" id="s2_car_2" type="car">
        <route edges="gneE6 gneE3"/>
    </vehicle>
    <vehicle arrival="65.00" depart="41.00" id="o3_car_14" type="car">
        <route edges="gneE2 gneE7"/>
    </vehicle>
    <vehicle arrival="78.00" depart="41.00" id="w1_car_20" type="car">
        <route edges="gneE0 gneE3"/>
    </vehicle>
    <vehicle arrival="56.00" depart="43.00" id="o2_car_14" type="car">
        <route edges="gneE2 gneE5"/>
    </vehicle>
    <vehicle arrival="68.00" depart="43.00" id="s1_car_10" type="car">
        <route edges="gneE6 gneE5"/>
    </vehicle>
    <vehicle arrival="77.00" depart="43.00" id="w3_car_14" type="car">
        <route edges="gneE0 gneE5"/>
    </vehicle>
    <vehicle arrival="77.00" depart="45.00" id="o3_car_16" type="car">
        <route edges="gneE2 gneE7"/>
    </vehicle>
    <vehicle arrival="91.00" depart="45.00" id="w1_car_trailer_22" type="car_trailer">
        <route edges="gneE0 gneE3"/>
    </vehicle>
    <vehicle arrival="96.00" depart="45.00" id="s1_car_11" type="car">
        <route edges="gneE6 gneE5"/>
    </vehicle>
    <vehicle arrival="91.00" depart="47.00" id="o1_car_29" type="car">
        <route edges="gneE2 gneE1"/>
    </vehicle>
    <vehicle arrival="78.00" depart="48.00" id="w1_car_26" type="car">
        <route edges="gneE0 gneE3"/>
    </vehicle>
    <vehicle arrival="82.00" depart="49.00" id="o3_car_19" type="car">
        <route edges="gneE2 gneE7"/>
    </vehicle>
    <vehicle arrival="83.00" depart="49.00" id="n3_car_14" type="car">
        <route edges="gneE4 gneE3"/>
    </vehicle>
    <vehicle arrival="64.00" depart="51.00" id="o2_car_17" type="car">
        <route edges="gneE2 gneE5"/>
    </vehicle>
    <vehicle arrival="129.00" depart="52.00" id="w3_car_17" type="car">
        <route edges="gneE0 gneE5"/>
    </vehicle>
    <vehicle arrival="97.00" depart="52.00" id="s1_car_13" type="car">
        <route edges="gneE6 gneE5"/>
    </vehicle>
    <vehicle arrival="94.00" depart="53.00" id="o1_car_33" type="car">
        <route edges="gneE2 gneE1"/>
    </vehicle>
    <vehicle arrival="163.00" depart="55.00" id="n1_car_25" type="car">
        <route edges="gneE4 gneE7"/>
    </vehicle>
    <vehicle arrival="88.00" depart="55.00" id="w2_car_19" type="car">
        <route edges="gneE0 gneE7"/>
    </vehicle>
    <vehicle arrival="100.00" depart="56.00" id="o1_truck_34" type="truck">
        <route edges="gneE2 gneE1"/>
    </vehicle>
    <vehicle arrival="107.00" depart="57.00" id="w3_car_21" type="car">
        <route edges="gneE0 gneE5"/>
    </vehicle>
    <vehicle arrival="84.00" depart="57.00" id="s3_car_10" type="car">
        <route edges="gneE6 gneE1"/>
    </vehicle>
    <vehicle arrival="121.00" depart="58.00" id="o1_car_35" type="car">
        <route edges="gneE2 gneE1"/>
    </vehicle>
    <vehicle arrival="102.00" depart="59.00" id="s2_car_3" type="car">
        <route edges="gneE6 gneE3"/>
    </vehicle>
    <vehicle arrival="79.00" depart="59.00" id="n2_car_9" type="car">
        <route edges="gneE4 gneE1"/>
    </vehicle>
    <vehicle arrival="73.00" depart="60.00" id="o2_car_19" type="car">
        <route edges="gneE2 gneE5"/>
    </vehicle>
    <vehicle arrival="90.00" depart="60.00" id="w1_car_trailer_32" type="car_trailer">
        <route edges="gneE0 gneE3"/>
    </vehicle>
    <vehicle arrival="79.00" depart="62.00" id="o2_car_20" type="car">
        <route edges="gneE2 gneE5"/>
    </vehicle>
    <vehicle arrival="196.00" depart="64.00" id="n1_car_30" type="car">
        <route edges="gneE4 gneE7"/>
    </vehicle>
    <vehicle arrival="85.00" depart="64.00" id="o2_truck_22" type="truck">
        <route edges="gneE2 gneE5"/>
    </vehicle>
    <vehicle arrival="104.00" depart="65.00" id="w1_car_35" type="car">
        <route edges="gneE0 gneE3"/>
    </vehicle>
    <vehicle arrival="88.00" depart="66.00" id="o2_truck_23" type="truck">
        <route edges="gneE2 gneE5"/>
    </vehicle>
    <vehicle arrival="92.00" depart="67.00" id="w1_car_37" type="car">
        <route edges="gneE0 gneE3"/>
    </vehicle>
    <vehicle arrival="113.00" depart="68.00" id="n1_car_35" type="car">
        <route edges="gneE4 gneE7"/>
    </vehicle>
    <vehicle arrival="105.00" depart="69.00" id="s1_car_15" type="car">
        <route edges="gneE6 gneE5"/>
    </vehicle>
    <vehicle arrival="140.00" depart="69.00" id="o1_car_43" type="car">
        <route edges="gneE2 gneE1"/>
    </vehicle>
    <vehicle arrival="112.00" depart="71.00" id="w1_car_40" type="car">
        <route edges="gneE0 gneE3"/>
    </vehicle>
    <vehicle arrival="220.00" depart="71.00" id="o1_car_44" type="car">
        <route edges="gneE2 gneE1"/>
    </vehicle>
    <vehicle arrival="104.00" depart="73.00" id="w1_car_41" type="car">
        <route edges="gneE0 gneE3"/>
    </vehicle>
    <vehicle arrival="132.00" depart="73.00" id="n1_car_37" type="car">
        <route edges="gneE4 gneE7"/>
    </vehicle>
    <vehicle arrival="232.00" depart="73.00" id="o1_car_trailer_46" type="car_trailer">
        <route edges="gneE2 gneE1"/>
    </vehicle>
    <vehicle arrival="93.00" depart="74.00" id="s3_car_12" type="car">
        <route edges="gneE6 gneE1"/>
    </vehicle>
    <vehicle arrival="252.00" depart="75.00" id="o1_car_47" type="car">
        <route edges="gneE2 gneE1"/>
    </vehicle>
    <vehicle arrival="104.00" depart="76.00" id="s3_car_13" type="car">
        <route edges="gneE6 gneE1"/>
    </vehicle>
    <vehicle arrival="147.00" depart="77.00" id="w3_truck_31" type="truck">
        <route edges="gneE0 gneE5"/>
    </vehicle>
    <vehicle arrival="115.00" depart="78.00" id="o1_car_trailer_51" type="car_trailer">
        <route edges="gneE2 gneE1"/>
    </vehicle>
    <vehicle arrival="136.00" depart="78.00" id="n1_car_38" type="car">
        <route edges="gneE4 gneE7"/>
    </vehicle>
    <vehicle arrival="105.00" depart="79.00" id="s3_car_14" type="car">
        <route edges="gneE6 gneE1"/>
    </vehicle>
    <vehicle arrival="117.00" depart="80.00" id="o1_car_52" type="car">
        <route edges="gneE2 gneE1"/>
    </vehicle>
    <vehicle arrival="101.00" depart="81.00" id="w2_car_30" type="car">
        <route edges="gneE0 gneE7"/>
    </vehicle>
    <vehicle arrival="124.00" depart="82.00" id="o1_car_54" type="car">
        <route edges="gneE2 gneE1"/>
    </vehicle>
    <vehicle arrival="135.00" depart="82.00" id="n2_car_13" type="car">
        <route edges="gneE4 gneE1"/>
    </vehicle>
    <vehicle arrival="113.00" depart="84.00" id="w1_car_50" type="car">
        <route edges="gneE0 gneE3"/>
    </vehicle>
    <vehicle arrival="118.00" depart="84.00" id="o1_car_55" type="car">
        <route edges="gneE2 gneE1"/>
    </vehicle>
    <vehicle arrival="128.00" depart="84.00" id="s3_car_16" type="car">
        <route edges="gneE6 gneE1"/>
    </vehicle>
    <vehicle arrival="180.00" depart="85.00" id="n1_car_42" type="car">
        <route edges="gneE4 gneE7"/>
    </vehicle>
    <vehicle arrival="110.00" depart="86.00" id="w2_car_31" type="car">
        <route edges="gneE0 gneE7"/>
    </vehicle>
    <vehicle arrival="126.00" depart="86.00" id="o1_car_58" type="car">
        <route edges="gneE2 gneE1"/>
    </vehicle>
    <vehicle arrival="134.00" depart="89.00" id="o1_car_62" type="car">
        <route edges="gneE2 gneE1"/>
    </vehicle>
    <vehicle arrival="158.00" depart="89.00" id="w3_car_38" type="car">
        <route edges="gneE0 gneE5"/>
    </vehicle>
    <vehicle arrival="109.00" depart="90.00" id="s2_car_5" type="car">
        <route edges="gneE6 gneE3"/>
    </vehicle>
    <vehicle arrival="190.00" depart="90.00" id="n1_car_trailer_49" type="car_trailer">
        <route edges="gneE4 gneE7"/>
    </vehicle>
    <vehicle arrival="155.00" depart="91.00" id="w1_car_56" type="car">
        <route edges="gneE0 gneE3"/>
    </vehicle>
    <vehicle arrival="116.00" depart="93.00" id="o3_car_31" type="car">
        <route edges="gneE2 gneE7"/>
    </vehicle>
    <vehicle arrival="124.00" depart="94.00" id="w1_car_58" type="car">
        <route edges="gneE0 gneE3"/>
    </vehicle>
    <vehicle arrival="128.00" depart="95.00" id="s1_car_24" type="car">
        <route edges="gneE6 gneE5"/>
    </vehicle>
    <vehicle arrival="182.00" depart="96.00" id="n2_car_16" type="car">
        <route edges="gneE4 gneE1"/>
    </vehicle>
    <vehicle arrival="132.00" depart="97.00" id="s2_car_trailer_7" type="car_trailer">
        <route edges="gneE6 gneE3"/>
    </vehicle>
    <vehicle arrival="121.00" depart="98.00" id="w2_car_38" type="car">
        <route edges="gneE0 gneE7"/>
    </vehicle>
    <vehicle arrival="207.00" depart="98.00" id="o3_truck_35" type="truck">
        <route edges="gneE2 gneE7"/>
    </vehicle>
    <vehicle arrival="123.00" depart="100.00" id="w2_car_39" type="car">
        <route edges="gneE0 gneE7"/>
    </vehicle>
    <vehicle arrival="138.00" depart="100.00" id="o3_car_36" type="car">
        <route edges="gneE2 gneE7"/>
    </vehicle>
    <vehicle arrival="194.00" depart="101.00" id="n1_car_54" type="car">
        <route edges="gneE4 gneE7"/>
    </vehicle>
    <vehicle arrival="283.00" depart="102.00" id="o1_car_68" type="car">
        <route edges="gneE2 gneE1"/>
    </vehicle>
    <vehicle arrival="144.00" depart="103.00" id="w3_car_44" type="car">
        <route edges="gneE0 gneE5"/>
    </vehicle>
    <vehicle arrival="134.00" depart="105.00" id="s2_car_9" type="car">
        <route edges="gneE6 gneE3"/>
    </vehicle>
    <vehicle arrival="156.00" depart="105.00" id="w1_car_70" type="car">
        <route edges="gneE0 gneE3"/>
    </vehicle>
    <vehicle arrival="208.00" depart="106.00" id="o1_truck_72" type="truck">
        <route edges="gneE2 gneE1"/>
    </vehicle>
    <vehicle arrival="149.00" depart="108.00" id="o2_car_35" type="car">
        <route edges="gneE2 gneE5"/>
    </vehicle>
    <vehicle arrival="135.00" depart="109.00" id="s1_car_28" type="car">
        <route edges="gneE6 gneE5"/>
    </vehicle>
    <vehicle arrival="137.00" depart="109.00" id="w1_car_74" type="car">
        <route edges="gneE0 gneE3"/>
    </vehicle>
    <vehicle arrival="152.00" depart="111.00" id="w1_car_76" type="car">
        <route edges="gneE0 gneE3"/>
    </vehicle>
    <vehicle arrival="150.00" depart="112.00" id="o2_car_37" type="car">
        <route edges="gneE2 gneE5"/>
    </vehicle>
    <vehicle arrival="148.00" depart="113.00" id="w1_car_77" type="car">
        <route edges="gneE0 gneE3"/>
    </vehicle>
    <vehicle arrival="141.00" depart="114.00" id="o1_car_77" type="car">
        <route edges="gneE2 gneE1"/>
    </vehicle>
    <vehicle arrival="143.00" depart="116.00" id="s3_car_19" type="car">
        <route edges="gneE6 gneE1"/>
    </vehicle>
    <vehicle arrival="192.00" depart="116.00" id="o3_car_40" type="car">
        <route edges="gneE2 gneE7"/>
    </vehicle>
    <vehicle arrival="146.00" depart="117.00" id="w3_car_51" type="car">
        <route edges="gneE0 gneE5"/>
    </vehicle>
    <vehicle arrival="150.00" depart="118.00" id="s3_car_20" type="car">
        <route edges="gneE6 gneE1"/>
    </vehicle>
    <vehicle arrival="262.00" depart="118.00" id="o3_car_43" type="car">
        <route edges="gneE2 gneE7"/>
    </vehicle>
    <vehicle arrival="145.00" depart="120.00" id="w2_car_45" type="car">
        <route edges="gneE0 gneE7"/>
    </vehicle>
    <vehicle arrival="155.00" depart="120.00" id="o2_car_38" type="car">
        <route edges="gneE2 gneE5"/>
    </vehicle>
    <vehicle arrival="143.00" depart="122.00" id="s1_car_33" type="car">
        <route edges="gneE6 gneE5"/>
    </vehicle>
    <vehicle arrival="153.00" depart="122.00" id="w3_car_56" type="car">
        <route edges="gneE0 gneE5"/>
    </vehicle>
    <vehicle arrival="308.00" depart="123.00" id="o1_car_84" type="car">
        <route edges="gneE2 gneE1"/>
    </vehicle>
    <vehicle arrival="155.00" depart="125.00" id="w1_car_86" type="car">
        <route edges="gneE0 gneE3"/>
    </vehicle>
    <vehicle arrival="287.00" depart="125.00" id="o3_truck_47" type="truck">
        <route edges="gneE2 gneE7"/>
    </vehicle>
    <vehicle arrival="167.00" depart="126.00" id="s1_car_35" type="car">
        <route edges="gneE6 gneE5"/>
    </vehicle>
    <vehicle arrival="203.00" depart="127.00" id="o1_car_87" type="car">
        <route edges="gneE2 gneE1"/>
    </vehicle>
    <vehicle arrival="168.00" depart="129.00" id="s1_car_37" type="car">
        <route edges="gneE6 gneE5"/>
    </vehicle>
    <vehicle arrival="205.00" depart="129.00" id="o2_car_43" type="car">
        <route edges="gneE2 gneE5"/>
    </vehicle>
    <vehicle arrival="158.00" depart="130.00" id="w1_car_89" type="car">
        <route edges="gneE0 gneE3"/>
    </vehicle>
    <vehicle arrival="279.00" depart="131.00" id="o1_car_91" type="car">
        <route edges="gneE2 gneE1"/>
    </vehicle>
    <vehicle arrival="179.00" depart="132.00" id="s1_car_40" type="car">
        <route edges="gneE6 gneE5"/>
    </vehicle>
    <vehicle arrival="251.00" depart="133.00" id="o1_car_92" type="car">
        <route edges="gneE2 gneE1"/>
    </vehicle>
    <vehicle arrival="208.00" depart="134.00" id="n3_car_38" type="car">
        <route edges="gneE4 gneE3"/>
    </vehicle>
    <vehicle arrival="157.00" depart="135.00" id="w3_car_63" type="car">
        <route edges="gneE0 gneE5"/>
    </vehicle>
    <vehicle arrival="388.00" depart="136.00" id="o1_car_94" type="car">
        <route edges="gneE2 gneE1"/>
    </vehicle>
    <vehicle arrival="180.00" depart="137.00" id="s1_car_43" type="car">
        <route edges="gneE6 gneE5"/>
    </vehicle>
    <vehicle arrival="294.00" depart="138.00" id="o1_car_95" type="car">
        <route edges="gneE2 gneE1"/>
    </vehicle>
    <vehicle arrival="192.00" depart="139.00" id="n2_car_22" type="car">
        <route edges="gneE4 gneE1"/>
    </vehicle>
    <vehicle arrival="152.00" depart="140.00" id="w2_car_54" type="car">
        <route edges="gneE0 gneE7"/>
    </vehicle>
    <vehicle arrival="273.00" depart="140.00" id="o3_car_54" type="car">
        <route edges="gneE2 gneE7"/>
    </vehicle>
    <vehicle arrival="159.00" depart="142.00" id="w1_car_92" type="car">
        <route edges="gneE0 gneE3"/>
    </vehicle>
    <vehicle arrival="291.00" depart="142.00" id="o1_car_99" type="car">
        <route edges="gneE2 gneE1"/>
    </vehicle>
    <vehicle arrival="182.00" depart="144.00" id="s1_car_44" type="car">
        <route edges="gneE6 gneE5"/>
    </vehicle>
    <vehicle arrival="246.00" depart="144.00" id="o1_car_100" type="car">
        <route edges="gneE2 gneE1"/>
    </vehicle>
    <vehicle arrival="161.00" depart="145.00" id="w1_car_94" type="car">
        <route edges="gneE0 gneE3"/>
    </vehicle>
    <vehicle arrival="193.00" depart="146.00" id="n3_car_39" type="car">
        <route edges="gneE4 gneE3"/>
    </vehicle>
    <vehicle arrival="275.00" depart="146.00" id="o3_car_59" type="car">
        <route edges="gneE2 gneE7"/>
    </vehicle>
    <vehicle arrival="159.00" depart="147.00" id="w3_car_65" type="car">
        <route edges="gneE0 gneE5"/>
    </vehicle>
    <vehicle arrival="247.00" depart="148.00" id="o1_car_102" type="car">
        <route edges="gneE2 gneE1"/>
    </vehicle>
    <vehicle arrival="165.00" depart="149.00" id="w1_car_100" type="car">
        <route edges="gneE0 gneE3"/>
    </vehicle>
    <vehicle arrival="168.00" depart="151.00" id="w1_truck_102" type="truck">
        <route edges="gneE0 gneE3"/>
    </vehicle>
    <vehicle arrival="248.00" depart="151.00" id="o2_car_51" type="car">
        <route edges="gneE2 gneE5"/>
    </vehicle>
    <vehicle arrival="194.00" depart="153.00" id="n3_car_41" type="car">
        <route edges="gneE4 gneE3"/>
    </vehicle>
    <vehicle arrival="171.00" depart="154.00" id="w3_car_67" type="car">
        <route edges="gneE0 gneE5"/>
    </vehicle>
    <vehicle arrival="175.00" depart="156.00" id="w1_truck_105" type="truck">
        <route edges="gneE0 gneE3"/>
    </vehicle>
    <vehicle arrival="211.00" depart="157.00" id="n1_car_74" type="car">
        <route edges="gneE4 gneE7"/>
    </vehicle>
    <vehicle arrival="175.00" depart="158.00" id="w1_car_107" type="car">
        <route edges="gneE0 gneE3"/>
    </vehicle>
    <vehicle arrival="248.00" depart="158.00" id="o3_car_61" type="car">
        <route edges="gneE2 gneE7"/>
    </vehicle>
    <vehicle arrival="221.00" depart="161.00" id="n3_car_44" type="car">
        <route edges="gneE4 gneE3"/>
    </vehicle>
    <vehicle arrival="293.00" depart="161.00" id="o3_car_62" type="car">
        <route edges="gneE2 gneE7"/>
    </vehicle>
    <vehicle arrival="178.00" depart="162.00" id="w1_car_111" type="car">
        <route edges="gneE0 gneE3"/>
    </vehicle>
    <vehicle arrival="276.00" depart="163.00" id="o3_car_65" type="car">
        <route edges="gneE2 gneE7"/>
    </vehicle>
    <vehicle arrival="180.00" depart="164.00" id="w1_car_114" type="car">
        <route edges="gneE0 gneE3"/>
    </vehicle>
    <vehicle arrival="184.00" depart="164.00" id="s1_car_46" type="car">
        <route edges="gneE6 gneE5"/>
    </vehicle>
    <vehicle arrival="177.00" depart="166.00" id="w2_car_58" type="car">
        <route edges="gneE0 gneE7"/>
    </vehicle>
    <vehicle arrival="298.00" depart="167.00" id="o1_car_106" type="car">
        <route edges="gneE2 gneE1"/>
    </vehicle>
    <vehicle arrival="186.00" depart="168.00" id="s1_car_47" type="car">
        <route edges="gneE6 gneE5"/>
    </vehicle>
    <vehicle arrival="192.00" depart="168.00" id="w1_car_115" type="car">
        <route edges="gneE0 gneE3"/>
    </vehicle>
    <vehicle arrival="274.00" depart="169.00" id="o1_car_108" type="car">
        <route edges="gneE2 gneE1"/>
    </vehicle>
    <vehicle arrival="192.00" depart="170.00" id="w1_car_116" type="car">
        <route edges="gneE0 gneE3"/>
    </vehicle>
    <vehicle arrival="203.00" depart="171.00" id="o3_car_67" type="car">
        <route edges="gneE2 gneE7"/>
    </vehicle>
    <vehicle arrival="219.00" depart="172.00" id="w1_car_118" type="car">
        <route edges="gneE0 gneE3"/>
    </vehicle>
    <vehicle arrival="205.00" depart="174.00" id="w1_car_120" type="car">
        <route edges="gneE0 gneE3"/>
    </vehicle>
    <vehicle arrival="287.00" depart="174.00" id="o1_car_110" type="car">
        <route edges="gneE2 gneE1"/>
    </vehicle>
    <vehicle arrival="236.00" depart="176.00" id="w1_car_123" type="car">
        <route edges="gneE0 gneE3"/>
    </vehicle>
    <vehicle arrival="248.00" depart="177.00" id="o1_car_111" type="car">
        <route edges="gneE2 gneE1"/>
    </vehicle>
    <vehicle arrival="218.00" depart="179.00" id="w1_car_125" type="car">
        <route edges="gneE0 gneE3"/>
    </vehicle>
    <vehicle arrival="198.00" depart="180.00" id="n2_car_27" type="car">
        <route edges="gneE4 gneE1"/>
    </vehicle>
    <vehicle arrival="296.00" depart="180.00" id="o3_car_71" type="car">
        <route edges="gneE2 gneE7"/>
    </vehicle>
    <vehicle arrival="194.00" depart="181.00" id="s1_truck_49" type="truck">
        <route edges="gneE6 gneE5"/>
    </vehicle>
    <vehicle arrival="250.00" depart="181.00" id="w1_car_126" type="car">
        <route edges="gneE0 gneE3"/>
    </vehicle>
    <vehicle arrival="247.00" depart="183.00" id="w2_car_63" type="car">
        <route edges="gneE0 gneE7"/>
    </vehicle>
    <vehicle arrival="280.00" depart="183.00" id="o2_car_58" type="car">
        <route edges="gneE2 gneE5"/>
    </vehicle>
    <vehicle arrival="200.00" depart="184.00" id="n2_car_30" type="car">
        <route edges="gneE4 gneE1"/>
    </vehicle>
    <vehicle arrival="200.00" depart="185.00" id="s2_car_20" type="car">
        <route edges="gneE6 gneE3"/>
    </vehicle>
    <vehicle arrival="229.00" depart="185.00" id="w1_car_131" type="car">
        <route edges="gneE0 gneE3"/>
    </vehicle>
    <vehicle arrival="318.00" depart="186.00" id="o1_car_115" type="car">
        <route edges="gneE2 gneE1"/>
    </vehicle>
    <vehicle arrival="199.00" depart="187.00" id="s1_car_52" type="car">
        <route edges="gneE6 gneE5"/>
    </vehicle>
    <vehicle arrival="236.00" depart="187.00" id="w1_car_132" type="car">
        <route edges="gneE0 gneE3"/>
    </vehicle>
    <vehicle arrival="283.00" depart="189.00" id="o2_truck_63" type="truck">
        <route edges="gneE2 gneE5"/>
    </vehicle>
    <vehicle arrival="210.00" depart="191.00" id="s1_car_53" type="car">
        <route edges="gneE6 gneE5"/>
    </vehicle>
    <vehicle arrival="242.00" depart="191.00" id="n3_car_51" type="car">
        <route edges="gneE4 gneE3"/>
    </vehicle>
    <vehicle arrival="250.00" depart="192.00" id="w1_car_134" type="car">
        <route edges="gneE0 gneE3"/>
    </vehicle>
    <vehicle arrival="205.00" depart="193.00" id="s3_car_34" type="car">
        <route edges="gneE6 gneE1"/>
    </vehicle>
    <vehicle arrival="218.00" depart="193.00" id="n1_car_90" type="car">
        <route edges="gneE4 gneE7"/>
    </vehicle>
    <vehicle arrival="214.00" depart="195.00" id="w3_car_81" type="car">
        <route edges="gneE0 gneE5"/>
    </vehicle>
    <vehicle arrival="237.00" depart="195.00" id="n1_truck_92" type="truck">
        <route edges="gneE4 gneE7"/>
    </vehicle>
    <vehicle arrival="213.00" depart="198.00" id="s3_car_35" type="car">
        <route edges="gneE6 gneE1"/>
    </vehicle>
    <vehicle arrival="253.00" depart="198.00" id="w1_car_140" type="car">
        <route edges="gneE0 gneE3"/>
    </vehicle>
    <vehicle arrival="223.00" depart="204.00" id="n1_car_trailer_96" type="car_trailer">
        <route edges="gneE4 gneE7"/>
    </vehicle>
    <vehicle arrival="250.00" depart="204.00" id="w2_car_72" type="car">
        <route edges="gneE0 gneE7"/>
    </vehicle>
    <vehicle arrival="242.00" depart="206.00" id="n3_car_53" type="car">
        <route edges="gneE4 gneE3"/>
    </vehicle>
    <vehicle arrival="222.00" depart="207.00" id="s2_car_trailer_22" type="car_trailer">
        <route edges="gneE6 gneE3"/>
    </vehicle>
    <vehicle arrival="251.00" depart="209.00" id="w1_car_148" type="car">
        <route edges="gneE0 gneE3"/>
    </vehicle>
    <vehicle arrival="225.00" depart="210.00" id="s2_car_23" type="car">
        <route edges="gneE6 gneE3"/>
    </vehicle>