<?xml version="1.0" encoding="UTF-8"?>

<!-- generated on 2022-04-22 11:02:40 by Eclipse SUMO netedit Version v1_12_0+2231-716019c1d80
-->

<routes xmlns:xsi="http://www.w3.org/2001/XMLSchema-instance" xsi:noNamespaceSchemaLocation="http://sumo.dlr.de/xsd/routes_file.xsd">
    <!-- Vehicles, persons and containers (sorted by depart) -->
    <personFlow id="p_0" begin="0.00" end="23.00" period="10.00">
        <personTrip from="gneE2" to="gneE5" arrivalPos="0.00"/>
    </personFlow>
    <personFlow id="p_5" begin="0.00" end="23.00" period="20.30">
        <personTrip from="gneE2" to="gneE5" arrivalPos="0.00"/>
    </personFlow>
    <personFlow id="p_6" begin="0.00" end="23.00" period="2.30">
        <personTrip from="gneE2" to="gneE5" arrivalPos="0.00"/>
    </personFlow>
    <personFlow id="p_7" begin="0.00" end="23.00" period="1.70">
        <personTrip from="gneE2" to="gneE5" arrivalPos="0.00"/>
    </personFlow>
</routes>
