<?xml version="1.0" encoding="UTF-8"?>

<!-- generated on Fri 31 Aug 2012 02:06:58 PM CEST by Netedit Version dev-SVN-r12623
<?xml version="1.0" encoding="UTF-8"?>

<configuration xmlns:xsi="http://www.w3.org/2001/XMLSchema-instance" xsi:noNamespaceSchemaLocation="http://sumo.dlr.de/xsd/netedit.exeConfiguration.xsd">

    <input>
        <sumo-net-file value="/home/erdm_ja/delphi-extern/sumo/tests/sumo/bugs/ticket747/net.net.xml"/>
    </input>

    <output>
        <output-file value="/home/erdm_ja/delphi-extern/sumo/tests/sumo/bugs/ticket747/net.net.xml"/>
    </output>

    <processing>
        <no-turnarounds value="true"/>
        <offset.disable-normalization value="true"/>
    </processing>

</configuration>
-->

<net version="0.13" xmlns:xsi="http://www.w3.org/2001/XMLSchema-instance" xsi:noNamespaceSchemaLocation="http://sumo.dlr.de/xsd/net_file.xsd">

    <location netOffset="0.00,0.00" convBoundary="0.00,0.00,1600.00,800.00" origBoundary="0.00,0.00,1600.00,800.00" projParameter="!"/>

    <edge id=":0/0_0" function="internal">
        <lane id=":0/0_0_0" index="0" speed="10.00" length="7.90" shape="-1.65,3.25 -1.34,1.11 -0.42,-0.42 1.11,-1.34 3.25,-1.65"/>
    </edge>
    <edge id=":0/0_1" function="internal">
        <lane id=":0/0_1_0" index="0" speed="10.00" length="2.41" shape="-1.65,3.25 -0.83,2.01 -0.00,1.60"/>
    </edge>
    <edge id=":0/0_4" function="internal">
        <lane id=":0/0_4_0" index="0" speed="10.00" length="2.41" shape="-0.00,1.60 0.82,2.01 1.65,3.25"/>
    </edge>
    <edge id=":0/0_2" function="internal">
        <lane id=":0/0_2_0" index="0" speed="10.00" length="2.58" shape="3.25,1.65 2.55,1.75 2.05,2.05 1.75,2.55 1.65,3.25"/>
    </edge>
    <edge id=":0/0_3" function="internal">
        <lane id=":0/0_3_0" index="0" speed="10.00" length="2.41" shape="3.25,1.65 2.01,0.83 1.60,0.00"/>
    </edge>
    <edge id=":0/0_5" function="internal">
        <lane id=":0/0_5_0" index="0" speed="10.00" length="2.41" shape="1.60,0.00 2.01,-0.82 3.25,-1.65"/>
    </edge>
    <edge id=":0/1_0" function="internal">
        <lane id=":0/1_0_0" index="0" speed="10.00" length="9.50" shape="-1.65,404.75 -1.65,395.25"/>
    </edge>
    <edge id=":0/1_1" function="internal">
        <lane id=":0/1_1_0" index="0" speed="10.00" length="7.14" shape="-1.65,404.75 -1.25,401.95 -0.05,399.95 1.65,398.93"/>
    </edge>
    <edge id=":0/1_9" function="internal">
        <lane id=":0/1_9_0" index="0" speed="10.00" length="3.18" shape="1.65,398.93 1.95,398.75 4.75,398.35"/>
    </edge>
    <edge id=":0/1_2" function="internal">
        <lane id=":0/1_2_0" index="0" speed="10.00" length="2.41" shape="-1.65,404.75 -0.83,403.51 -0.00,403.10"/>
    </edge>
    <edge id=":0/1_10" function="internal">
        <lane id=":0/1_10_0" index="0" speed="10.00" length="2.41" shape="-0.00,403.10 0.82,403.51 1.65,404.75"/>
    </edge>
    <edge id=":0/1_3" function="internal">
        <lane id=":0/1_3_0" index="0" speed="10.00" length="5.00" shape="4.75,401.65 3.39,401.84 2.42,402.42 1.84,403.39 1.65,404.75"/>
    </edge>
    <edge id=":0/1_4" function="internal">
        <lane id=":0/1_4_0" index="0" speed="10.00" length="3.18" shape="4.75,401.65 1.95,401.25 1.65,401.07"/>
    </edge>
    <edge id=":0/1_11" function="internal">
        <lane id=":0/1_11_0" index="0" speed="10.00" length="7.14" shape="1.65,401.07 -0.05,400.05 -1.25,398.05 -1.65,395.25"/>
    </edge>
    <edge id=":0/1_5" function="internal">
        <lane id=":0/1_5_0" index="0" speed="10.00" length="2.41" shape="4.75,401.65 3.51,400.83 3.10,400.00"/>
    </edge>
    <edge id=":0/1_12" function="internal">
        <lane id=":0/1_12_0" index="0" speed="10.00" length="2.41" shape="3.10,400.00 3.51,399.18 4.75,398.35"/>
    </edge>
    <edge id=":0/1_6" function="internal">
        <lane id=":0/1_6_0" index="0" speed="10.00" length="5.00" shape="1.65,395.25 1.84,396.61 2.42,397.58 3.39,398.16 4.75,398.35"/>
    </edge>
    <edge id=":0/1_7" function="internal">
        <lane id=":0/1_7_0" index="0" speed="10.00" length="9.50" shape="1.65,395.25 1.65,404.75"/>
    </edge>
    <edge id=":0/1_8" function="internal">
        <lane id=":0/1_8_0" index="0" speed="10.00" length="2.41" shape="1.65,395.25 0.83,396.49 0.00,396.90"/>
    </edge>
    <edge id=":0/1_13" function="internal">
        <lane id=":0/1_13_0" index="0" speed="10.00" length="2.41" shape="0.00,396.90 -0.82,396.49 -1.65,395.25"/>
    </edge>
    <edge id=":0/2_0" function="internal">
        <lane id=":0/2_0_0" index="0" speed="10.00" length="7.90" shape="3.25,801.65 1.11,801.34 -0.42,800.42 -1.34,798.89 -1.65,796.75"/>
    </edge>
    <edge id=":0/2_1" function="internal">
        <lane id=":0/2_1_0" index="0" speed="10.00" length="2.41" shape="3.25,801.65 2.01,800.82 1.60,800.00"/>
    </edge>
    <edge id=":0/2_4" function="internal">
        <lane id=":0/2_4_0" index="0" speed="10.00" length="2.41" shape="1.60,800.00 2.01,799.17 3.25,798.35"/>
    </edge>
    <edge id=":0/2_2" function="internal">
        <lane id=":0/2_2_0" index="0" speed="10.00" length="2.58" shape="1.65,796.75 1.75,797.45 2.05,797.95 2.55,798.25 3.25,798.35"/>
    </edge>
    <edge id=":0/2_3" function="internal">
        <lane id=":0/2_3_0" index="0" speed="10.00" length="2.41" shape="1.65,796.75 0.83,797.99 0.00,798.40"/>
    </edge>
    <edge id=":0/2_5" function="internal">
        <lane id=":0/2_5_0" index="0" speed="10.00" length="2.41" shape="0.00,798.40 -0.82,797.99 -1.65,796.75"/>
    </edge>
    <edge id=":1/0_0" function="internal">
        <lane id=":1/0_0_0" index="0" speed="10.00" length="5.00" shape="398.35,4.75 398.16,3.39 397.58,2.42 396.61,1.84 395.25,1.65"/>
    </edge>
    <edge id=":1/0_1" function="internal">
        <lane id=":1/0_1_0" index="0" speed="10.00" length="3.18" shape="398.35,4.75 398.75,1.95 398.93,1.65"/>
    </edge>
    <edge id=":1/0_9" function="internal">
        <lane id=":1/0_9_0" index="0" speed="10.00" length="7.14" shape="398.93,1.65 399.95,-0.05 401.95,-1.25 404.75,-1.65"/>
    </edge>
    <edge id=":1/0_2" function="internal">
        <lane id=":1/0_2_0" index="0" speed="10.00" length="2.41" shape="398.35,4.75 399.17,3.51 400.00,3.10"/>
    </edge>
    <edge id=":1/0_10" function="internal">
        <lane id=":1/0_10_0" index="0" speed="10.00" length="2.41" shape="400.00,3.10 400.82,3.51 401.65,4.75"/>
    </edge>
    <edge id=":1/0_3" function="internal">
        <lane id=":1/0_3_0" index="0" speed="10.00" length="5.00" shape="404.75,1.65 403.39,1.84 402.42,2.42 401.84,3.39 401.65,4.75"/>
    </edge>
    <edge id=":1/0_4" function="internal">
        <lane id=":1/0_4_0" index="0" speed="10.00" length="9.50" shape="404.75,1.65 395.25,1.65"/>
    </edge>
    <edge id=":1/0_5" function="internal">
        <lane id=":1/0_5_0" index="0" speed="10.00" length="2.41" shape="404.75,1.65 403.51,0.83 403.10,0.00"/>
    </edge>
    <edge id=":1/0_11" function="internal">
        <lane id=":1/0_11_0" index="0" speed="10.00" length="2.41" shape="403.10,0.00 403.51,-0.82 404.75,-1.65"/>
    </edge>
    <edge id=":1/0_6" function="internal">
        <lane id=":1/0_6_0" index="0" speed="10.00" length="9.50" shape="395.25,-1.65 404.75,-1.65"/>
    </edge>
    <edge id=":1/0_7" function="internal">
        <lane id=":1/0_7_0" index="0" speed="10.00" length="7.14" shape="395.25,-1.65 398.05,-1.25 400.05,-0.05 401.07,1.65"/>
    </edge>
    <edge id=":1/0_12" function="internal">
        <lane id=":1/0_12_0" index="0" speed="10.00" length="3.18" shape="401.07,1.65 401.25,1.95 401.65,4.75"/>
    </edge>
    <edge id=":1/0_8" function="internal">
        <lane id=":1/0_8_0" index="0" speed="10.00" length="2.41" shape="395.25,-1.65 396.49,-0.83 396.90,-0.00"/>
    </edge>
    <edge id=":1/0_13" function="internal">
        <lane id=":1/0_13_0" index="0" speed="10.00" length="2.41" shape="396.90,-0.00 396.49,0.82 395.25,1.65"/>
    </edge>
    <edge id=":1/1_0" function="internal">
        <lane id=":1/1_0_0" index="0" speed="10.00" length="5.00" shape="398.35,404.75 398.16,403.39 397.58,402.42 396.61,401.84 395.25,401.65"/>
    </edge>
    <edge id=":1/1_1" function="internal">
        <lane id=":1/1_1_0" index="0" speed="10.00" length="9.50" shape="398.35,404.75 398.35,395.25"/>
    </edge>
    <edge id=":1/1_2" function="internal">
        <lane id=":1/1_2_0" index="0" speed="10.00" length="3.18" shape="398.35,404.75 398.75,401.95 398.93,401.65"/>
    </edge>
    <edge id=":1/1_16" function="internal">
        <lane id=":1/1_16_0" index="0" speed="10.00" length="7.14" shape="398.93,401.65 399.95,399.95 401.95,398.75 404.75,398.35"/>
    </edge>
    <edge id=":1/1_3" function="internal">
        <lane id=":1/1_3_0" index="0" speed="10.00" length="2.41" shape="398.35,404.75 399.17,403.51 400.00,403.10"/>
    </edge>
    <edge id=":1/1_17" function="internal">
        <lane id=":1/1_17_0" index="0" speed="10.00" length="2.41" shape="400.00,403.10 400.82,403.51 401.65,404.75"/>
    </edge>
    <edge id=":1/1_4" function="internal">
        <lane id=":1/1_4_0" index="0" speed="10.00" length="5.00" shape="404.75,401.65 403.39,401.84 402.42,402.42 401.84,403.39 401.65,404.75"/>
    </edge>
    <edge id=":1/1_5" function="internal">
        <lane id=":1/1_5_0" index="0" speed="10.00" length="9.50" shape="404.75,401.65 395.25,401.65"/>
    </edge>
    <edge id=":1/1_6" function="internal">
        <lane id=":1/1_6_0" index="0" speed="10.00" length="3.18" shape="404.75,401.65 401.95,401.25 401.65,401.07"/>
    </edge>
    <edge id=":1/1_18" function="internal">
        <lane id=":1/1_18_0" index="0" speed="10.00" length="7.14" shape="401.65,401.07 399.95,400.05 398.75,398.05 398.35,395.25"/>
    </edge>
    <edge id=":1/1_7" function="internal">
        <lane id=":1/1_7_0" index="0" speed="10.00" length="2.41" shape="404.75,401.65 403.51,400.83 403.10,400.00"/>
    </edge>
    <edge id=":1/1_19" function="internal">
        <lane id=":1/1_19_0" index="0" speed="10.00" length="2.41" shape="403.10,400.00 403.51,399.18 404.75,398.35"/>
    </edge>
    <edge id=":1/1_8" function="internal">
        <lane id=":1/1_8_0" index="0" speed="10.00" length="5.00" shape="401.65,395.25 401.84,396.61 402.42,397.58 403.39,398.16 404.75,398.35"/>
    </edge>
    <edge id=":1/1_9" function="internal">
        <lane id=":1/1_9_0" index="0" speed="10.00" length="9.50" shape="401.65,395.25 401.65,404.75"/>
    </edge>
    <edge id=":1/1_10" function="internal">
        <lane id=":1/1_10_0" index="0" speed="10.00" length="3.18" shape="401.65,395.25 401.25,398.05 401.07,398.35"/>
    </edge>
    <edge id=":1/1_20" function="internal">
        <lane id=":1/1_20_0" index="0" speed="10.00" length="7.14" shape="401.07,398.35 400.05,400.05 398.05,401.25 395.25,401.65"/>
    </edge>
    <edge id=":1/1_11" function="internal">
        <lane id=":1/1_11_0" index="0" speed="10.00" length="2.41" shape="401.65,395.25 400.83,396.49 400.00,396.90"/>
    </edge>
    <edge id=":1/1_21" function="internal">
        <lane id=":1/1_21_0" index="0" speed="10.00" length="2.41" shape="400.00,396.90 399.18,396.49 398.35,395.25"/>
    </edge>
    <edge id=":1/1_12" function="internal">
        <lane id=":1/1_12_0" index="0" speed="10.00" length="5.00" shape="395.25,398.35 396.61,398.16 397.58,397.58 398.16,396.61 398.35,395.25"/>
    </edge>
    <edge id=":1/1_13" function="internal">
        <lane id=":1/1_13_0" index="0" speed="10.00" length="9.50" shape="395.25,398.35 404.75,398.35"/>
    </edge>
    <edge id=":1/1_14" function="internal">
        <lane id=":1/1_14_0" index="0" speed="10.00" length="3.18" shape="395.25,398.35 398.05,398.75 398.35,398.93"/>
    </edge>
    <edge id=":1/1_22" function="internal">
        <lane id=":1/1_22_0" index="0" speed="10.00" length="7.14" shape="398.35,398.93 400.05,399.95 401.25,401.95 401.65,404.75"/>
    </edge>
    <edge id=":1/1_15" function="internal">
        <lane id=":1/1_15_0" index="0" speed="10.00" length="2.41" shape="395.25,398.35 396.49,399.17 396.90,400.00"/>
    </edge>
    <edge id=":1/1_23" function="internal">
        <lane id=":1/1_23_0" index="0" speed="10.00" length="2.41" shape="396.90,400.00 396.49,400.82 395.25,401.65"/>
    </edge>
    <edge id=":1/2_0" function="internal">
        <lane id=":1/2_0_0" index="0" speed="10.00" length="9.50" shape="404.75,801.65 395.25,801.65"/>
    </edge>
    <edge id=":1/2_1" function="internal">
        <lane id=":1/2_1_0" index="0" speed="10.00" length="7.14" shape="404.75,801.65 401.95,801.25 399.95,800.05 398.93,798.35"/>
    </edge>
    <edge id=":1/2_9" function="internal">
        <lane id=":1/2_9_0" index="0" speed="10.00" length="3.18" shape="398.93,798.35 398.75,798.05 398.35,795.25"/>
    </edge>
    <edge id=":1/2_2" function="internal">
        <lane id=":1/2_2_0" index="0" speed="10.00" length="2.41" shape="404.75,801.65 403.51,800.82 403.10,800.00"/>
    </edge>
    <edge id=":1/2_10" function="internal">
        <lane id=":1/2_10_0" index="0" speed="10.00" length="2.41" shape="403.10,800.00 403.51,799.17 404.75,798.35"/>
    </edge>
    <edge id=":1/2_3" function="internal">
        <lane id=":1/2_3_0" index="0" speed="10.00" length="5.00" shape="401.65,795.25 401.84,796.61 402.42,797.57 403.39,798.16 404.75,798.35"/>
    </edge>
    <edge id=":1/2_4" function="internal">
        <lane id=":1/2_4_0" index="0" speed="10.00" length="3.18" shape="401.65,795.25 401.25,798.05 401.07,798.35"/>
    </edge>
    <edge id=":1/2_11" function="internal">
        <lane id=":1/2_11_0" index="0" speed="10.00" length="7.14" shape="401.07,798.35 400.05,800.05 398.05,801.25 395.25,801.65"/>
    </edge>
    <edge id=":1/2_5" function="internal">
        <lane id=":1/2_5_0" index="0" speed="10.00" length="2.41" shape="401.65,795.25 400.83,796.49 400.00,796.90"/>
    </edge>
    <edge id=":1/2_12" function="internal">
        <lane id=":1/2_12_0" index="0" speed="10.00" length="2.41" shape="400.00,796.90 399.18,796.49 398.35,795.25"/>
    </edge>
    <edge id=":1/2_6" function="internal">
        <lane id=":1/2_6_0" index="0" speed="10.00" length="5.00" shape="395.25,798.35 396.61,798.16 397.58,797.58 398.16,796.61 398.35,795.25"/>
    </edge>
    <edge id=":1/2_7" function="internal">
        <lane id=":1/2_7_0" index="0" speed="10.00" length="9.50" shape="395.25,798.35 404.75,798.35"/>
    </edge>
    <edge id=":1/2_8" function="internal">
        <lane id=":1/2_8_0" index="0" speed="10.00" length="2.41" shape="395.25,798.35 396.49,799.18 396.90,800.00"/>
    </edge>
    <edge id=":1/2_13" function="internal">
        <lane id=":1/2_13_0" index="0" speed="10.00" length="2.41" shape="396.90,800.00 396.49,800.83 395.25,801.65"/>
    </edge>
    <edge id=":2/0_0" function="internal">
        <lane id=":2/0_0_0" index="0" speed="10.00" length="5.00" shape="798.35,4.75 798.16,3.39 797.58,2.42 796.61,1.84 795.25,1.65"/>
    </edge>
    <edge id=":2/0_1" function="internal">
        <lane id=":2/0_1_0" index="0" speed="10.00" length="3.18" shape="798.35,4.75 798.75,1.95 798.93,1.65"/>
    </edge>
    <edge id=":2/0_9" function="internal">
        <lane id=":2/0_9_0" index="0" speed="10.00" length="7.14" shape="798.93,1.65 799.95,-0.05 801.95,-1.25 804.75,-1.65"/>
    </edge>
    <edge id=":2/0_2" function="internal">
        <lane id=":2/0_2_0" index="0" speed="10.00" length="2.41" shape="798.35,4.75 799.18,3.51 800.00,3.10"/>
    </edge>
    <edge id=":2/0_10" function="internal">
        <lane id=":2/0_10_0" index="0" speed="10.00" length="2.41" shape="800.00,3.10 800.83,3.51 801.65,4.75"/>
    </edge>
    <edge id=":2/0_3" function="internal">
        <lane id=":2/0_3_0" index="0" speed="10.00" length="5.00" shape="804.75,1.65 803.39,1.84 802.43,2.42 801.84,3.39 801.65,4.75"/>
    </edge>
    <edge id=":2/0_4" function="internal">
        <lane id=":2/0_4_0" index="0" speed="10.00" length="9.50" shape="804.75,1.65 795.25,1.65"/>
    </edge>
    <edge id=":2/0_5" function="internal">
        <lane id=":2/0_5_0" index="0" speed="10.00" length="2.41" shape="804.75,1.65 803.51,0.83 803.10,0.00"/>
    </edge>
    <edge id=":2/0_11" function="internal">
        <lane id=":2/0_11_0" index="0" speed="10.00" length="2.41" shape="803.10,0.00 803.51,-0.82 804.75,-1.65"/>
    </edge>
    <edge id=":2/0_6" function="internal">
        <lane id=":2/0_6_0" index="0" speed="10.00" length="9.50" shape="795.25,-1.65 804.75,-1.65"/>
    </edge>
    <edge id=":2/0_7" function="internal">
        <lane id=":2/0_7_0" index="0" speed="10.00" length="7.14" shape="795.25,-1.65 798.05,-1.25 800.05,-0.05 801.07,1.65"/>
    </edge>
    <edge id=":2/0_12" function="internal">
        <lane id=":2/0_12_0" index="0" speed="10.00" length="3.18" shape="801.07,1.65 801.25,1.95 801.65,4.75"/>
    </edge>
    <edge id=":2/0_8" function="internal">
        <lane id=":2/0_8_0" index="0" speed="10.00" length="2.41" shape="795.25,-1.65 796.49,-0.83 796.90,-0.00"/>
    </edge>
    <edge id=":2/0_13" function="internal">
        <lane id=":2/0_13_0" index="0" speed="10.00" length="2.41" shape="796.90,-0.00 796.49,0.82 795.25,1.65"/>
    </edge>
    <edge id=":2/1_0" function="internal">
        <lane id=":2/1_0_0" index="0" speed="10.00" length="5.00" shape="798.35,404.75 798.16,403.39 797.58,402.42 796.61,401.84 795.25,401.65"/>
    </edge>
    <edge id=":2/1_1" function="internal">
        <lane id=":2/1_1_0" index="0" speed="10.00" length="9.50" shape="798.35,404.75 798.35,395.25"/>
    </edge>
    <edge id=":2/1_2" function="internal">
        <lane id=":2/1_2_0" index="0" speed="10.00" length="10.32" shape="798.35,404.75 798.75,401.95 799.95,399.95 801.95,398.75 804.75,398.35"/>
    </edge>
    <edge id=":2/1_3" function="internal">
        <lane id=":2/1_3_0" index="0" speed="10.00" length="4.82" shape="798.35,404.75 799.18,403.51 800.00,403.10 800.83,403.51 801.65,404.75"/>
    </edge>
    <edge id=":2/1_4" function="internal">
        <lane id=":2/1_4_0" index="0" speed="10.00" length="5.00" shape="804.75,401.65 803.39,401.84 802.43,402.42 801.84,403.39 801.65,404.75"/>
    </edge>
    <edge id=":2/1_5" function="internal">
        <lane id=":2/1_5_0" index="0" speed="10.00" length="9.50" shape="804.75,401.65 795.25,401.65"/>
    </edge>
    <edge id=":2/1_6" function="internal">
        <lane id=":2/1_6_0" index="0" speed="10.00" length="7.14" shape="804.75,401.65 801.95,401.25 799.95,400.05 798.93,398.35"/>
    </edge>
    <edge id=":2/1_16" function="internal">
        <lane id=":2/1_16_0" index="0" speed="10.00" length="3.18" shape="798.93,398.35 798.75,398.05 798.35,395.25"/>
    </edge>
    <edge id=":2/1_7" function="internal">
        <lane id=":2/1_7_0" index="0" speed="10.00" length="2.41" shape="804.75,401.65 803.51,400.83 803.10,400.00"/>
    </edge>
    <edge id=":2/1_17" function="internal">
        <lane id=":2/1_17_0" index="0" speed="10.00" length="2.41" shape="803.10,400.00 803.51,399.18 804.75,398.35"/>
    </edge>
    <edge id=":2/1_8" function="internal">
        <lane id=":2/1_8_0" index="0" speed="10.00" length="5.00" shape="801.65,395.25 801.84,396.61 802.42,397.58 803.39,398.16 804.75,398.35"/>
    </edge>
    <edge id=":2/1_9" function="internal">
        <lane id=":2/1_9_0" index="0" speed="10.00" length="9.50" shape="801.65,395.25 801.65,404.75"/>
    </edge>
    <edge id=":2/1_10" function="internal">
        <lane id=":2/1_10_0" index="0" speed="10.00" length="10.32" shape="801.65,395.25 801.25,398.05 800.05,400.05 798.05,401.25 795.25,401.65"/>
    </edge>
    <edge id=":2/1_11" function="internal">
        <lane id=":2/1_11_0" index="0" speed="10.00" length="4.82" shape="801.65,395.25 800.82,396.49 800.00,396.90 799.17,396.49 798.35,395.25"/>
    </edge>
    <edge id=":2/1_12" function="internal">
        <lane id=":2/1_12_0" index="0" speed="10.00" length="5.00" shape="795.25,398.35 796.61,398.16 797.57,397.58 798.16,396.61 798.35,395.25"/>
    </edge>
    <edge id=":2/1_13" function="internal">
        <lane id=":2/1_13_0" index="0" speed="10.00" length="9.50" shape="795.25,398.35 804.75,398.35"/>
    </edge>
    <edge id=":2/1_14" function="internal">
        <lane id=":2/1_14_0" index="0" speed="10.00" length="7.14" shape="795.25,398.35 798.05,398.75 800.05,399.95 801.07,401.65"/>
    </edge>
    <edge id=":2/1_18" function="internal">
        <lane id=":2/1_18_0" index="0" speed="10.00" length="3.18" shape="801.07,401.65 801.25,401.95 801.65,404.75"/>
    </edge>
    <edge id=":2/1_15" function="internal">
        <lane id=":2/1_15_0" index="0" speed="10.00" length="2.41" shape="795.25,398.35 796.49,399.17 796.90,400.00"/>
    </edge>
    <edge id=":2/1_19" function="internal">
        <lane id=":2/1_19_0" index="0" speed="10.00" length="2.41" shape="796.90,400.00 796.49,400.82 795.25,401.65"/>
    </edge>
    <edge id=":2/2_0" function="internal">
        <lane id=":2/2_0_0" index="0" speed="10.00" length="9.50" shape="804.75,801.65 795.25,801.65"/>
    </edge>
    <edge id=":2/2_1" function="internal">
        <lane id=":2/2_1_0" index="0" speed="10.00" length="7.14" shape="804.75,801.65 801.95,801.25 799.95,800.05 798.93,798.35"/>
    </edge>
    <edge id=":2/2_9" function="internal">
        <lane id=":2/2_9_0" index="0" speed="10.00" length="3.18" shape="798.93,798.35 798.75,798.05 798.35,795.25"/>
    </edge>
    <edge id=":2/2_2" function="internal">
        <lane id=":2/2_2_0" index="0" speed="10.00" length="2.41" shape="804.75,801.65 803.51,800.82 803.10,800.00"/>
    </edge>
    <edge id=":2/2_10" function="internal">
        <lane id=":2/2_10_0" index="0" speed="10.00" length="2.41" shape="803.10,800.00 803.51,799.17 804.75,798.35"/>
    </edge>
    <edge id=":2/2_3" function="internal">
        <lane id=":2/2_3_0" index="0" speed="10.00" length="5.00" shape="801.65,795.25 801.84,796.61 802.42,797.57 803.39,798.16 804.75,798.35"/>
    </edge>
    <edge id=":2/2_4" function="internal">
        <lane id=":2/2_4_0" index="0" speed="10.00" length="3.18" shape="801.65,795.25 801.25,798.05 801.07,798.35"/>
    </edge>
    <edge id=":2/2_11" function="internal">
        <lane id=":2/2_11_0" index="0" speed="10.00" length="7.14" shape="801.07,798.35 800.05,800.05 798.05,801.25 795.25,801.65"/>
    </edge>
    <edge id=":2/2_5" function="internal">
        <lane id=":2/2_5_0" index="0" speed="10.00" length="2.41" shape="801.65,795.25 800.82,796.49 800.00,796.90"/>
    </edge>
    <edge id=":2/2_12" function="internal">
        <lane id=":2/2_12_0" index="0" speed="10.00" length="2.41" shape="800.00,796.90 799.17,796.49 798.35,795.25"/>
    </edge>
    <edge id=":2/2_6" function="internal">
        <lane id=":2/2_6_0" index="0" speed="10.00" length="5.00" shape="795.25,798.35 796.61,798.16 797.57,797.58 798.16,796.61 798.35,795.25"/>
    </edge>
    <edge id=":2/2_7" function="internal">
        <lane id=":2/2_7_0" index="0" speed="10.00" length="9.50" shape="795.25,798.35 804.75,798.35"/>
    </edge>
    <edge id=":2/2_8" function="internal">
        <lane id=":2/2_8_0" index="0" speed="10.00" length="2.41" shape="795.25,798.35 796.49,799.18 796.90,800.00"/>
    </edge>
    <edge id=":2/2_13" function="internal">
        <lane id=":2/2_13_0" index="0" speed="10.00" length="2.41" shape="796.90,800.00 796.49,800.83 795.25,801.65"/>
    </edge>
    <edge id=":3/0_0" function="internal">
        <lane id=":3/0_0_0" index="0" speed="10.00" length="5.00" shape="1198.35,4.75 1198.16,3.39 1197.57,2.42 1196.61,1.84 1195.25,1.65"/>
    </edge>
    <edge id=":3/0_1" function="internal">
        <lane id=":3/0_1_0" index="0" speed="10.00" length="3.18" shape="1198.35,4.75 1198.75,1.95 1198.93,1.65"/>
    </edge>
    <edge id=":3/0_9" function="internal">
        <lane id=":3/0_9_0" index="0" speed="10.00" length="7.14" shape="1198.93,1.65 1199.95,-0.05 1201.95,-1.25 1204.75,-1.65"/>
    </edge>
    <edge id=":3/0_2" function="internal">
        <lane id=":3/0_2_0" index="0" speed="10.00" length="2.41" shape="1198.35,4.75 1199.18,3.51 1200.00,3.10"/>
    </edge>
    <edge id=":3/0_10" function="internal">
        <lane id=":3/0_10_0" index="0" speed="10.00" length="2.41" shape="1200.00,3.10 1200.83,3.51 1201.65,4.75"/>
    </edge>
    <edge id=":3/0_3" function="internal">
        <lane id=":3/0_3_0" index="0" speed="10.00" length="5.00" shape="1204.75,1.65 1203.39,1.84 1202.43,2.42 1201.84,3.39 1201.65,4.75"/>
    </edge>
    <edge id=":3/0_4" function="internal">
        <lane id=":3/0_4_0" index="0" speed="10.00" length="9.50" shape="1204.75,1.65 1195.25,1.65"/>
    </edge>
    <edge id=":3/0_5" function="internal">
        <lane id=":3/0_5_0" index="0" speed="10.00" length="2.41" shape="1204.75,1.65 1203.51,0.83 1203.10,0.00"/>
    </edge>
    <edge id=":3/0_11" function="internal">
        <lane id=":3/0_11_0" index="0" speed="10.00" length="2.41" shape="1203.10,0.00 1203.51,-0.82 1204.75,-1.65"/>
    </edge>
    <edge id=":3/0_6" function="internal">
        <lane id=":3/0_6_0" index="0" speed="10.00" length="9.50" shape="1195.25,-1.65 1204.75,-1.65"/>
    </edge>
    <edge id=":3/0_7" function="internal">
        <lane id=":3/0_7_0" index="0" speed="10.00" length="7.14" shape="1195.25,-1.65 1198.05,-1.25 1200.05,-0.05 1201.07,1.65"/>
    </edge>
    <edge id=":3/0_12" function="internal">
        <lane id=":3/0_12_0" index="0" speed="10.00" length="3.18" shape="1201.07,1.65 1201.25,1.95 1201.65,4.75"/>
    </edge>
    <edge id=":3/0_8" function="internal">
        <lane id=":3/0_8_0" index="0" speed="10.00" length="2.41" shape="1195.25,-1.65 1196.49,-0.83 1196.90,-0.00"/>
    </edge>
    <edge id=":3/0_13" function="internal">
        <lane id=":3/0_13_0" index="0" speed="10.00" length="2.41" shape="1196.90,-0.00 1196.49,0.82 1195.25,1.65"/>
    </edge>
    <edge id=":3/1_0" function="internal">
        <lane id=":3/1_0_0" index="0" speed="10.00" length="5.00" shape="1198.35,404.75 1198.16,403.39 1197.57,402.42 1196.61,401.84 1195.25,401.65"/>
    </edge>
    <edge id=":3/1_1" function="internal">
        <lane id=":3/1_1_0" index="0" speed="10.00" length="9.50" shape="1198.35,404.75 1198.35,395.25"/>
    </edge>
    <edge id=":3/1_2" function="internal">
        <lane id=":3/1_2_0" index="0" speed="10.00" length="10.32" shape="1198.35,404.75 1198.75,401.95 1199.95,399.95 1201.95,398.75 1204.75,398.35"/>
    </edge>
    <edge id=":3/1_3" function="internal">
        <lane id=":3/1_3_0" index="0" speed="10.00" length="4.82" shape="1198.35,404.75 1199.18,403.51 1200.00,403.10 1200.83,403.51 1201.65,404.75"/>
    </edge>
    <edge id=":3/1_4" function="internal">
        <lane id=":3/1_4_0" index="0" speed="10.00" length="5.00" shape="1204.75,401.65 1203.39,401.84 1202.43,402.42 1201.84,403.39 1201.65,404.75"/>
    </edge>
    <edge id=":3/1_5" function="internal">
        <lane id=":3/1_5_0" index="0" speed="10.00" length="9.50" shape="1204.75,401.65 1195.25,401.65"/>
    </edge>
    <edge id=":3/1_6" function="internal">
        <lane id=":3/1_6_0" index="0" speed="10.00" length="7.14" shape="1204.75,401.65 1201.95,401.25 1199.95,400.05 1198.93,398.35"/>
    </edge>
    <edge id=":3/1_16" function="internal">
        <lane id=":3/1_16_0" index="0" speed="10.00" length="3.18" shape="1198.93,398.35 1198.75,398.05 1198.35,395.25"/>
    </edge>
    <edge id=":3/1_7" function="internal">
        <lane id=":3/1_7_0" index="0" speed="10.00" length="2.41" shape="1204.75,401.65 1203.51,400.83 1203.10,400.00"/>
    </edge>
    <edge id=":3/1_17" function="internal">
        <lane id=":3/1_17_0" index="0" speed="10.00" length="2.41" shape="1203.10,400.00 1203.51,399.18 1204.75,398.35"/>
    </edge>
    <edge id=":3/1_8" function="internal">
        <lane id=":3/1_8_0" index="0" speed="10.00" length="5.00" shape="1201.65,395.25 1201.84,396.61 1202.43,397.58 1203.39,398.16 1204.75,398.35"/>
    </edge>
    <edge id=":3/1_9" function="internal">
        <lane id=":3/1_9_0" index="0" speed="10.00" length="9.50" shape="1201.65,395.25 1201.65,404.75"/>
    </edge>
    <edge id=":3/1_10" function="internal">
        <lane id=":3/1_10_0" index="0" speed="10.00" length="10.32" shape="1201.65,395.25 1201.25,398.05 1200.05,400.05 1198.05,401.25 1195.25,401.65"/>
    </edge>
    <edge id=":3/1_11" function="internal">
        <lane id=":3/1_11_0" index="0" speed="10.00" length="4.82" shape="1201.65,395.25 1200.82,396.49 1200.00,396.90 1199.17,396.49 1198.35,395.25"/>
    </edge>
    <edge id=":3/1_12" function="internal">
        <lane id=":3/1_12_0" index="0" speed="10.00" length="5.00" shape="1195.25,398.35 1196.61,398.16 1197.57,397.58 1198.16,396.61 1198.35,395.25"/>
    </edge>
    <edge id=":3/1_13" function="internal">
        <lane id=":3/1_13_0" index="0" speed="10.00" length="9.50" shape="1195.25,398.35 1204.75,398.35"/>
    </edge>
    <edge id=":3/1_14" function="internal">
        <lane id=":3/1_14_0" index="0" speed="10.00" length="7.14" shape="1195.25,398.35 1198.05,398.75 1200.05,399.95 1201.07,401.65"/>
    </edge>
    <edge id=":3/1_18" function="internal">
        <lane id=":3/1_18_0" index="0" speed="10.00" length="3.18" shape="1201.07,401.65 1201.25,401.95 1201.65,404.75"/>
    </edge>
    <edge id=":3/1_15" function="internal">
        <lane id=":3/1_15_0" index="0" speed="10.00" length="2.41" shape="1195.25,398.35 1196.49,399.17 1196.90,400.00"/>
    </edge>
    <edge id=":3/1_19" function="internal">
        <lane id=":3/1_19_0" index="0" speed="10.00" length="2.41" shape="1196.90,400.00 1196.49,400.82 1195.25,401.65"/>
    </edge>
    <edge id=":3/2_0" function="internal">
        <lane id=":3/2_0_0" index="0" speed="10.00" length="9.50" shape="1204.75,801.65 1195.25,801.65"/>
    </edge>
    <edge id=":3/2_1" function="internal">
        <lane id=":3/2_1_0" index="0" speed="10.00" length="7.14" shape="1204.75,801.65 1201.95,801.25 1199.95,800.05 1198.93,798.35"/>
    </edge>
    <edge id=":3/2_9" function="internal">
        <lane id=":3/2_9_0" index="0" speed="10.00" length="3.18" shape="1198.93,798.35 1198.75,798.05 1198.35,795.25"/>
    </edge>