<?xml version="1.0" encoding="UTF-8"?>

<!-- generated on 2022-02-07 15:01:50 by Eclipse SUMO netedit Version v1_12_0+0319-e0399fbff66
-->

<additional xmlns:xsi="http://www.w3.org/2001/XMLSchema-instance" xsi:noNamespaceSchemaLocation="http://sumo.dlr.de/xsd/additional_file.xsd">
    <e2Detector id="e2MultilaneDetector_0" name="nameA" lanes="gneE2_0 gneE3_0" pos="11.00" endPos="11.00" freq="100.00" file="fileA.txt" vTypes="type1 type2 type3" friendlyPos="1">
        <param key="keyFinal1" value="value1"/>
        <param key="keyFinal2" value="value2"/>
        <param key="keyFinal3" value="value3"/>
    </e2Detector>
    <e2Detector id="e2MultilaneDetector_1" name="nameB" lanes="gneE4_0 gneE5_0" pos="14.00" endPos="14.00" freq="200.00" file="fileB.xml" vTypes="type4 type5 type6" friendlyPos="1">
        <param key="keyFinal1" value="value1"/>
        <param key="keyFinal2" value="value2"/>
        <param key="keyFinal3" value="value3"/>
    </e2Detector>
</additional>
