<?xml version="1.0" encoding="UTF-8"?>

<!-- generated on 2025-09-03 13:42:21 by Eclipse SUMO netedit Version v1_24_0+0604-bdb42aa6f40
-->

<routes xmlns:xsi="http://www.w3.org/2001/XMLSchema-instance" xsi:noNamespaceSchemaLocation="http://sumo.dlr.de/xsd/routes_file.xsd">
    <!-- Vehicles, persons and containers (sorted by depart) -->
    <trip id="t_1" depart="0.00" fromJunction="J3" toJunction="J4"/>
    <trip id="t_2" depart="0.00" fromTaz="taz_3" toTaz="taz_2"/>
    <flow id="f_1" begin="0.00" fromJunction="J5" toJunction="J7" end="3600.00" vehsPerHour="100"/>
    <flow id="f_2" begin="0.00" fromTaz="taz_1" toTaz="taz_0" end="3600.00" vehsPerHour="100"/>
</routes>
