<?xml version="1.0" encoding="UTF-8"?>

<!-- generated on 2022-10-11 08:43:44 by Eclipse SUMO netedit Version v1_14_1+1563-f3c96901f69
-->

<routes xmlns:xsi="http://www.w3.org/2001/XMLSchema-instance" xsi:noNamespaceSchemaLocation="http://sumo.dlr.de/xsd/routes_file.xsd">
    <!-- Vehicles, persons and containers (sorted by depart) -->
    <person id="p_0" depart="0.00">
        <walk from="Edge0" to="Edge1"/>
        <ride to="Edge2" arrivalPos="37.00" lines="Line1" group="groupA"/>
    </person>

    <person id="p_1" depart="0.00">
        <walk from="EdgeBike0" to="EdgeCenter0"/>
        <ride to="Edge5" arrivalPos="11.00" lines="Line2" group="groupB"/>
    </person>
</routes>
