<?xml version="1.0" encoding="UTF-8"?>

<!-- generated on 2024-08-08 13:07:03 by Eclipse SUMO netedit Version v1_20_0+1763-a87dd661c22
-->

<routes xmlns:xsi="http://www.w3.org/2001/XMLSchema-instance" xsi:noNamespaceSchemaLocation="http://sumo.dlr.de/xsd/routes_file.xsd">
    <!-- Routes -->
    <route id="r_0" edges="E3 -E1 -E0 -E6 -E5 E4"/>
    <route id="r_1" edges="-E4 -E11 -E10 E9 -E2 -E3"/>
    <!-- Vehicles, persons and containers (sorted by depart) -->
    <trip id="t_0" depart="0.00" from="E8" to="E7"/>
    <trip id="t_1" depart="0.00" from="-E7" to="-E8"/>
    <vehicle id="v_0" depart="0.00" route="r_0"/>
    <vehicle id="v_1" depart="0.00" route="r_1"/>
</routes>
