<?xml version="1.0" encoding="UTF-8"?>

<!-- generated on 16.11.2018 16:34:58 by Eclipse SUMO netedit Version v1_0_0+0907-4934d005c3
<configuration xmlns:xsi="http://www.w3.org/2001/XMLSchema-instance" xsi:noNamespaceSchemaLocation="http://sumo.dlr.de/xsd/netconvertConfiguration.xsd">

    <input>
        <sumo-net-file value="C:/Users/alva_pa/.texttest/tmp/netedit.gui.16Nov163416.7480/netedit.gui/additionalElements/chargingstation/inspect_selection/blockmove\input_net.net.xml"/>
    </input>

    <output>
        <output-file value="C:/Users/alva_pa/.texttest/tmp/netedit.gui.16Nov163416.7480/netedit.gui/additionalElements/chargingstation/inspect_selection/blockmove\net.net.xml"/>
    </output>

    <processing>
        <offset.disable-normalization value="true"/>
        <lefthand value="false"/>
    </processing>

    <junctions>
        <no-turnarounds value="true"/>
        <junctions.corner-detail value="5"/>
        <junctions.limit-turn-speed value="5.5"/>
        <rectangular-lane-cut value="false"/>
    </junctions>

    <pedestrian>
        <walkingareas value="false"/>
    </pedestrian>

    <netedit>
        <sumo-additionals-file value="C:/Users/alva_pa/.texttest/tmp/netedit.gui.16Nov163416.7480/netedit.gui/additionalElements/chargingstation/inspect_selection/blockmove\input_additionals.add.xml"/>
        <additionals-output value="C:/Users/alva_pa/.texttest/tmp/netedit.gui.16Nov163416.7480/netedit.gui/additionalElements/chargingstation/inspect_selection/blockmove\additionals.xml"/>
        <shapes-output value="C:/Users/alva_pa/.texttest/tmp/netedit.gui.16Nov163416.7480/netedit.gui/additionalElements/chargingstation/inspect_selection/blockmove\shapes.xml"/>
    </netedit>

    <visualisation>
        <gui-settings-file value="C:/Users/alva_pa/.texttest/tmp/netedit.gui.16Nov163416.7480/netedit.gui/additionalElements/chargingstation/inspect_selection/blockmove\gui-settings.xml"/>
        <window-size value="700,500"/>
        <window-pos value="50,50"/>
        <gui-testing value="true"/>
        <gui-testing-debug value="true"/>
    </visualisation>

    <report>
        <no-warnings value="true"/>
        <error-log value="C:/Users/alva_pa/.texttest/tmp/netedit.gui.16Nov163416.7480/netedit.gui/additionalElements/chargingstation/inspect_selection/blockmove\log.txt"/>
    </report>

</configuration>
-->

<additional xmlns:xsi="http://www.w3.org/2001/XMLSchema-instance" xsi:noNamespaceSchemaLocation="http://sumo.dlr.de/xsd/additional_file.xsd">
    <chargingStation id="chargingStationA" name="chargingStation" lane="gneE0_0" startPos="5.00" endPos="10.00">
        <param key="KeyA1" value="valueA1"/>
        <param key="KeyA2" value="valueA3"/>
        <param key="KeyA3" value="valueA2"/>
    </chargingStation>
    <chargingStation id="chargingStationB" name="chargingStation" power="13000.00" efficiency="0.85" chargeInTransit="1" chargeDelay="2.00" lane="gneE0_0" friendlyPos="1" startPos="15.00" endPos="20.00">
        <param key="KeyB1" value="valueB1"/>
        <param key="KeyB2" value="valueB3"/>
        <param key="KeyB3" value="valueB2"/>
    </chargingStation>
</additional>
