<?xml version="1.0" encoding="UTF-8"?>
<!-- generated on 2020-02-17 13:27:11.628169 by turnFile2EdgeRelations.py v1_5_0+0118-a6ba6eb
  options: -t input_turns.xml -o edgedata.xml <doubleminus>turn-attribute count
-->
<edgeRelations xmlns:xsi="http://www.w3.org/2001/XMLSchema-instance" xsi:noNamespaceSchemaLocation="http://sumo.dlr.de/xsd/edgerelations_file.xsd">
    <interval begin="0.0" end="99.0">
        <edgeRelation from="-58.121.42" to="64" count="1"/>
        <edgeRelation from="-58.121.42" to="-31" count="3"/>
        <edgeRelation from="45" to="-68" count="3"/>
        <edgeRelation from="-31.80.00" to="31" count="1"/>
        <edgeRelation from="-31.80.00" to="37" count="1"/>
        <edgeRelation from="-31.80.00" to="-23" count="13"/>
        <edgeRelation from="-92.180.00" to="-60" count="1"/>
        <edgeRelation from="-131" to="-131.180.00" count="6"/>
        <edgeRelation from="-23.80.00" to="-11" count="12"/>
        <edgeRelation from="-23.80.00" to="109" count="6"/>
        <edgeRelation from="-23.80.00" to="23" count="1"/>
        <edgeRelation from="-55.80.00" to="-27" count="5"/>
        <edgeRelation from="-120.180.00" to="-64" count="3"/>
        <edgeRelation from="-120.180.00" to="-75" count="2"/>
        <edgeRelation from="144" to="144.121.42" count="7"/>
        <edgeRelation from="-152.80.00" to="-131" count="2"/>
        <edgeRelation from="60" to="60.80.00" count="3"/>
        <edgeRelation from="144.121.42" to="-15" count="4"/>
        <edgeRelation from="144.121.42" to="-123" count="2"/>
        <edgeRelation from="131" to="131.180.00" count="9"/>
        <edgeRelation from="-148.80.00" to="144" count="1"/>
        <edgeRelation from="-148.80.00" to="-131" count="1"/>
        <edgeRelation from="64" to="64.80.00" count="10"/>
        <edgeRelation from="131.180.00" to="144" count="3"/>
        <edgeRelation from="131.180.00" to="-131" count="3"/>
        <edgeRelation from="68" to="-45" count="6"/>
        <edgeRelation from="75.121.42" to="120" count="3"/>
        <edgeRelation from="75.121.42" to="-75" count="1"/>
        <edgeRelation from="123.121.42" to="-15" count="1"/>
        <edgeRelation from="123.121.42" to="-123" count="1"/>
        <edgeRelation from="-45" to="-45.80.00" count="4"/>
        <edgeRelation from="-60" to="-60.80.00" count="8"/>
        <edgeRelation from="11" to="11.80.00" count="20"/>
        <edgeRelation from="27" to="27.80.00" count="18"/>
        <edgeRelation from="-64" to="-64.80.00" count="6"/>
        <edgeRelation from="109.80.00" to="131" count="4"/>
        <edgeRelation from="109.80.00" to="123" count="2"/>
        <edgeRelation from="109.80.00" to="-120" count="1"/>
        <edgeRelation from="109.80.00" to="-109" count="3"/>
        <edgeRelation from="-131.180.00" to="131" count="2"/>
        <edgeRelation from="-131.180.00" to="-109" count="3"/>
        <edgeRelation from="23" to="23.80.00" count="20"/>
        <edgeRelation from="-68" to="-43" count="3"/>
        <edgeRelation from="-43" to="-43.80.00" count="5"/>
        <edgeRelation from="-3.180.00" to="11" count="17"/>
        <edgeRelation from="-3.180.00" to="3" count="1"/>
        <edgeRelation from="-3.180.00" to="15" count="5"/>
        <edgeRelation from="-27" to="-27.80.00" count="22"/>
        <edgeRelation from="-123.121.42" to="131" count="2"/>
        <edgeRelation from="-123.121.42" to="-109" count="1"/>
        <edgeRelation from="-123.121.42" to="-120" count="4"/>
        <edgeRelation from="-64.80.00" to="64" count="2"/>
        <edgeRelation from="-64.80.00" to="58" count="2"/>
        <edgeRelation from="-64.80.00" to="-31" count="3"/>
        <edgeRelation from="-23" to="-23.80.00" count="19"/>
        <edgeRelation from="-144" to="-144.121.42" count="5"/>
        <edgeRelation from="3" to="3.180.00" count="23"/>
        <edgeRelation from="31" to="31.80.00" count="15"/>
        <edgeRelation from="-11.80.00" to="5" count="2"/>
        <edgeRelation from="-11.80.00" to="3" count="17"/>
        <edgeRelation from="-11.80.00" to="15" count="2"/>
        <edgeRelation from="31.80.00" to="60" count="3"/>
        <edgeRelation from="31.80.00" to="64" count="6"/>
        <edgeRelation from="31.80.00" to="58" count="4"/>
        <edgeRelation from="31.80.00" to="-31" count="2"/>
        <edgeRelation from="-79.80.00" to="-60" count="3"/>
        <edgeRelation from="-79.80.00" to="75" count="3"/>
        <edgeRelation from="-148" to="-148.80.00" count="2"/>
        <edgeRelation from="-45.80.00" to="-27" count="5"/>
        <edgeRelation from="3.180.00" to="-71" count="5"/>
        <edgeRelation from="3.180.00" to="27" count="13"/>
        <edgeRelation from="3.180.00" to="-3" count="6"/>
        <edgeRelation from="-120" to="-120.180.00" count="7"/>
        <edgeRelation from="-3" to="-3.180.00" count="22"/>
        <edgeRelation from="11.80.00" to="-11" count="1"/>
        <edgeRelation from="11.80.00" to="109" count="4"/>
        <edgeRelation from="11.80.00" to="23" count="15"/>
        <edgeRelation from="-123" to="-123.121.42" count="6"/>
        <edgeRelation from="43" to="68" count="5"/>
        <edgeRelation from="-60.80.00" to="64" count="1"/>
        <edgeRelation from="-60.80.00" to="-31" count="7"/>
        <edgeRelation from="-109" to="-109.80.00" count="10"/>
        <edgeRelation from="-15.180.00" to="11" count="2"/>
        <edgeRelation from="-15.180.00" to="15" count="1"/>
        <edgeRelation from="-15.180.00" to="3" count="4"/>
        <edgeRelation from="-15.180.00" to="5" count="1"/>
        <edgeRelation from="71.121.42" to="-3" count="2"/>
        <edgeRelation from="-11" to="-11.80.00" count="21"/>
        <edgeRelation from="75" to="75.121.42" count="7"/>
        <edgeRelation from="109" to="109.80.00" count="11"/>
        <edgeRelation from="15.180.00" to="-144" count="3"/>
        <edgeRelation from="15.180.00" to="-15" count="1"/>
        <edgeRelation from="15.180.00" to="-123" count="3"/>
        <edgeRelation from="-109.80.00" to="-11" count="9"/>
        <edgeRelation from="-109.80.00" to="23" count="4"/>
        <edgeRelation from="71" to="71.121.42" count="1"/>
        <edgeRelation from="27.80.00" to="55" count="3"/>
        <edgeRelation from="27.80.00" to="45" count="2"/>
        <edgeRelation from="27.80.00" to="-27" count="7"/>
        <edgeRelation from="27.80.00" to="43" count="4"/>
        <edgeRelation from="-58" to="-58.121.42" count="6"/>
        <edgeRelation from="23.80.00" to="31" count="15"/>
        <edgeRelation from="23.80.00" to="37" count="3"/>
        <edgeRelation from="23.80.00" to="-23" count="1"/>
        <edgeRelation from="-75.121.42" to="-60" count="3"/>
        <edgeRelation from="-75.121.42" to="75" count="1"/>
        <edgeRelation from="-55" to="-55.80.00" count="10"/>
        <edgeRelation from="120" to="120.180.00" count="11"/>
        <edgeRelation from="-71" to="-55" count="8"/>
        <edgeRelation from="15" to="15.180.00" count="10"/>
        <edgeRelation from="58" to="-37" count="3"/>
        <edgeRelation from="-75" to="-75.121.42" count="3"/>
        <edgeRelation from="55" to="71" count="3"/>
        <edgeRelation from="-144.121.42" to="144" count="2"/>
        <edgeRelation from="-144.121.42" to="152" count="2"/>
        <edgeRelation from="-144.121.42" to="-131" count="2"/>
        <edgeRelation from="-79" to="-79.80.00" count="3"/>
        <edgeRelation from="37" to="-58" count="6"/>
        <edgeRelation from="120.180.00" to="123" count="1"/>
        <edgeRelation from="120.180.00" to="131" count="3"/>
        <edgeRelation from="120.180.00" to="-109" count="4"/>
        <edgeRelation from="120.180.00" to="-120" count="2"/>
        <edgeRelation from="-31" to="-31.80.00" count="15"/>
        <edgeRelation from="-43.80.00" to="-27" count="6"/>
        <edgeRelation from="-43.80.00" to="43" count="1"/>
        <edgeRelation from="-37" to="-37.80.00" count="4"/>
        <edgeRelation from="-37.80.00" to="-23" count="6"/>
        <edgeRelation from="123" to="123.121.42" count="4"/>
        <edgeRelation from="60.80.00" to="-60" count="1"/>
        <edgeRelation from="60.80.00" to="75" count="3"/>
        <edgeRelation from="60.80.00" to="92" count="1"/>
        <edgeRelation from="-15" to="-15.180.00" count="7"/>
        <edgeRelation from="64.80.00" to="120" count="5"/>
        <edgeRelation from="64.80.00" to="-64" count="2"/>
        <edgeRelation from="64.80.00" to="-75" count="1"/>
        <edgeRelation from="-27.80.00" to="-71" count="2"/>
        <edgeRelation from="-27.80.00" to="27" count="2"/>
        <edgeRelation from="-27.80.00" to="-3" count="17"/>
    </interval>
</edgeRelations>
