<?xml version="1.0" encoding="UTF-8"?>

<!-- generated on 2021-06-28 10:53:41 by Eclipse SUMO netedit Version v1_9_2+0675-46e90d9cd9
-->

<additional xmlns:xsi="http://www.w3.org/2001/XMLSchema-instance" xsi:noNamespaceSchemaLocation="http://sumo.dlr.de/xsd/additional_file.xsd">
    <chargingStation id="chargingStationA" lane="gneE0_0" startPos="-2.00" endPos="12.00"/>
    <chargingStation id="chargingStationB" lane="gneE0_0" startPos="38.00" endPos="480.00"/>
    <chargingStation id="chargingStationC" lane="gneE1_0" startPos="-38.00" endPos="48.00"/>
    <chargingStation id="chargingStationD" lane="gneE1_0" startPos="-2.00" endPos="-12.00"/>
</additional>
