<?xml version="1.0" encoding="UTF-8"?>

<!-- generated on 2024-06-04 16:21:41 by Eclipse SUMO netedit Version v1_20_0+0345-f9c5dc4db4d
-->

<additional xmlns:xsi="http://www.w3.org/2001/XMLSchema-instance" xsi:noNamespaceSchemaLocation="http://sumo.dlr.de/xsd/additional_file.xsd">
    <!-- StoppingPlaces -->
    <busStop id="bs_1" lane="EdgeCenter1_1" startPos="7.09" endPos="17.09"/>
    <busStop id="correctID" lane="EdgeCenter1_1" startPos="27.82" endPos="37.82"/>
</additional>
