<?xml version="1.0" encoding="UTF-8"?>

<!-- generated on Thu 28 May 2020 08:53:49 PM CEST by Eclipse SUMO netedit Version v1_6_0+0442-2e2d9374aa
<configuration xmlns:xsi="http://www.w3.org/2001/XMLSchema-instance" xsi:noNamespaceSchemaLocation="http://sumo.dlr.de/xsd/netconvertConfiguration.xsd">

    <input>
        <sumo-net-file value="net2.net.xml"/>
    </input>

    <output>
        <output-file value="net2.net.xml"/>
    </output>

    <processing>
        <geometry.min-radius.fix.railways value="false"/>
        <geometry.max-grade.fix value="false"/>
        <offset.disable-normalization value="true"/>
        <lefthand value="false"/>
    </processing>

    <junctions>
        <no-turnarounds value="true"/>
        <junctions.corner-detail value="0"/>
        <junctions.limit-turn-speed value="-1"/>
        <rectangular-lane-cut value="false"/>
    </junctions>

    <pedestrian>
        <walkingareas value="false"/>
    </pedestrian>

    <netedit>
        <additional-files value="input_additional.add.xml"/>
    </netedit>

    <report>
        <aggregate-warnings value="5"/>
    </report>

</configuration>
-->

<additional xmlns:xsi="http://www.w3.org/2001/XMLSchema-instance" xsi:noNamespaceSchemaLocation="http://sumo.dlr.de/xsd/additional_file.xsd">
    <e1Detector id="d1" lane="WC_1" pos="49.90" freq="900.00" file="detector.xml"/>
    <e2Detector id="d2" lane="WC_0" pos="25.89" length="50.00" freq="900.00" file="detector.xml"/>
    <e3Detector id="d3" pos="39.74,86.52" freq="900.00" file="detector.xml">
        <detEntry lane="WC_1" pos="22.77"/>
        <detExit lane="WC_1" pos="77.28"/>
    </e3Detector>
</additional>
