<routes>
    <vType id="bike" vClass="bicycle"/>
    <trip id="bikeDisconnected" depart="0" from="beg" to="end" type="bike"/>

</routes>

