<?xml version="1.0" encoding="UTF-8"?>

<!-- generated on 2023-03-29 08:39:27.513153 by randomTrips.py v1_16_0+1742-9883c5e43b9
<configuration>
    <begin value="8:0:0"/>
    <end value="9:0:0"/>
    <net-file value="net.net.xml"/>
    <period value="360.0"/>
    <random-depart value="True"/>
</configuration>
-->

<routes xmlns:xsi="http://www.w3.org/2001/XMLSchema-instance" xsi:noNamespaceSchemaLocation="http://sumo.dlr.de/xsd/routes_file.xsd">
    <trip id="0" depart="28890.00" from="1si" to="3o"/>
    <trip id="1" depart="28907.00" from="1fi" to="1si"/>
    <trip id="2" depart="29112.00" from="3si" to="3o"/>
    <trip id="3" depart="29603.00" from="1si" to="3o"/>
    <trip id="4" depart="29790.00" from="4fi" to="1o"/>
    <trip id="5" depart="30318.00" from="4fi" to="3si"/>
    <trip id="6" depart="31101.00" from="2fi" to="1si"/>
    <trip id="7" depart="31236.00" from="4si" to="2o"/>
    <trip id="8" depart="31451.00" from="1fi" to="1o"/>
    <trip id="9" depart="32011.00" from="4fi" to="3o"/>
</routes>
