<?xml version="1.0"?>

<!-- generated on 02/13/12 14:20:12 by SUMO sumo Version dev-SVN-r11881
<?xml version="1.0" encoding="UTF-8"?>

<configuration xmlns:xsi="http://www.w3.org/2001/XMLSchema-instance" xsi:noNamespaceSchemaLocation="http://sumo.sf.net/xsd/sumoConfiguration.xsd">

    <input>
        <net-file value="net.net.xml"/>
        <additional-files value="input_routes.rou.xml,input_additional.add.xml,input_additional2.add.xml"/>
    </input>

    <time>
        <begin value="0"/>
        <end value="100"/>
    </time>

    <report>
        <no-duration-log value="true"/>
        <no-step-log value="true"/>
    </report>

</configuration>
-->

<instantE1>
    <instantOut id="3/1to2/1" time="50.05" state="enter" vehID="0" speed="10.00" length="3.00" type="DEFAULT_VEHTYPE">    </instantOut>
    <instantOut id="3/1to2/1" time="50.35" state="leave" vehID="0" speed="10.00" length="3.00" type="DEFAULT_VEHTYPE" occupancy="0.30">    </instantOut>
    <instantOut id="3/1to2/1" time="55.05" state="enter" vehID="1" speed="10.00" length="3.00" type="DEFAULT_VEHTYPE" gap="4.70">    </instantOut>
    <instantOut id="3/1to2/1" time="55.35" state="leave" vehID="1" speed="10.00" length="3.00" type="DEFAULT_VEHTYPE" occupancy="0.30">    </instantOut>
</instantE1>
