<?xml version="1.0"?>

<!-- generated on Mon Mar 21 15:37:35 2011 by SUMO netconvert Version dev-SVN-r9933
<?xml version="1.0" encoding="iso-8859-1"?>

<configuration xmlns:xsi="http://www.w3.org/2001/XMLSchema-instance" xsi:noNamespaceSchemaLocation="http://sumo.sf.net/xsd/netconvertConfiguration.xsd">

    <input>
        <xml-node-files value="input_nodes.nod.xml"/>
        <xml-edge-files value="input_edges.edg.xml"/>
    </input>

    <output>
        <output-file value="net.net.xml"/>
    </output>

    <processing>
        <no-turnarounds value="true"/>
    </processing>

    <report>
        <verbose value="true"/>
    </report>

</configuration>
-->

<net>

   <location netOffset="500.00,500.00" convBoundary="0.00,0.00,1000.00,1000.00" origBoundary="-500.00,-500.00,500.00,500.00" projParameter="!"/>

   <edge id=":0_0" function="internal">
      <lanes>
         <lane id=":0_0_0" depart="0" maxspeed="13.90" length="6.06" shape="501.76,508.76 500.25,507.56 498.92,507.13 497.75,507.49 496.75,508.62"/>
      </lanes>
   </edge>
   <edge id=":0_1" function="internal">
      <lanes>
         <lane id=":0_1_0" depart="0" maxspeed="13.90" length="15.32" shape="501.76,508.76 498.70,504.98 496.97,501.64 495.59,498.65 493.57,495.91"/>
      </lanes>
   </edge>
   <edge id=":0_2" function="internal">
      <lanes>
         <lane id=":0_2_0" depart="0" maxspeed="13.90" length="12.05" shape="504.09,506.43 501.73,503.17 500.80,499.58 503.10,491.70"/>
      </lanes>
   </edge>
   <edge id=":0_12" function="internal">
      <lanes>
         <lane id=":0_12_0" depart="0" maxspeed="13.90" length="4.34" shape="503.10,491.70 503.25,491.38"/>
      </lanes>
   </edge>
   <edge id=":0_3" function="internal">
      <lanes>
         <lane id=":0_3_0" depart="0" maxspeed="13.90" length="10.10" shape="508.91,494.77 507.09,498.12 506.08,500.79 505.85,502.78 506.43,504.09"/>
      </lanes>
   </edge>
   <edge id=":0_4" function="internal">
      <lanes>
         <lane id=":0_4_0" depart="0" maxspeed="13.90" length="18.13" shape="506.08,493.08 503.02,498.18 500.63,502.16 498.64,505.48 496.75,508.62"/>
      </lanes>
   </edge>
   <edge id=":0_5" function="internal">
      <lanes>
         <lane id=":0_5_0" depart="0" maxspeed="13.90" length="5.58" shape="506.08,493.08 500.77,498.18"/>
      </lanes>
   </edge>
   <edge id=":0_13" function="internal">
      <lanes>
         <lane id=":0_13_0" depart="0" maxspeed="13.90" length="9.99" shape="500.77,498.18 500.08,498.58 496.89,498.26 493.57,495.91"/>
      </lanes>
   </edge>
   <edge id=":0_6" function="internal">
      <lanes>
         <lane id=":0_6_0" depart="0" maxspeed="13.90" length="6.06" shape="498.24,491.24 499.75,492.44 501.08,492.87 502.25,492.51 503.25,491.38"/>
      </lanes>
   </edge>
   <edge id=":0_7" function="internal">
      <lanes>
         <lane id=":0_7_0" depart="0" maxspeed="13.90" length="15.32" shape="498.24,491.24 501.30,495.02 503.03,498.36 504.41,501.35 506.43,504.09"/>
      </lanes>
   </edge>
   <edge id=":0_8" function="internal">
      <lanes>
         <lane id=":0_8_0" depart="0" maxspeed="13.90" length="12.05" shape="495.91,493.57 498.27,496.83 499.20,500.42 496.90,508.30"/>
      </lanes>
   </edge>
   <edge id=":0_14" function="internal">
      <lanes>
         <lane id=":0_14_0" depart="0" maxspeed="13.90" length="4.34" shape="496.90,508.30 496.75,508.62"/>
      </lanes>
   </edge>
   <edge id=":0_9" function="internal">
      <lanes>
         <lane id=":0_9_0" depart="0" maxspeed="13.90" length="10.10" shape="491.09,505.23 492.91,501.88 493.92,499.21 494.15,497.22 493.57,495.91"/>
      </lanes>
   </edge>
   <edge id=":0_10" function="internal">
      <lanes>
         <lane id=":0_10_0" depart="0" maxspeed="13.90" length="18.13" shape="493.92,506.92 496.98,501.82 499.37,497.84 501.36,494.52 503.25,491.38"/>
      </lanes>
   </edge>
   <edge id=":0_11" function="internal">
      <lanes>
         <lane id=":0_11_0" depart="0" maxspeed="13.90" length="5.58" shape="493.92,506.92 499.23,501.82"/>
      </lanes>
   </edge>
   <edge id=":0_15" function="internal">
      <lanes>
         <lane id=":0_15_0" depart="0" maxspeed="13.90" length="9.99" shape="499.23,501.82 499.92,501.42 503.11,501.74 506.43,504.09"/>
      </lanes>
   </edge>

   <edge id="1i" from="1" to="0" priority="2" type="" function="normal">
      <lanes>
         <lane id="1i_0" depart="1" maxspeed="13.90" length="699.67" shape="3.50,-3.50 498.24,491.24"/>
         <lane id="1i_1" depart="0" maxspeed="13.90" length="699.67" shape="1.17,-1.17 495.91,493.57"/>
      </lanes>
   </edge>
   <edge id="1o" from="0" to="1" priority="1" type="" function="normal">
      <lanes>
         <lane id="1o_0" depart="1" maxspeed="13.90" length="699.67" shape="493.57,495.91 -1.17,1.17"/>
      </lanes>
   </edge>
   <edge id="2i" from="2" to="0" priority="2" type="" function="normal">
      <lanes>
         <lane id="2i_0" depart="1" maxspeed="13.90" length="699.67" shape="996.50,1003.50 501.76,508.76"/>
         <lane id="2i_1" depart="0" maxspeed="13.90" length="699.67" shape="998.83,1001.17 504.09,506.43"/>
      </lanes>
   </edge>
   <edge id="2o" from="0" to="2" priority="1" type="" function="normal">
      <lanes>
         <lane id="2o_0" depart="1" maxspeed="13.90" length="699.67" shape="506.43,504.09 1001.17,998.83"/>
      </lanes>
   </edge>
   <edge id="3i" from="3" to="0" priority="2" type="" function="normal">
      <lanes>
         <lane id="3i_0" depart="1" maxspeed="13.90" length="574.03" shape="804.24,2.55 508.91,494.77"/>
         <lane id="3i_1" depart="0" maxspeed="13.90" length="574.03" shape="801.41,0.85 506.08,493.08"/>
      </lanes>
   </edge>
   <edge id="3o" from="0" to="3" priority="1" type="" function="normal">
      <lanes>
         <lane id="3o_0" depart="1" maxspeed="13.90" length="574.03" shape="503.25,491.38 798.59,-0.85"/>
      </lanes>
   </edge>
   <edge id="4i" from="4" to="0" priority="2" type="" function="normal">
      <lanes>
         <lane id="4i_0" depart="1" maxspeed="13.90" length="574.03" shape="195.76,997.45 491.09,505.23"/>
         <lane id="4i_1" depart="0" maxspeed="13.90" length="574.03" shape="198.59,999.15 493.92,506.92"/>
      </lanes>
   </edge>
   <edge id="4o" from="0" to="4" priority="1" type="" function="normal">
      <lanes>
         <lane id="4o_0" depart="1" maxspeed="13.90" length="574.03" shape="496.75,508.62 201.41,1000.85"/>
      </lanes>
   </edge>

   <row-logic id="0" requestSize="12" laneNumber="8">
      <logic>
         <logicitem request="0" response="000000000000" foes="000100010000" cont="0"/>
         <logicitem request="1" response="000000000000" foes="111100110000" cont="0"/>
         <logicitem request="2" response="000011000000" foes="110011110000" cont="1"/>
         <logicitem request="3" response="000010000000" foes="100010000000" cont="0"/>
         <logicitem request="4" response="000110000111" foes="100110000111" cont="0"/>
         <logicitem request="5" response="011110000110" foes="011110000110" cont="1"/>
         <logicitem request="6" response="000000000000" foes="010000000100" cont="0"/>
         <logicitem request="7" response="000000000000" foes="110000111100" cont="0"/>
         <logicitem request="8" response="000000000011" foes="110000110011" cont="1"/>
         <logicitem request="9" response="000000000010" foes="000000100010" cont="0"/>
         <logicitem request="10" response="000111000110" foes="000111100110" cont="0"/>
         <logicitem request="11" response="000110011110" foes="000110011110" cont="1"/>
      </logic>
   </row-logic>
   <row-logic id="1" requestSize="1" laneNumber="1">
      <logic>
         <logicitem request="0" response="1" foes="0" cont="0"/>
      </logic>
   </row-logic>
   <row-logic id="2" requestSize="1" laneNumber="1">
      <logic>
         <logicitem request="0" response="1" foes="0" cont="0"/>
      </logic>
   </row-logic>
   <row-logic id="3" requestSize="1" laneNumber="1">
      <logic>
         <logicitem request="0" response="1" foes="0" cont="0"/>
      </logic>
   </row-logic>
   <row-logic id="4" requestSize="1" laneNumber="1">
      <logic>
         <logicitem request="0" response="1" foes="0" cont="0"/>
      </logic>
   </row-logic>

   <tl-logic id="0" type="static" programID="0" offset="0">
      <phase duration="31" state="GGgrrrGGgrrr"/>
      <phase duration="4" state="yygrrryygrrr"/>
      <phase duration="6" state="rrGrrrrrGrrr"/>
      <phase duration="4" state="rryrrrrryrrr"/>
      <phase duration="31" state="rrrGGgrrrGGg"/>
      <phase duration="4" state="rrryygrrryyg"/>
      <phase duration="6" state="rrrrrGrrrrrG"/>
      <phase duration="4" state="rrrrryrrrrry"/>
   </tl-logic>

   <junction id="0" type="traffic_light" x="500.00" y="500.00" incLanes="2i_0 2i_1 3i_0 3i_1 1i_0 1i_1 4i_0 4i_1" intLanes=":0_0_0 :0_1_0 :0_12_0 :0_3_0 :0_4_0 :0_13_0 :0_6_0 :0_7_0 :0_14_0 :0_9_0 :0_10_0 :0_15_0" shape="500.63,509.89 507.56,502.96 510.28,495.60 501.88,490.56 499.37,490.11 492.44,497.04 489.72,504.40 498.12,509.44"/>
   <junction id="1" type="priority" x="0.00" y="0.00" incLanes="1o_0" intLanes="" shape="0.04,-0.04 4.63,-4.63 -2.30,2.30 -0.04,0.04"/>
   <junction id="2" type="priority" x="1000.00" y="1000.00" incLanes="2o_0" intLanes="" shape="999.96,1000.04 995.37,1004.63 1002.30,997.70 1000.04,999.96"/>
   <junction id="3" type="priority" x="800.00" y="0.00" incLanes="3o_0" intLanes="" shape="800.04,0.03 805.62,3.37 797.21,-1.67 799.96,-0.03"/>
   <junction id="4" type="priority" x="200.00" y="1000.00" incLanes="4o_0" intLanes="" shape="199.96,999.97 194.38,996.63 202.79,1001.67 200.04,1000.03"/>

   <junction id=":0_12_0" type="internal" x="501.45" y="495.32" incLanes=":0_2_0 1i_0" intLanes=":0_6_0 :0_7_0" shape=""/>
   <junction id=":0_13_0" type="internal" x="502.45" y="497.24" incLanes=":0_5_0 4i_0 4i_1" intLanes=":0_9_0 :0_10_0" shape=""/>
   <junction id=":0_14_0" type="internal" x="498.55" y="504.68" incLanes=":0_8_0 2i_0" intLanes=":0_0_0 :0_1_0" shape=""/>
   <junction id=":0_15_0" type="internal" x="497.55" y="502.76" incLanes=":0_11_0 3i_0 3i_1" intLanes=":0_3_0 :0_4_0" shape=""/>

   <succ edge="1i" lane="1i_0" junction="0">
      <succlane lane="3o_0" via=":0_6_0" tl="0" linkno="6" yield="1" dir="r" state="t"/>
      <succlane lane="2o_0" via=":0_7_0" tl="0" linkno="7" yield="1" dir="s" state="t"/>
   </succ>
   <succ edge="1i" lane="1i_1" junction="0">
      <succlane lane="4o_0" via=":0_8_0" tl="0" linkno="8" yield="1" dir="l" state="t" int_end="x"/>
   </succ>
   <succ edge="1o" lane="1o_0" junction="1">
      <succlane lane="SUMO_NO_DESTINATION" yield="1" dir="s" state="O"/>
   </succ>
   <succ edge="2i" lane="2i_0" junction="0">
      <succlane lane="4o_0" via=":0_0_0" tl="0" linkno="0" yield="1" dir="r" state="t"/>
      <succlane lane="1o_0" via=":0_1_0" tl="0" linkno="1" yield="1" dir="s" state="t"/>
   </succ>
   <succ edge="2i" lane="2i_1" junction="0">
      <succlane lane="3o_0" via=":0_2_0" tl="0" linkno="2" yield="1" dir="l" state="t" int_end="x"/>
   </succ>
   <succ edge="2o" lane="2o_0" junction="2">
      <succlane lane="SUMO_NO_DESTINATION" yield="1" dir="s" state="O"/>
   </succ>
   <succ edge="3i" lane="3i_0" junction="0">
      <succlane lane="2o_0" via=":0_3_0" tl="0" linkno="3" yield="1" dir="r" state="t"/>
   </succ>
   <succ edge="3i" lane="3i_1" junction="0">
      <succlane lane="4o_0" via=":0_4_0" tl="0" linkno="4" yield="1" dir="s" state="t"/>
      <succlane lane="1o_0" via=":0_5_0" tl="0" linkno="5" yield="1" dir="l" state="t" int_end="x"/>
   </succ>
   <succ edge="3o" lane="3o_0" junction="3">
      <succlane lane="SUMO_NO_DESTINATION" yield="1" dir="s" state="O"/>
   </succ>
   <succ edge="4i" lane="4i_0" junction="0">
      <succlane lane="1o_0" via=":0_9_0" tl="0" linkno="9" yield="1" dir="r" state="t"/>
   </succ>
   <succ edge="4i" lane="4i_1" junction="0">
      <succlane lane="3o_0" via=":0_10_0" tl="0" linkno="10" yield="1" dir="s" state="t"/>
      <succlane lane="2o_0" via=":0_11_0" tl="0" linkno="11" yield="1" dir="l" state="t" int_end="x"/>
   </succ>
   <succ edge="4o" lane="4o_0" junction="4">
      <succlane lane="SUMO_NO_DESTINATION" yield="1" dir="s" state="O"/>
   </succ>

   <succ edge=":0_0" lane=":0_0_0" junction="0">
      <succlane lane="4o_0" tl="" linkno="" yield="0" dir="s" state="M"/>
   </succ>
   <succ edge=":0_1" lane=":0_1_0" junction="0">
      <succlane lane="1o_0" tl="" linkno="" yield="0" dir="s" state="M"/>
   </succ>
   <succ edge=":0_2" lane=":0_2_0" junction="0">
      <succlane lane="3o_0" via=":0_12_0" tl="" linkno="" yield="1" dir="s" state="M"/>
   </succ>
   <succ edge=":0_12" lane=":0_12_0" junction=":0_12">
      <succlane lane="3o_0" tl="" linkno="0" yield="0" dir="s" state="M"/>
   </succ>
   <succ edge=":0_3" lane=":0_3_0" junction="0">
      <succlane lane="2o_0" tl="" linkno="" yield="0" dir="s" state="M"/>
   </succ>
   <succ edge=":0_4" lane=":0_4_0" junction="0">
      <succlane lane="4o_0" tl="" linkno="" yield="0" dir="s" state="M"/>
   </succ>
   <succ edge=":0_5" lane=":0_5_0" junction="0">
      <succlane lane="1o_0" via=":0_13_0" tl="" linkno="" yield="1" dir="s" state="M"/>
   </succ>
   <succ edge=":0_13" lane=":0_13_0" junction=":0_13">
      <succlane lane="1o_0" tl="" linkno="0" yield="0" dir="s" state="M"/>
   </succ>
   <succ edge=":0_6" lane=":0_6_0" junction="0">
      <succlane lane="3o_0" tl="" linkno="" yield="0" dir="s" state="M"/>
   </succ>
   <succ edge=":0_7" lane=":0_7_0" junction="0">
      <succlane lane="2o_0" tl="" linkno="" yield="0" dir="s" state="M"/>
   </succ>
   <succ edge=":0_8" lane=":0_8_0" junction="0">
      <succlane lane="4o_0" via=":0_14_0" tl="" linkno="" yield="1" dir="s" state="M"/>
   </succ>
   <succ edge=":0_14" lane=":0_14_0" junction=":0_14">
      <succlane lane="4o_0" tl="" linkno="0" yield="0" dir="s" state="M"/>
   </succ>
   <succ edge=":0_9" lane=":0_9_0" junction="0">
      <succlane lane="1o_0" tl="" linkno="" yield="0" dir="s" state="M"/>
   </succ>
   <succ edge=":0_10" lane=":0_10_0" junction="0">
      <succlane lane="3o_0" tl="" linkno="" yield="0" dir="s" state="M"/>
   </succ>
   <succ edge=":0_11" lane=":0_11_0" junction="0">
      <succlane lane="2o_0" via=":0_15_0" tl="" linkno="" yield="1" dir="s" state="M"/>
   </succ>
   <succ edge=":0_15" lane=":0_15_0" junction=":0_15">
      <succlane lane="2o_0" tl="" linkno="0" yield="0" dir="s" state="M"/>
   </succ>

</net>
