<?xml version="1.0" encoding="UTF-8"?>

<!-- generated on Mon Feb 17 15:30:49 2020 by Eclipse SUMO netconvert Version v1_5_0+0130-ceb0a01
This data file and the accompanying materials
are made available under the terms of the Eclipse Public License v2.0
which accompanies this distribution, and is available at
http://www.eclipse.org/legal/epl-v20.html
SPDX-License-Identifier: EPL-2.0
<configuration xmlns:xsi="http://www.w3.org/2001/XMLSchema-instance" xsi:noNamespaceSchemaLocation="http://sumo.dlr.de/xsd/netconvertConfiguration.xsd">

    <input>
        <node-files value="input_nodes.nod.xml"/>
        <edge-files value="input_edges.edg.xml"/>
    </input>

    <output>
        <write-license value="true"/>
        <output-file value="net.net.xml"/>
    </output>

    <report>
        <xml-validation value="never"/>
        <aggregate-warnings value="5"/>
    </report>

</configuration>
-->

<net version="1.6" junctionCornerDetail="5" limitTurnSpeed="5.50" xmlns:xsi="http://www.w3.org/2001/XMLSchema-instance" xsi:noNamespaceSchemaLocation="http://sumo.dlr.de/xsd/net_file.xsd">

    <location netOffset="0.00,3.20" convBoundary="0.00,0.00,100.00,3.20" origBoundary="0.00,0.00,100.00,0.00" projParameter="!"/>

    <edge id=":1.30_0" function="internal">
        <lane id=":1.30_0_0" index="0" speed="28.00" length="8.27" shape="26.00,-4.80 34.00,-4.80"/>
        <lane id=":1.30_0_1" index="1" speed="28.00" length="8.27" shape="26.00,-1.60 34.00,-1.60"/>
        <lane id=":1.30_0_2" index="2" speed="28.00" length="8.27" shape="26.00,-1.60 28.46,-1.10 30.00,0.00 31.54,1.10 34.00,1.60"/>
    </edge>
    <edge id=":1.70_0" function="internal">
        <lane id=":1.70_0_0" index="0" speed="28.00" length="8.20" shape="66.00,-4.80 68.46,-5.30 70.00,-6.40 71.54,-7.50 74.00,-8.00"/>
        <lane id=":1.70_0_1" index="1" speed="28.00" length="8.20" shape="66.00,-4.80 74.00,-4.80"/>
        <lane id=":1.70_0_2" index="2" speed="28.00" length="8.20" shape="66.00,-1.60 74.00,-1.60"/>
        <lane id=":1.70_0_3" index="3" speed="28.00" length="8.20" shape="66.00,1.60 74.00,1.60"/>
    </edge>

    <edge id="1" from="0" to="1.30" priority="-1" shape="0.00,0.00 30.00,0.00">
        <lane id="1_0" index="0" speed="28.00" length="26.00" shape="0.00,-4.80 26.00,-4.80"/>
        <lane id="1_1" index="1" speed="28.00" length="26.00" shape="0.00,-1.60 26.00,-1.60"/>
    </edge>
    <edge id="1.30" from="1.30" to="1.70" priority="-1">
        <lane id="1.30_0" index="0" speed="28.00" length="32.00" shape="34.00,-4.80 66.00,-4.80"/>
        <lane id="1.30_1" index="1" speed="28.00" length="32.00" shape="34.00,-1.60 66.00,-1.60"/>
        <lane id="1.30_2" index="2" speed="28.00" length="32.00" shape="34.00,1.60 66.00,1.60"/>
    </edge>
    <edge id="1.70" from="1.70" to="1" priority="-1">
        <lane id="1.70_0" index="0" speed="28.00" length="26.00" shape="74.00,-8.00 100.00,-8.00"/>
        <lane id="1.70_1" index="1" speed="28.00" length="26.00" shape="74.00,-4.80 100.00,-4.80"/>
        <lane id="1.70_2" index="2" speed="28.00" length="26.00" shape="74.00,-1.60 100.00,-1.60"/>
        <lane id="1.70_3" index="3" speed="28.00" length="26.00" shape="74.00,1.60 100.00,1.60"/>
    </edge>

    <junction id="0" type="dead_end" x="0.00" y="3.20" incLanes="" intLanes="" shape="0.00,0.00 0.00,-6.40"/>
    <junction id="1" type="dead_end" x="100.00" y="3.20" incLanes="1.70_0 1.70_1 1.70_2 1.70_3" intLanes="" shape="100.00,-9.60 100.00,3.20"/>
    <junction id="1.30" type="priority" x="30.00" y="3.20" incLanes="1_0 1_1" intLanes=":1.30_0_0 :1.30_0_1 :1.30_0_2" shape="34.00,3.20 34.00,-6.40 26.00,-6.40 26.00,0.00 29.03,0.83 30.97,2.37 32.21,2.96">
        <request index="0" response="000" foes="000" cont="0"/>
        <request index="1" response="000" foes="000" cont="0"/>
        <request index="2" response="000" foes="000" cont="0"/>
    </junction>
    <junction id="1.70" type="priority" x="70.00" y="3.20" incLanes="1.30_0 1.30_1 1.30_2" intLanes=":1.70_0_0 :1.70_0_1 :1.70_0_2 :1.70_0_3" shape="74.00,3.20 74.00,-9.60 70.97,-8.77 69.03,-7.23 67.79,-6.64 66.00,-6.40 66.00,3.20">
        <request index="0" response="0000" foes="0000" cont="0"/>
        <request index="1" response="0000" foes="0000" cont="0"/>
        <request index="2" response="0000" foes="0000" cont="0"/>
        <request index="3" response="0000" foes="0000" cont="0"/>
    </junction>

    <connection from="1" to="1.30" fromLane="0" toLane="0" via=":1.30_0_0" dir="s" state="M"/>
    <connection from="1" to="1.30" fromLane="1" toLane="1" via=":1.30_0_1" dir="s" state="M"/>
    <connection from="1" to="1.30" fromLane="1" toLane="2" via=":1.30_0_2" dir="s" state="M"/>
    <connection from="1.30" to="1.70" fromLane="0" toLane="0" via=":1.70_0_0" dir="s" state="M"/>
    <connection from="1.30" to="1.70" fromLane="0" toLane="1" via=":1.70_0_1" dir="s" state="M"/>
    <connection from="1.30" to="1.70" fromLane="1" toLane="2" via=":1.70_0_2" dir="s" state="M"/>
    <connection from="1.30" to="1.70" fromLane="2" toLane="3" via=":1.70_0_3" dir="s" state="M"/>

    <connection from=":1.30_0" to="1.30" fromLane="0" toLane="0" dir="s" state="M"/>
    <connection from=":1.30_0" to="1.30" fromLane="1" toLane="1" dir="s" state="M"/>
    <connection from=":1.30_0" to="1.30" fromLane="2" toLane="2" dir="s" state="M"/>
    <connection from=":1.70_0" to="1.70" fromLane="0" toLane="0" dir="s" state="M"/>
    <connection from=":1.70_0" to="1.70" fromLane="1" toLane="1" dir="s" state="M"/>
    <connection from=":1.70_0" to="1.70" fromLane="2" toLane="2" dir="s" state="M"/>
    <connection from=":1.70_0" to="1.70" fromLane="3" toLane="3" dir="s" state="M"/>

</net>
