<?xml version="1.0" encoding="UTF-8"?>

<!-- generated on 04.09.2019 13:31:18 by Eclipse SUMO netedit Version v1_3_1+0137-32cb9bef66
<configuration xmlns:xsi="http://www.w3.org/2001/XMLSchema-instance" xsi:noNamespaceSchemaLocation="http://sumo.dlr.de/xsd/netconvertConfiguration.xsd">

    <input>
        <sumo-net-file value="C:/Users/alva_pa/.texttest/tmp/netedit.gui.04Sep123340.10180/netedit.gui/shapeElements/poi/load/parameters\input_net.net.xml"/>
    </input>

    <output>
        <output-file value="C:/Users/alva_pa/.texttest/tmp/netedit.gui.04Sep123340.10180/netedit.gui/shapeElements/poi/load/parameters\net.net.xml"/>
    </output>

    <processing>
        <geometry.max-grade.fix value="false"/>
        <offset.disable-normalization value="true"/>
        <lefthand value="false"/>
    </processing>

    <junctions>
        <no-turnarounds value="true"/>
        <junctions.corner-detail value="5"/>
        <junctions.limit-turn-speed value="5.5"/>
        <rectangular-lane-cut value="false"/>
    </junctions>

    <pedestrian>
        <walkingareas value="false"/>
    </pedestrian>

    <netedit>
        <additional-files value="C:/Users/alva_pa/.texttest/tmp/netedit.gui.04Sep123340.10180/netedit.gui/shapeElements/poi/load/parameters\additionals.xml"/>
        <additionals-output value="C:/Users/alva_pa/.texttest/tmp/netedit.gui.04Sep123340.10180/netedit.gui/shapeElements/poi/load/parameters\additionals.xml"/>
        <route-files value="C:/Users/alva_pa/.texttest/tmp/netedit.gui.04Sep123340.10180/netedit.gui/shapeElements/poi/load/parameters\routes.xml"/>
        <demandelements-output value="C:/Users/alva_pa/.texttest/tmp/netedit.gui.04Sep123340.10180/netedit.gui/shapeElements/poi/load/parameters\routes.xml"/>
    </netedit>

    <visualisation>
        <gui-settings-file value="C:/Users/alva_pa/.texttest/tmp/netedit.gui.04Sep123340.10180/netedit.gui/shapeElements/poi/load/parameters\gui-settings.xml"/>
        <window-size value="700,500"/>
        <window-pos value="50,50"/>
        <gui-testing value="true"/>
        <gui-testing-debug value="true"/>
        <gui-testing-debug-gl value="true"/>
    </visualisation>

    <report>
        <no-warnings value="true"/>
        <error-log value="C:/Users/alva_pa/.texttest/tmp/netedit.gui.04Sep123340.10180/netedit.gui/shapeElements/poi/load/parameters\log.txt"/>
    </report>

</configuration>
-->

<additional xmlns:xsi="http://www.w3.org/2001/XMLSchema-instance" xsi:noNamespaceSchemaLocation="http://sumo.dlr.de/xsd/additional_file.xsd">
    <poi id="POI_0" color="red" layer="0.00" x="-30.00" y="30.00" width="0.00" height="0.00">
        <param key="key1" value="value5"/>
        <param key="key2" value=""/>
        <param key="keyFinal" value="valueFinal"/>
    </poi>
</additional>
