<?xml version="1.0" encoding="UTF-8"?>

<!-- generated on 2022-09-23 12:18:51 by Eclipse SUMO netconvert Version v1_14_1+1219-8dbd70d
This data file and the accompanying materials
are made available under the terms of the Eclipse Public License v2.0
which accompanies this distribution, and is available at
http://www.eclipse.org/legal/epl-v20.html
This file may also be made available under the following Secondary
Licenses when the conditions for such availability set forth in the Eclipse
Public License 2.0 are satisfied: GNU General Public License, version 2
or later which is available at
https://www.gnu.org/licenses/old-licenses/gpl-2.0-standalone.html
SPDX-License-Identifier: EPL-2.0 OR GPL-2.0-or-later
<configuration xmlns:xsi="http://www.w3.org/2001/XMLSchema-instance" xsi:noNamespaceSchemaLocation="http://sumo.dlr.de/xsd/netconvertConfiguration.xsd">

    <input>
        <osm-files value="osm.xml"/>
    </input>

    <output>
        <write-license value="true"/>
    </output>

    <projection>
        <proj.utm value="true"/>
    </projection>

    <junctions>
        <no-turnarounds value="true"/>
    </junctions>

    <formats>
        <osm.speedlimit-none value="36.39"/>
    </formats>

    <report>
        <xml-validation value="never"/>
    </report>

</configuration>
-->

<net version="1.16" junctionCornerDetail="5" limitTurnSpeed="5.50" xmlns:xsi="http://www.w3.org/2001/XMLSchema-instance" xsi:noNamespaceSchemaLocation="http://sumo.dlr.de/xsd/net_file.xsd">

    <location netOffset="-401158.11,-5793239.26" convBoundary="0.00,0.00,1995.84,3310.09" origBoundary="13.550816,52.280814,13.579929,52.310438" projParameter="+proj=utm +zone=33 +ellps=WGS84 +datum=WGS84 +units=m +no_defs"/>

    <type id="highway.bridleway" priority="1" numLanes="1" speed="2.78" allow="pedestrian" oneway="1" width="2.00"/>
    <type id="highway.bus_guideway" priority="1" numLanes="1" speed="27.78" allow="bus" oneway="1"/>
    <type id="highway.cycleway" priority="1" numLanes="1" speed="5.56" allow="bicycle" oneway="0" width="1.00"/>
    <type id="highway.footway" priority="1" numLanes="1" speed="2.78" allow="pedestrian" oneway="1" width="2.00"/>
    <type id="highway.ford" priority="1" numLanes="1" speed="2.78" allow="army" oneway="0"/>
    <type id="highway.living_street" priority="2" numLanes="1" speed="2.78" disallow="tram rail_urban rail rail_electric rail_fast ship" oneway="0"/>
    <type id="highway.motorway" priority="14" numLanes="2" speed="39.44" allow="private emergency authority army vip passenger hov taxi bus coach delivery truck trailer motorcycle evehicle custom1 custom2" oneway="1"/>
    <type id="highway.motorway_link" priority="9" numLanes="1" speed="22.22" allow="private emergency authority army vip passenger hov taxi bus coach delivery truck trailer motorcycle evehicle custom1 custom2" oneway="1"/>
    <type id="highway.path" priority="1" numLanes="1" speed="5.56" allow="pedestrian bicycle" oneway="0" width="2.00"/>
    <type id="highway.pedestrian" priority="1" numLanes="1" speed="2.78" allow="pedestrian" oneway="1" width="2.00"/>
    <type id="highway.primary" priority="12" numLanes="2" speed="27.78" disallow="tram rail_urban rail rail_electric rail_fast ship" oneway="0"/>
    <type id="highway.primary_link" priority="7" numLanes="1" speed="22.22" disallow="tram rail_urban rail rail_electric rail_fast ship" oneway="0"/>
    <type id="highway.raceway" priority="15" numLanes="2" speed="83.33" allow="vip" oneway="0"/>
    <type id="highway.residential" priority="3" numLanes="1" speed="13.89" disallow="tram rail_urban rail rail_electric rail_fast ship" oneway="0"/>
    <type id="highway.secondary" priority="11" numLanes="1" speed="27.78" disallow="tram rail_urban rail rail_electric rail_fast ship" oneway="0"/>
    <type id="highway.secondary_link" priority="6" numLanes="1" speed="22.22" disallow="tram rail_urban rail rail_electric rail_fast ship" oneway="0"/>
    <type id="highway.service" priority="1" numLanes="1" speed="5.56" allow="pedestrian delivery bicycle" oneway="0"/>
    <type id="highway.stairs" priority="1" numLanes="1" speed="1.39" allow="pedestrian" oneway="1" width="2.00"/>
    <type id="highway.step" priority="1" numLanes="1" speed="1.39" allow="pedestrian" oneway="1" width="2.00"/>
    <type id="highway.steps" priority="1" numLanes="1" speed="1.39" allow="pedestrian" oneway="1" width="2.00"/>
    <type id="highway.tertiary" priority="10" numLanes="1" speed="22.22" disallow="tram rail_urban rail rail_electric rail_fast ship" oneway="0"/>
    <type id="highway.tertiary_link" priority="5" numLanes="1" speed="22.22" disallow="tram rail_urban rail rail_electric rail_fast ship" oneway="0"/>
    <type id="highway.track" priority="1" numLanes="1" speed="5.56" allow="pedestrian motorcycle moped bicycle" oneway="0"/>
    <type id="highway.trunk" priority="13" numLanes="2" speed="27.78" disallow="pedestrian bicycle tram rail_urban rail rail_electric rail_fast ship" oneway="0"/>
    <type id="highway.trunk_link" priority="8" numLanes="1" speed="22.22" disallow="pedestrian bicycle tram rail_urban rail rail_electric rail_fast ship" oneway="0"/>
    <type id="highway.unclassified" priority="4" numLanes="1" speed="13.89" disallow="tram rail_urban rail rail_electric rail_fast ship" oneway="0"/>
    <type id="highway.unsurfaced" priority="1" numLanes="1" speed="8.33" disallow="tram rail_urban rail rail_electric rail_fast ship" oneway="0"/>
    <type id="railway.highspeed" priority="21" numLanes="1" speed="69.44" allow="rail_fast" oneway="1"/>
    <type id="railway.light_rail" priority="19" numLanes="1" speed="27.78" allow="rail_urban" oneway="1"/>
    <type id="railway.preserved" priority="16" numLanes="1" speed="27.78" allow="rail" oneway="1"/>
    <type id="railway.rail" priority="20" numLanes="1" speed="44.44" allow="rail" oneway="1"/>
    <type id="railway.subway" priority="18" numLanes="1" speed="27.78" allow="rail_urban" oneway="1"/>
    <type id="railway.tram" priority="17" numLanes="1" speed="13.89" allow="tram" oneway="1"/>

    <edge id=":1238837003_0" function="internal">
        <lane id=":1238837003_0_0" index="0" allow="pedestrian bicycle" speed="5.56" length="0.29" width="2.00" shape="594.14,1197.79 593.86,1197.72"/>
    </edge>
    <edge id=":1238837003_1" function="internal">
        <lane id=":1238837003_1_0" index="0" allow="pedestrian bicycle" speed="5.56" length="0.24" width="2.00" shape="594.37,1195.78 594.61,1195.84"/>
    </edge>
    <edge id=":1238837070_0" function="internal">
        <lane id=":1238837070_0_0" index="0" allow="pedestrian bicycle" speed="5.56" length="4.99" width="2.00" shape="406.18,1139.59 401.51,1137.85"/>
    </edge>
    <edge id=":1238837070_1" function="internal">
        <lane id=":1238837070_1_0" index="0" allow="pedestrian bicycle" speed="5.56" length="4.94" width="2.00" shape="402.23,1135.98 406.85,1137.71"/>
    </edge>
    <edge id=":1238837098_0" function="internal">
        <lane id=":1238837098_0_0" index="0" allow="pedestrian bicycle" speed="5.56" length="0.10" width="2.00" shape="659.13,1213.38 659.06,1213.36"/>
    </edge>
    <edge id=":1238837098_1" function="internal">
        <lane id=":1238837098_1_0" index="0" allow="pedestrian bicycle" speed="5.56" length="0.10" width="2.00" shape="659.53,1211.42 659.46,1211.40"/>
    </edge>
    <edge id=":1238837146_0" function="internal">
        <lane id=":1238837146_0_0" index="0" allow="pedestrian bicycle" speed="4.33" length="4.08" width="2.00" shape="876.26,1248.21 875.12,1248.16 874.28,1248.50 873.73,1249.22 873.47,1250.32"/>
    </edge>
    <edge id=":1238837146_1" function="internal">
        <lane id=":1238837146_1_0" index="0" allow="pedestrian bicycle" speed="5.56" length="7.06" width="2.00" shape="876.26,1248.21 869.29,1247.06"/>
    </edge>
    <edge id=":1238837146_2" function="internal">
        <lane id=":1238837146_2_0" index="0" allow="pedestrian bicycle" speed="5.56" length="7.15" width="2.00" shape="869.57,1245.08 876.62,1246.25"/>
    </edge>
    <edge id=":1238837146_3" function="internal">
        <lane id=":1238837146_3_0" index="0" allow="pedestrian bicycle" speed="5.56" length="7.36" width="2.00" shape="869.57,1245.08 871.43,1245.64 872.70,1246.70 873.38,1248.26 873.47,1250.32"/>
    </edge>
    <edge id=":1238837146_4" function="internal">
        <lane id=":1238837146_4_0" index="0" allow="pedestrian bicycle" speed="4.62" length="4.25" width="2.00" shape="871.47,1250.14 871.43,1248.92 871.05,1248.00 870.34,1247.38 869.29,1247.06"/>
    </edge>
    <edge id=":1238837146_5" function="internal">
        <lane id=":1238837146_5_0" index="0" allow="pedestrian bicycle" speed="5.56" length="7.53" width="2.00" shape="871.47,1250.14 871.96,1248.10 872.98,1246.78 874.53,1246.16 876.62,1246.25"/>
    </edge>
    <edge id=":1474309039_0" function="internal">
        <lane id=":1474309039_0_0" index="0" allow="pedestrian bicycle" speed="4.75" length="4.14" width="2.00" shape="677.49,1216.51 675.96,1216.32 674.81,1216.35 674.04,1216.61 673.64,1217.09"/>
    </edge>
    <edge id=":1474309039_1" function="internal">
        <lane id=":1474309039_1_0" index="0" allow="pedestrian bicycle" speed="5.56" length="10.03" width="2.00" shape="677.49,1216.51 667.61,1214.80"/>
    </edge>
    <edge id=":1474309039_2" function="internal">
        <lane id=":1474309039_2_0" index="0" allow="pedestrian bicycle" speed="5.56" length="9.20" width="2.00" shape="677.49,1216.51 674.71,1215.70 672.93,1214.42 672.15,1212.68 672.37,1210.49"/>
    </edge>
    <edge id=":1474309039_3" function="internal">
        <lane id=":1474309039_3_0" index="0" allow="pedestrian bicycle" speed="4.72" length="4.62" width="2.00" shape="675.44,1211.40 675.30,1212.56 675.66,1213.47 676.50,1214.13 677.84,1214.54"/>
    </edge>
    <edge id=":1474309039_4" function="internal">
        <lane id=":1474309039_4_0" index="0" allow="pedestrian motorcycle moped bicycle" speed="5.56" length="5.97" shape="675.44,1211.40 673.64,1217.09"/>
    </edge>
    <edge id=":1474309039_5" function="internal">
        <lane id=":1474309039_5_0" index="0" allow="pedestrian bicycle" speed="5.56" length="9.43" width="2.00" shape="675.44,1211.40 674.45,1213.30 672.81,1214.50 670.53,1215.00 667.61,1214.80"/>
    </edge>
    <edge id=":1474309039_6" function="internal">
        <lane id=":1474309039_6_0" index="0" allow="pedestrian bicycle" speed="5.34" length="5.56" width="2.00" shape="667.94,1212.83 669.55,1212.91 670.82,1212.54 671.76,1211.74 672.37,1210.49"/>
    </edge>
    <edge id=":1474309039_7" function="internal">
        <lane id=":1474309039_7_0" index="0" allow="pedestrian bicycle" speed="5.56" length="10.05" width="2.00" shape="667.94,1212.83 677.84,1214.54"/>
    </edge>
    <edge id=":1474309039_8" function="internal">
        <lane id=":1474309039_8_0" index="0" allow="pedestrian bicycle" speed="5.56" length="8.07" width="2.00" shape="667.94,1212.83 670.84,1213.52 672.76,1214.46 673.69,1215.65 673.64,1217.09"/>
    </edge>
    <edge id=":1474309039_9" function="internal">
        <lane id=":1474309039_9_0" index="0" allow="pedestrian bicycle" speed="4.18" length="3.51" width="2.00" shape="670.62,1216.03 670.43,1215.46 669.61,1215.12 668.54,1214.93 667.61,1214.80"/>
    </edge>
    <edge id=":1474309039_10" function="internal">
        <lane id=":1474309039_10_0" index="0" allow="pedestrian motorcycle moped bicycle" speed="5.56" length="5.81" shape="670.62,1216.03 672.37,1210.49"/>
    </edge>
    <edge id=":1474309039_11" function="internal">
        <lane id=":1474309039_11_0" index="0" allow="pedestrian bicycle" speed="5.56" length="7.91" width="2.00" shape="670.62,1216.03 671.42,1214.96 672.89,1214.35 675.03,1214.21 677.84,1214.54"/>
    </edge>
    <edge id=":1649753799_0" function="internal">
        <lane id=":1649753799_0_0" index="0" allow="private emergency authority army vip passenger hov taxi bus coach delivery truck trailer motorcycle evehicle custom1 custom2" speed="27.78" length="13.74" shape="567.61,1330.26 569.29,1327.42 570.81,1324.96 572.33,1322.11 574.02,1318.13"/>
    </edge>
    <edge id=":1649753799_1" function="internal">
        <lane id=":1649753799_1_0" index="0" allow="private emergency authority army vip passenger hov taxi bus coach delivery truck trailer motorcycle evehicle custom1 custom2" speed="33.33" length="13.95" shape="570.71,1331.68 572.38,1327.90 573.86,1325.47 575.33,1323.03 577.01,1319.26"/>
        <lane id=":1649753799_1_1" index="1" allow="private emergency authority army vip passenger hov taxi bus coach delivery truck trailer motorcycle evehicle custom1 custom2" speed="33.33" length="13.95" shape="573.71,1332.80 575.38,1329.02 576.85,1326.59 578.33,1324.15 580.00,1320.38"/>
    </edge>
    <edge id=":205498344_0" function="internal">
        <lane id=":205498344_0_0" index="0" allow="private emergency authority army vip passenger hov taxi bus coach delivery truck trailer motorcycle evehicle custom1 custom2" speed="29.31" length="15.84" shape="541.28,1464.66 539.71,1467.77 538.16,1470.75 536.52,1474.29 534.70,1479.05"/>
    </edge>
    <edge id=":205498344_1" function="internal">
        <lane id=":205498344_1_0" index="0" allow="private emergency authority army vip passenger hov taxi bus coach delivery truck trailer motorcycle evehicle custom1 custom2" speed="36.39" length="15.95" shape="538.19,1463.43 531.67,1478.01"/>
        <lane id=":205498344_1_1" index="1" allow="private emergency authority army vip passenger hov taxi bus coach delivery truck trailer motorcycle evehicle custom1 custom2" speed="36.39" length="15.95" shape="535.15,1462.42 528.65,1476.96"/>
    </edge>
    <edge id=":205498346_0" function="internal">
        <lane id=":205498346_0_0" index="0" allow="private emergency authority army vip passenger hov taxi bus coach delivery truck trailer motorcycle evehicle custom1 custom2" speed="29.31" length="11.06" shape="594.25,1316.53 593.23,1319.70 592.83,1322.02 592.66,1324.31 592.34,1327.37"/>
    </edge>
    <edge id=":205498346_1" function="internal">
        <lane id=":205498346_1_0" index="0" allow="private emergency authority army vip passenger hov taxi bus coach delivery truck trailer motorcycle evehicle custom1 custom2" speed="36.39" length="11.41" shape="591.26,1315.39 590.33,1318.62 590.09,1320.94 589.86,1323.27 588.94,1326.51"/>
        <lane id=":205498346_1_1" index="1" allow="private emergency authority army vip passenger hov taxi bus coach delivery truck trailer motorcycle evehicle custom1 custom2" speed="36.39" length="11.41" shape="588.27,1314.26 587.33,1317.49 587.09,1319.82 586.86,1322.15 585.94,1325.40"/>
    </edge>
    <edge id=":205498363_0" function="internal">
        <lane id=":205498363_0_0" index="0" allow="private emergency authority army vip passenger hov taxi bus coach delivery truck trailer motorcycle evehicle custom1 custom2" speed="22.22" length="9.09" shape="651.37,1400.77 648.78,1401.30 646.92,1401.12 645.03,1400.87 642.38,1401.18"/>
    </edge>
    <edge id=":205498363_1" function="internal">
        <lane id=":205498363_1_0" index="0" allow="private emergency authority army vip passenger hov taxi bus coach delivery truck trailer motorcycle evehicle custom1 custom2" speed="15.27" length="8.31" shape="642.19,1397.49 644.62,1397.94 646.33,1398.31 648.01,1398.33 650.34,1397.74"/>
    </edge>
    <edge id=":205498368_0" function="internal">
        <lane id=":205498368_0_0" index="0" allow="private emergency authority army vip passenger hov taxi bus coach delivery truck trailer motorcycle evehicle custom1 custom2" speed="6.60" length="8.93" shape="744.08,1239.87 741.67,1239.86 739.80,1240.63 738.45,1242.17 737.64,1244.48"/>
    </edge>
    <edge id=":205498368_1" function="internal">
        <lane id=":205498368_1_0" index="0" disallow="tram rail_urban rail rail_electric rail_fast ship" speed="19.44" length="14.05" shape="744.08,1239.87 730.27,1237.29"/>
    </edge>
    <edge id=":205498368_2" function="internal">
        <lane id=":205498368_2_0" index="0" disallow="tram rail_urban rail rail_electric rail_fast ship" speed="19.44" length="14.11" shape="731.70,1231.05 735.90,1232.49 738.83,1234.19 741.41,1235.74 744.54,1236.70"/>
    </edge>
    <edge id=":205498368_3" function="internal">
        <lane id=":205498368_3_0" index="0" allow="private emergency authority army vip passenger hov taxi bus coach delivery truck trailer motorcycle evehicle custom1 custom2" speed="8.01" length="3.80" shape="730.99,1234.17 734.53,1235.53"/>
    </edge>
    <edge id=":205498368_6" function="internal">
        <lane id=":205498368_6_0" index="0" allow="private emergency authority army vip passenger hov taxi bus coach delivery truck trailer motorcycle evehicle custom1 custom2" speed="8.01" length="10.12" shape="734.53,1235.53 736.83,1237.71 737.86,1240.69 737.64,1244.48"/>
    </edge>
    <edge id=":205498368_4" function="internal">
        <lane id=":205498368_4_0" index="0" allow="private emergency authority army vip passenger hov taxi bus coach delivery truck trailer motorcycle evehicle custom1 custom2" speed="6.51" length="8.86" shape="734.51,1243.85 734.65,1241.44 733.99,1239.54 732.53,1238.15 730.27,1237.29"/>
    </edge>
    <edge id=":205498368_5" function="internal">
        <lane id=":205498368_5_0" index="0" allow="private emergency authority army vip passenger hov taxi bus coach delivery truck trailer motorcycle evehicle custom1 custom2" speed="8.08" length="13.88" shape="734.51,1243.85 735.77,1240.27 737.86,1237.89 740.78,1236.69 744.54,1236.70"/>
    </edge>
    <edge id=":2398589370_0" function="internal">
        <lane id=":2398589370_0_0" index="0" allow="pedestrian bicycle" speed="4.89" length="4.53" width="2.00" shape="366.85,1139.88 365.76,1139.69 364.82,1139.96 364.02,1140.69 363.37,1141.88"/>
    </edge>
    <edge id=":2398589370_1" function="internal">
        <lane id=":2398589370_1_0" index="0" allow="pedestrian bicycle" speed="5.52" length="6.15" width="2.00" shape="366.85,1139.88 365.07,1139.03 363.95,1138.01 363.47,1136.82 363.65,1135.46"/>
    </edge>
    <edge id=":2398589370_2" function="internal">
        <lane id=":2398589370_2_0" index="0" allow="pedestrian bicycle" speed="5.56" length="6.15" width="2.00" shape="365.54,1136.12 363.37,1141.88"/>
    </edge>
    <edge id=":2398589370_3" function="internal">
        <lane id=":2398589370_3_0" index="0" allow="pedestrian bicycle" speed="5.56" length="6.06" width="2.00" shape="361.52,1141.13 363.65,1135.46"/>
    </edge>
    <edge id=":2398589374_0" function="internal">
        <lane id=":2398589374_0_0" index="0" disallow="tram rail_urban rail rail_electric rail_fast ship" speed="19.44" length="8.20" shape="436.55,1156.76 438.86,1157.42 440.55,1157.51 442.23,1157.57 444.56,1158.20"/>
        <lane id=":2398589374_0_1" index="1" disallow="tram rail_urban rail rail_electric rail_fast ship" speed="19.44" length="8.20" shape="436.55,1156.76 438.68,1157.89 439.97,1159.00 441.26,1160.09 443.41,1161.19"/>
    </edge>
    <edge id=":2612403306_0" function="internal">
        <lane id=":2612403306_0_0" index="0" allow="private emergency authority army vip passenger hov taxi bus coach delivery truck trailer motorcycle evehicle custom1 custom2" speed="36.39" length="8.21" shape="667.72,1118.22 667.12,1120.56 667.07,1122.26 667.02,1123.95 666.41,1126.29"/>
        <lane id=":2612403306_0_1" index="1" allow="private emergency authority army vip passenger hov taxi bus coach delivery truck trailer motorcycle evehicle custom1 custom2" speed="36.39" length="8.21" shape="667.72,1118.22 666.65,1120.38 665.58,1121.69 664.50,1123.00 663.41,1125.15"/>
        <lane id=":2612403306_0_2" index="2" allow="private emergency authority army vip passenger hov taxi bus coach delivery truck trailer motorcycle evehicle custom1 custom2" speed="36.39" length="8.21" shape="664.72,1117.11 663.66,1119.26 662.58,1120.56 661.50,1121.87 660.42,1124.02"/>
    </edge>
    <edge id=":281279599_0" function="internal">
        <lane id=":281279599_0_0" index="0" allow="pedestrian motorcycle moped bicycle" speed="6.41" length="9.04" shape="909.01,1266.06 906.51,1266.00 904.64,1266.75 903.37,1268.33 902.71,1270.74"/>
    </edge>
    <edge id=":281279599_1" function="internal">
        <lane id=":281279599_1_0" index="0" disallow="tram rail_urban rail rail_electric rail_fast ship" speed="19.44" length="14.32" shape="909.01,1266.06 894.97,1263.23"/>
    </edge>
    <edge id=":281279599_2" function="internal">
        <lane id=":281279599_2_0" index="0" disallow="tram rail_urban rail rail_electric rail_fast ship" speed="19.44" length="14.12" shape="895.70,1260.12 909.54,1262.91"/>
    </edge>
    <edge id=":281279599_3" function="internal">
        <lane id=":281279599_3_0" index="0" allow="pedestrian motorcycle moped bicycle" speed="8.33" length="3.73" shape="895.70,1260.12 899.18,1261.49"/>
    </edge>
    <edge id=":281279599_6" function="internal">
        <lane id=":281279599_6_0" index="0" allow="pedestrian motorcycle moped bicycle" speed="8.33" length="10.46" shape="899.18,1261.49 901.50,1263.72 902.68,1266.80 902.71,1270.74"/>
    </edge>
    <edge id=":281279599_4" function="internal">
        <lane id=":281279599_4_0" index="0" allow="pedestrian motorcycle moped bicycle" speed="6.89" length="9.42" shape="899.54,1270.35 899.53,1267.70 898.76,1265.63 897.24,1264.14 894.97,1263.23"/>
    </edge>
    <edge id=":281279599_5" function="internal">
        <lane id=":281279599_5_0" index="0" allow="pedestrian motorcycle moped bicycle" speed="7.92" length="14.37" shape="899.54,1270.35 900.58,1266.52 902.59,1264.01 905.58,1262.80 909.54,1262.91"/>
    </edge>
    <edge id=":281279626_0" function="internal">
        <lane id=":281279626_0_0" index="0" allow="pedestrian bicycle" speed="5.14" length="5.12" shape="892.43,1356.98 890.99,1356.98 889.90,1357.42 889.14,1358.28 888.73,1359.57"/>
    </edge>
    <edge id=":281279626_1" function="internal">
        <lane id=":281279626_1_0" index="0" allow="pedestrian bicycle" speed="5.56" length="10.32" shape="892.43,1356.98 889.70,1356.21 887.90,1354.75 887.03,1352.60 887.09,1349.76"/>
    </edge>
    <edge id=":281279626_2" function="internal">
        <lane id=":281279626_2_0" index="0" allow="pedestrian bicycle" speed="5.01" length="5.04" shape="890.25,1350.28 890.21,1351.67 890.64,1352.72 891.52,1353.43 892.85,1353.81"/>
    </edge>
    <edge id=":281279626_3" function="internal">
        <lane id=":281279626_3_0" index="0" allow="pedestrian motorcycle moped bicycle" speed="5.56" length="9.41" shape="890.25,1350.28 888.73,1359.57"/>
    </edge>
    <edge id=":281279626_4" function="internal">
        <lane id=":281279626_4_0" index="0" allow="pedestrian motorcycle moped bicycle" speed="5.56" length="9.43" shape="885.57,1359.07 887.09,1349.76"/>
    </edge>
    <edge id=":281279626_5" function="internal">
        <lane id=":281279626_5_0" index="0" allow="pedestrian bicycle" speed="5.56" length="10.18" shape="885.57,1359.07 886.39,1356.45 887.88,1354.71 890.03,1353.82 892.85,1353.81"/>
    </edge>
    <edge id=":281279627_0" function="internal">
        <lane id=":281279627_0_0" index="0" allow="pedestrian bicycle" speed="5.00" length="5.05" shape="870.52,1493.04 869.13,1492.94 868.06,1493.31 867.31,1494.16 866.87,1495.48"/>
    </edge>
    <edge id=":281279627_1" function="internal">
        <lane id=":281279627_1_0" index="0" allow="pedestrian bicycle" speed="5.56" length="10.13" shape="870.52,1493.04 867.87,1492.07 866.11,1490.53 865.25,1488.42 865.28,1485.73"/>
    </edge>
    <edge id=":281279627_2" function="internal">
        <lane id=":281279627_2_0" index="0" allow="pedestrian bicycle" speed="5.21" length="5.18" shape="868.44,1486.23 868.44,1487.58 868.89,1488.64 869.82,1489.42 871.20,1489.91"/>
    </edge>
    <edge id=":281279627_3" function="internal">
        <lane id=":281279627_3_0" index="0" allow="pedestrian motorcycle moped bicycle" speed="5.56" length="9.38" shape="868.44,1486.23 866.87,1495.48"/>
    </edge>
    <edge id=":281279627_4" function="internal">
        <lane id=":281279627_4_0" index="0" allow="pedestrian motorcycle moped bicycle" speed="5.56" length="9.32" shape="863.72,1494.91 865.28,1485.73"/>
    </edge>
    <edge id=":281279627_5" function="internal">
        <lane id=":281279627_5_0" index="0" allow="pedestrian bicycle" speed="5.56" length="10.35" shape="863.72,1494.91 864.62,1492.20 866.16,1490.47 868.36,1489.71 871.20,1489.91"/>
    </edge>
    <edge id=":2840913155_0" function="internal">
        <lane id=":2840913155_0_0" index="0" allow="pedestrian motorcycle moped bicycle" speed="5.56" length="0.28" shape="679.00,1199.40 678.93,1199.67"/>
    </edge>
    <edge id=":2840913155_1" function="internal">
        <lane id=":2840913155_1_0" index="0" allow="pedestrian motorcycle moped bicycle" speed="5.56" length="0.14" shape="675.86,1198.76 675.90,1198.62"/>
    </edge>
    <edge id=":295521289_0" function="internal">
        <lane id=":295521289_0_0" index="0" disallow="tram rail_urban rail rail_electric rail_fast ship" speed="19.44" length="14.45" shape="677.30,1225.19 663.20,1222.03"/>
    </edge>
    <edge id=":295521289_1" function="internal">
        <lane id=":295521289_1_0" index="0" allow="pedestrian motorcycle moped bicycle" speed="7.41" length="4.54" shape="677.30,1225.19 673.43,1223.86 673.08,1223.57"/>
    </edge>
    <edge id=":295521289_6" function="internal">
        <lane id=":295521289_6_0" index="0" allow="pedestrian motorcycle moped bicycle" speed="7.41" length="8.56" shape="673.08,1223.57 671.02,1221.92 670.06,1219.37 670.55,1216.22"/>
    </edge>
    <edge id=":295521289_2" function="internal">
        <lane id=":295521289_2_0" index="0" allow="pedestrian motorcycle moped bicycle" speed="5.78" length="7.51" shape="673.57,1217.28 673.39,1218.90 674.06,1220.23 675.60,1221.29 678.00,1222.06"/>
    </edge>
    <edge id=":295521289_3" function="internal">
        <lane id=":295521289_3_0" index="0" allow="pedestrian motorcycle moped bicycle" speed="7.93" length="12.68" shape="673.57,1217.28 672.06,1220.03 669.83,1221.75 666.87,1222.41 663.20,1222.03"/>
    </edge>
    <edge id=":295521289_4" function="internal">
        <lane id=":295521289_4_0" index="0" allow="pedestrian motorcycle moped bicycle" speed="6.41" length="7.95" shape="663.90,1218.91 666.30,1219.18 668.21,1218.83 669.63,1217.84 670.55,1216.22"/>
    </edge>
    <edge id=":295521289_5" function="internal">
        <lane id=":295521289_5_0" index="0" disallow="tram rail_urban rail rail_electric rail_fast ship" speed="19.44" length="14.45" shape="663.90,1218.91 678.00,1222.06"/>
    </edge>
    <edge id=":302967356_0" function="internal">
        <lane id=":302967356_0_0" index="0" disallow="tram rail_urban rail rail_electric rail_fast ship" speed="19.44" length="6.73" shape="874.66,1258.84 868.03,1257.71"/>
    </edge>
    <edge id=":302967356_1" function="internal">
        <lane id=":302967356_1_0" index="0" allow="pedestrian bicycle" speed="6.63" length="2.10" width="2.00" shape="874.66,1258.84 872.99,1258.10 872.82,1257.89"/>
    </edge>
    <edge id=":302967356_6" function="internal">
        <lane id=":302967356_6_0" index="0" allow="pedestrian bicycle" speed="6.63" length="6.52" width="2.00" shape="872.82,1257.89 871.87,1256.68 871.32,1254.56 871.33,1251.77"/>
    </edge>
    <edge id=":302967356_2" function="internal">
        <lane id=":302967356_2_0" index="0" allow="pedestrian bicycle" speed="4.93" length="4.71" width="2.00" shape="873.32,1251.95 873.33,1253.42 873.66,1254.54 874.32,1255.30 875.30,1255.71"/>
    </edge>
    <edge id=":302967356_3" function="internal">
        <lane id=":302967356_3_0" index="0" allow="pedestrian bicycle" speed="6.24" length="8.96" width="2.00" shape="873.32,1251.95 872.77,1254.72 871.70,1256.61 870.12,1257.60 868.03,1257.71"/>
    </edge>
    <edge id=":302967356_4" function="internal">
        <lane id=":302967356_4_0" index="0" allow="pedestrian bicycle" speed="4.78" length="4.57" width="2.00" shape="868.48,1254.54 869.62,1254.50 870.47,1254.03 871.04,1253.12 871.33,1251.77"/>
    </edge>
    <edge id=":302967356_5" function="internal">
        <lane id=":302967356_5_0" index="0" disallow="tram rail_urban rail rail_electric rail_fast ship" speed="19.44" length="6.92" shape="868.48,1254.54 875.30,1255.71"/>
    </edge>
    <edge id=":309374748_0" function="internal">
        <lane id=":309374748_0_0" index="0" allow="private emergency authority army vip passenger hov taxi bus coach delivery truck trailer motorcycle evehicle custom1 custom2" speed="34.86" length="8.21" shape="646.59,1134.48 647.20,1132.15 647.25,1130.46 647.29,1128.76 647.89,1126.43"/>
        <lane id=":309374748_0_1" index="1" allow="private emergency authority army vip passenger hov taxi bus coach delivery truck trailer motorcycle evehicle custom1 custom2" speed="34.86" length="8.21" shape="649.59,1135.61 650.20,1133.27 650.25,1131.58 650.29,1129.88 650.89,1127.54"/>
    </edge>
    <edge id=":3203789084_0" function="internal">
        <lane id=":3203789084_0_0" index="0" allow="private emergency authority army vip passenger hov taxi bus coach delivery truck trailer motorcycle evehicle custom1 custom2" speed="33.33" length="8.21" shape="455.07,1675.84 455.42,1673.45 455.28,1671.76 455.16,1670.07 455.53,1667.68"/>
        <lane id=":3203789084_0_1" index="1" allow="private emergency authority army vip passenger hov taxi bus coach delivery truck trailer motorcycle evehicle custom1 custom2" speed="33.33" length="8.21" shape="455.07,1675.84 455.90,1673.58 456.83,1672.17 457.77,1670.76 458.62,1668.50"/>
        <lane id=":3203789084_0_2" index="2" allow="private emergency authority army vip passenger hov taxi bus coach delivery truck trailer motorcycle evehicle custom1 custom2" speed="33.33" length="8.21" shape="458.17,1676.63 459.00,1674.38 459.93,1672.97 460.86,1671.57 461.72,1669.32"/>
    </edge>
    <edge id=":3203790180_0" function="internal">