<?xml version="1.0" encoding="UTF-8"?>

<!-- generated on 2022-01-28 11:35:39 by Eclipse SUMO sumo Version v1_12_0+0086-e034d65
This data file and the accompanying materials
are made available under the terms of the Eclipse Public License v2.0
which accompanies this distribution, and is available at
http://www.eclipse.org/legal/epl-v20.html
SPDX-License-Identifier: EPL-2.0
<configuration xmlns:xsi="http://www.w3.org/2001/XMLSchema-instance" xsi:noNamespaceSchemaLocation="http://sumo.dlr.de/xsd/sumoConfiguration.xsd">

    <input>
        <net-file value="net.net.xml"/>
        <route-files value="input_routes.rou.xml"/>
        <additional-files value="input_additional.add.xml"/>
    </input>

    <output>
        <write-license value="true"/>
        <stop-output value="stopinfos.xml"/>
    </output>

    <processing>
        <default.speeddev value="0"/>
    </processing>

    <report>
        <verbose value="true"/>
        <xml-validation value="never"/>
        <xml-validation.routes value="never"/>
        <duration-log.disable value="true"/>
        <duration-log.statistics value="true"/>
        <no-step-log value="true"/>
    </report>

</configuration>
-->

<stops xmlns:xsi="http://www.w3.org/2001/XMLSchema-instance" xsi:noNamespaceSchemaLocation="http://sumo.dlr.de/xsd/stopinfo_file.xsd">
    <stopinfo id="f_0.0" type="DEFAULT_VEHTYPE" lane="E0_0" pos="248.00" parking="1" started="25.00" ended="145.00" delay="-1.00" initialPersons="0" loadedPersons="0" unloadedPersons="0" initialContainers="0" loadedContainers="0" unloadedContainers="0" parkingArea="pa_0"/>
    <stopinfo id="f_0.1" type="DEFAULT_VEHTYPE" lane="E0_0" pos="264.00" parking="1" started="35.00" ended="155.00" delay="-1.00" initialPersons="0" loadedPersons="0" unloadedPersons="0" initialContainers="0" loadedContainers="0" unloadedContainers="0" parkingArea="pa_0"/>
    <stopinfo id="f_0.2" type="DEFAULT_VEHTYPE" lane="E0_0" pos="271.98" parking="1" started="39.00" ended="159.00" delay="-1.00" initialPersons="0" loadedPersons="0" unloadedPersons="0" initialContainers="0" loadedContainers="0" unloadedContainers="0" parkingArea="pa_0"/>
    <stopinfo id="f_0.3" type="DEFAULT_VEHTYPE" lane="E0_0" pos="280.00" parking="1" started="44.00" ended="164.00" delay="-1.00" initialPersons="0" loadedPersons="0" unloadedPersons="0" initialContainers="0" loadedContainers="0" unloadedContainers="0" parkingArea="pa_0"/>
    <stopinfo id="f_0.4" type="DEFAULT_VEHTYPE" lane="E0_0" pos="304.00" parking="1" started="67.00" ended="187.00" delay="-1.00" initialPersons="0" loadedPersons="0" unloadedPersons="0" initialContainers="0" loadedContainers="0" unloadedContainers="0" parkingArea="pa_0"/>
    <stopinfo id="f_0.5" type="DEFAULT_VEHTYPE" lane="E0_0" pos="311.98" parking="1" started="75.00" ended="195.00" delay="-1.00" initialPersons="0" loadedPersons="0" unloadedPersons="0" initialContainers="0" loadedContainers="0" unloadedContainers="0" parkingArea="pa_0"/>
    <stopinfo id="f_1.0" type="DEFAULT_VEHTYPE" lane="E0_0" pos="255.98" parking="1" started="31.00" ended="211.00" delay="-1.00" initialPersons="0" loadedPersons="0" unloadedPersons="0" initialContainers="0" loadedContainers="0" unloadedContainers="0" parkingArea="pa_0"/>
    <stopinfo id="f_1.1" type="DEFAULT_VEHTYPE" lane="E0_0" pos="288.00" parking="1" started="49.00" ended="229.00" delay="-1.00" initialPersons="0" loadedPersons="0" unloadedPersons="0" initialContainers="0" loadedContainers="0" unloadedContainers="0" parkingArea="pa_0"/>
    <stopinfo id="f_1.2" type="DEFAULT_VEHTYPE" lane="E0_0" pos="295.99" parking="1" started="58.00" ended="238.00" delay="-1.00" initialPersons="0" loadedPersons="0" unloadedPersons="0" initialContainers="0" loadedContainers="0" unloadedContainers="0" parkingArea="pa_0"/>
    <stopinfo id="f_1.3" type="DEFAULT_VEHTYPE" lane="E0_0" pos="319.99" parking="1" started="90.00" ended="270.00" delay="-1.00" initialPersons="0" loadedPersons="0" unloadedPersons="0" initialContainers="0" loadedContainers="0" unloadedContainers="0" parkingArea="pa_0"/>
    <stopinfo id="f_0.6" type="DEFAULT_VEHTYPE" lane="E0_0" pos="271.99" parking="1" started="168.00" ended="288.00" delay="-1.00" initialPersons="0" loadedPersons="0" unloadedPersons="0" initialContainers="0" loadedContainers="0" unloadedContainers="0" parkingArea="pa_0"/>
    <stopinfo id="f_1.4" type="DEFAULT_VEHTYPE" lane="E0_0" pos="247.97" parking="1" started="151.00" ended="331.00" delay="-1.00" initialPersons="0" loadedPersons="0" unloadedPersons="0" initialContainers="0" loadedContainers="0" unloadedContainers="0" parkingArea="pa_0"/>
    <stopinfo id="f_1.5" type="DEFAULT_VEHTYPE" lane="E0_0" pos="263.98" parking="1" started="163.00" ended="343.00" delay="-1.00" initialPersons="0" loadedPersons="0" unloadedPersons="0" initialContainers="0" loadedContainers="0" unloadedContainers="0" parkingArea="pa_0"/>
    <stopinfo id="f_1.6" type="DEFAULT_VEHTYPE" lane="E0_0" pos="280.00" parking="1" started="173.00" ended="353.00" delay="-1.00" initialPersons="0" loadedPersons="0" unloadedPersons="0" initialContainers="0" loadedContainers="0" unloadedContainers="0" parkingArea="pa_0"/>
    <stopinfo id="f_1.7" type="DEFAULT_VEHTYPE" lane="E0_0" pos="304.00" parking="1" started="195.00" ended="375.00" delay="-1.00" initialPersons="0" loadedPersons="0" unloadedPersons="0" initialContainers="0" loadedContainers="0" unloadedContainers="0" parkingArea="pa_0"/>
    <stopinfo id="f_1.8" type="DEFAULT_VEHTYPE" lane="E0_0" pos="311.99" parking="1" started="272.00" ended="452.00" delay="-1.00" initialPersons="0" loadedPersons="0" unloadedPersons="0" initialContainers="0" loadedContainers="0" unloadedContainers="0" parkingArea="pa_0"/>
</stops>
