<?xml version="1.0"?>

<additional xmlns:xsi="http://www.w3.org/2001/XMLSchema-instance" xsi:noNamespaceSchemaLocation="http://sumo.dlr.de/xsd/additional_file.xsd">
   <tlLogic id="0" type="static" programID="1" offset="0">
      <phase duration="31" state="GgrrrGGgrrr"/>
      <phase duration="4" state="ygrrryygrrr"/>
      <phase duration="6" state="rGrrrrrGrrr"/>
      <phase duration="4" state="ryrrrrryrrr"/>
      <phase duration="31" state="rrGGgrrrGGg"/>
      <phase duration="4" state="rryygrrryyg"/>
      <phase duration="6" state="rrrrGrrrrrG"/>
      <phase duration="4" state="rrrryrrrrry"/>
   </tlLogic>
</additional>

