<?xml version="1.0" encoding="UTF-8"?>

<!-- generated on 2021-06-16 15:53:36 by Eclipse SUMO netedit Version v1_9_2+0584-04bc4eacab
<configuration xmlns:xsi="http://www.w3.org/2001/XMLSchema-instance" xsi:noNamespaceSchemaLocation="http://sumo.dlr.de/xsd/netconvertConfiguration.xsd">

    <input>
        <sumo-net-file value="C:\Users\alva_pa\.texttest\tmp\netedit.gui.16Jun150511.14604\netedit.gui\additionalElements\chargingstation\load\chargedelay\input_net.net.xml"/>
    </input>

    <output>
        <output-file value="C:\Users\alva_pa\.texttest\tmp\netedit.gui.16Jun150511.14604\netedit.gui\additionalElements\chargingstation\load\chargedelay\net.net.xml"/>
    </output>

    <processing>
        <geometry.min-radius.fix.railways value="false"/>
        <geometry.max-grade.fix value="false"/>
        <offset.disable-normalization value="true"/>
        <lefthand value="false"/>
    </processing>

    <junctions>
        <no-turnarounds value="true"/>
        <junctions.corner-detail value="5"/>
        <junctions.limit-turn-speed value="5.5"/>
        <rectangular-lane-cut value="false"/>
    </junctions>

    <pedestrian>
        <walkingareas value="false"/>
    </pedestrian>

    <netedit>
        <additional-files value="C:\Users\alva_pa\.texttest\tmp\netedit.gui.16Jun150511.14604\netedit.gui\additionalElements\chargingstation\load\chargedelay\additionals.xml"/>
        <additionals-output value="C:\Users\alva_pa\.texttest\tmp\netedit.gui.16Jun150511.14604\netedit.gui\additionalElements\chargingstation\load\chargedelay\additionals.xml"/>
        <route-files value="C:\Users\alva_pa\.texttest\tmp\netedit.gui.16Jun150511.14604\netedit.gui\additionalElements\chargingstation\load\chargedelay\routes.xml"/>
        <demandelements-output value="C:\Users\alva_pa\.texttest\tmp\netedit.gui.16Jun150511.14604\netedit.gui\additionalElements\chargingstation\load\chargedelay\routes.xml"/>
        <data-files value="C:\Users\alva_pa\.texttest\tmp\netedit.gui.16Jun150511.14604\netedit.gui\additionalElements\chargingstation\load\chargedelay\datas.xml"/>
        <dataelements-output value="C:\Users\alva_pa\.texttest\tmp\netedit.gui.16Jun150511.14604\netedit.gui\additionalElements\chargingstation\load\chargedelay\datas.xml"/>
    </netedit>

    <visualisation>
        <gui-settings-file value="C:\Users\alva_pa\.texttest\tmp\netedit.gui.16Jun150511.14604\netedit.gui\additionalElements\chargingstation\load\chargedelay\gui-settings.xml"/>
        <window-size value="936,697"/>
        <window-pos value="50,50"/>
        <gui-testing value="true"/>
        <gui-testing-debug value="true"/>
        <gui-testing-debug-gl value="true"/>
        <gui-testing.setting-output value="C:\Users\alva_pa\.texttest\tmp\netedit.gui.16Jun150511.14604\netedit.gui\additionalElements\chargingstation\load\chargedelay\guisettingsoutput.xml"/>
    </visualisation>

    <report>
        <no-warnings value="true"/>
        <aggregate-warnings value="5"/>
        <error-log value="C:\Users\alva_pa\.texttest\tmp\netedit.gui.16Jun150511.14604\netedit.gui\additionalElements\chargingstation\load\chargedelay\log.txt"/>
    </report>

</configuration>
-->

<additional xmlns:xsi="http://www.w3.org/2001/XMLSchema-instance" xsi:noNamespaceSchemaLocation="http://sumo.dlr.de/xsd/additional_file.xsd">
    <chargingStation id="chargingStation_0" lane="gneE1_0" startPos="36.00" endPos="38.00" name="chargingStation"/>
    <chargingStation id="chargingStation_3" lane="gneE1_0" startPos="44.00" endPos="46.00" name="chargingStation" chargeDelay="5.50"/>
</additional>
