<?xml version="1.0" encoding="UTF-8"?>

<!-- generated on 2023-07-06 14:36:57 by Eclipse SUMO netedit Version v1_18_0+0154-2cecf1f1665
-->

<routes xmlns:xsi="http://www.w3.org/2001/XMLSchema-instance" xsi:noNamespaceSchemaLocation="http://sumo.dlr.de/xsd/routes_file.xsd">
    <!-- VTypes -->
    <vType id="custom_vType" length="20.00" vClass="ignoring" width="5.00" height="12.00" color="cyan"/>
    <!-- Vehicles, persons and containers (sorted by depart) -->
    <containerFlow id="cf_0" type="custom_vType" begin="0.00" end="3600.00" containersPerHour="1800">
        <transport from="Edge0" to="Edge2" lines="ANY"/>
    </containerFlow>
</routes>
