<?xml version="1.0" encoding="UTF-8"?>

<!-- generated on Wed May 21 13:15:08 2014 by SUMO netconvert Version dev-SVN-r16402
<?xml version="1.0" encoding="UTF-8"?>

<configuration xmlns:xsi="http://www.w3.org/2001/XMLSchema-instance" xsi:noNamespaceSchemaLocation="http://sumo-sim.org/xsd/netconvertConfiguration.xsd">

    <input>
        <node-files value="input_plain.nod.xml"/>
        <edge-files value="input_plain.edg.xml"/>
    </input>

    <output>
        <output-file value="net.net.xml"/>
        <plain-output-prefix value="plain"/>
    </output>

    <processing>
        <no-turnarounds value="true"/>
        <crossings.guess value="true"/>
    </processing>

    <report>
        <xml-validation value="never"/>
    </report>

</configuration>
-->

<tlLogics version="0.13" xmlns:xsi="http://www.w3.org/2001/XMLSchema-instance" xsi:noNamespaceSchemaLocation="http://sumo-sim.org/xsd/tllogic_file.xsd">
    <tlLogic id="C" type="static" programID="0" offset="0">
        <phase duration="26" state="gGrrGGr"/>
        <phase duration="5" state="gGrrGrr"/>
        <phase duration="4" state="yyrryrr"/>
        <phase duration="26" state="rrGGGrG"/>
        <phase duration="5" state="rrGGGrr"/>
        <phase duration="4" state="rryyyrr"/>
    </tlLogic>

    <connection from="SC" to="CE" fromLane="2" toLane="2" tl="C" linkIndex="0"/>
    <connection from="SC" to="CN" fromLane="3" toLane="2" tl="C" linkIndex="1"/>
    <connection from="WC" to="CE" fromLane="2" toLane="2" tl="C" linkIndex="2"/>
    <connection from="WC" to="CE" fromLane="3" toLane="3" tl="C" linkIndex="3"/>
    <connection from="WC" to="CN" fromLane="3" toLane="3" tl="C" linkIndex="4"/>
</tlLogics>
