<?xml version="1.0" encoding="UTF-8"?>

<!-- generated on Mon May 12 12:04:57 2014 by SUMO polyconvert Version dev-SVN-r16348
<?xml version="1.0" encoding="UTF-8"?>

<configuration xmlns:xsi="http://www.w3.org/2001/XMLSchema-instance" xsi:noNamespaceSchemaLocation="http://sumo-sim.org/xsd/polyconvertConfiguration.xsd">

    <input>
        <osm-files value="osm.xml"/>
        <osm.keep-full-type value="true"/>
    </input>

    <output>
        <output-file value="pois.poi.xml"/>
    </output>

    <projection>
        <proj.scale value="0"/>
        <proj.utm value="true"/>
    </projection>

    <report>
        <verbose value="true"/>
        <xml-validation value="never"/>
    </report>

</configuration>
-->

<additional xmlns:xsi="http://www.w3.org/2001/XMLSchema-instance" xsi:noNamespaceSchemaLocation="http://sumo-sim.org/xsd/additional_file.xsd">
    <poly id="-974" type="polygon.overpass" color="51,128,255" fill="0" layer="-1.00" shape="399863.40,5809422.23 399824.64,5809486.66 399823.45,5809472.85 399862.26,5809457.18 399986.69,5809471.75"/>
    <poi id="32266935" type="highway.traffic_signals" color="51,128,255" layer="-1.00" x="399824.64" y="5809486.66"/>
</additional>
