<?xml version="1.0" encoding="UTF-8"?>

<!-- generated on 2024-08-26 14:28:53 by Eclipse SUMO sumo Version v1_20_0+1714-5abd9d647c6
<sumoConfiguration xmlns:xsi="http://www.w3.org/2001/XMLSchema-instance" xsi:noNamespaceSchemaLocation="http://sumo.dlr.de/xsd/sumoConfiguration.xsd">

    <input>
        <net-file value="net.net.xml"/>
        <route-files value="input_routes.rou.xml"/>
        <additional-files value="input_additional.add.xml,input_additional2.add.xml"/>
    </input>

    <output>
        <tripinfo-output value="tripinfo.xml"/>
        <save-state.times value="10,60"/>
        <save-state.files value="state2.xml,state.xml"/>
    </output>

    <processing>
        <default.speeddev value="0"/>
    </processing>

    <report>
        <verbose value="true"/>
        <duration-log.disable value="true"/>
        <no-step-log value="true"/>
    </report>

    <mesoscopic>
        <mesosim value="true"/>
    </mesoscopic>

</sumoConfiguration>
-->

<snapshot xmlns:xsi="http://www.w3.org/2001/XMLSchema-instance" xsi:noNamespaceSchemaLocation="http://sumo.dlr.de/xsd/state_file.xsd" version="v1_20_0+1714-5abd9d647c6" time="10.00" type="meso">
    <route id="!between" state="0" edges="d e"/>
    <route id="!t0!var#1" state="0" edges="a b c"/>
    <route id="!t1" state="0" edges="d c c"/>
    <delay number="2" begin="3" end="0" depart="0.00" time="0.00"/>
    <vType id="train" length="50.00" vClass="rail"/>
    <vehicle id="between" type="train" depart="0.00" departSpeed="max" route="!between" distance="0 0" speedFactor="1.0000" reroute="1" state="262162 0 0 0 1 0 14400 7200 9223372036854774807">
        <device id="tripinfo_between" state="13.89 -0 0 0 0 0 -1 -1000 NONE -1 0 -1"/>
        <device id="routing_between" state="0"/>
    </vehicle>
    <vehicle id="t0" type="train" depart="0.00" departSpeed="max" route="!t0!var#1" distance="0 1" speedFactor="1.0000" reroute="1" state="262162 0 0 0 1 0 14398 7199 9223372036854774807">
        <stop busStop="stop_c" arrival="100.00" duration="30.00" until="130.00"/>
        <device id="tripinfo_t0" state="13.89 -0 0 0 0 0 -1 -1000 NONE -1 0 -1"/>
        <device id="routing_t0" state="0"/>
    </vehicle>
    <vehicle id="t1" type="train" depart="20.00" departSpeed="max" route="!t1" distance="0 0" speedFactor="1.0000" reroute="1" state="262162 9223372036854774807 0 -1000 -1 0 -9223372036854775808 -9223372036854775808 9223372036854774807">
        <stop busStop="stop_c" arrival="50.00" duration="30.00" until="80.00"/>
        <device id="routing_t1" state="0"/>
    </vehicle>
    <segment id="a:0">
        <vehicles time="12288" value=""/>
    </segment>
    <segment id="a:1">
        <vehicles time="-1" value="t0"/>
    </segment>
    <segment id="d:0">
        <vehicles time="12289" value=""/>
    </segment>
    <segment id="d:1">
        <vehicles time="-1" value="between"/>
    </segment>
</snapshot>
