<?xml version="1.0" encoding="UTF-8"?>

<!-- generated on 2023-01-27 13:01:33 by Eclipse SUMO netedit Version v1_15_0+2000-20fb12c9343
-->

<additional xmlns:xsi="http://www.w3.org/2001/XMLSchema-instance" xsi:noNamespaceSchemaLocation="http://sumo.dlr.de/xsd/additional_file.xsd">
    <!-- StoppingPlaces -->
    <busStop id="busStop_3_2_0" lane="3_2" startPos="24.60" endPos="34.60"/>
    <busStop id="busStop_4_2_2" lane="4_2" startPos="20.45" endPos="30.45"/>
    <busStop id="busStop_7_1_3" lane="7_1" startPos="11.51" endPos="21.51"/>
    <busStop id="busStop_8_2_1" lane="8_2" startPos="11.40" endPos="21.40"/>
</additional>
