<?xml version="1.0" encoding="UTF-8"?>

<!-- generated on Thu Apr 12 00:04:45 2018 by SUMO netconvert Version c8481b0
This data file and the accompanying materials
are made available under the terms of the Eclipse Public License v2.0
which accompanies this distribution, and is available at
http://www.eclipse.org/legal/epl-v20.html
SPDX-License-Identifier: EPL-2.0
<configuration xmlns:xsi="http://www.w3.org/2001/XMLSchema-instance" xsi:noNamespaceSchemaLocation="http://sumo.dlr.de/xsd/netconvertConfiguration.xsd">

    <input>
        <sumo-net-file value="input_net.net.xml"/>
    </input>

    <output>
        <write-license value="true"/>
        <output-file value="ignore.net.xml"/>
        <street-sign-output value="pois.add.xml"/>
    </output>

    <processing>
        <no-internal-links value="true"/>
        <no-turnarounds value="true"/>
        <offset.disable-normalization value="true"/>
        <lefthand value="false"/>
        <junctions.corner-detail value="0"/>
        <rectangular-lane-cut value="false"/>
        <walkingareas value="false"/>
    </processing>

    <report>
        <verbose value="true"/>
        <xml-validation value="never"/>
    </report>

</configuration>
-->

<additional xmlns:xsi="http://www.w3.org/2001/XMLSchema-instance" xsi:noNamespaceSchemaLocation="http://sumo.dlr.de/xsd/additional_file.xsd">
    <poi id="gneE1.37.33" type="priority" color="yellow" x="-2.30" y="52.76" angle="0"/>
    <poi id="gneE10.34.66" type="priority" color="yellow" x="-17.84" y="43.60" angle="0"/>
    <poi id="gneE11.34.66" type="right before left" color="255,153,0" x="-49.46" y="52.95" angle="0"/>
    <poi id="gneE12.25.62" type="yield" color="red" x="-14.31" y="56.32" angle="0"/>
    <poi id="gneE15.22.40" type="yield" color="red" x="-5.44" y="40.49" angle="0"/>
    <poi id="gneE16.33.74" type="right before left" color="255,153,0" x="-64.91" y="43.79" angle="0"/>
    <poi id="gneE19.26.66" type="right before left" color="255,153,0" x="-61.89" y="56.07" angle="0"/>
    <poi id="gneE21.26.88" type="right before left" color="255,153,0" x="-52.65" y="40.60" angle="0"/>
</additional>
