<?xml version="1.0" encoding="UTF-8"?>

<!-- generated on 2026-03-03 14:43:16.232903 by Eclipse SUMO netdiff.py v1_26_0+0419-a5ab52a50ee
<configuration>
    <source value="source.xml"/>
    <dest value="dest.xml"/>
    <outprefix value="diff"/>
    <direct value="True"/>
</configuration>
-->

<edges xmlns:xsi="http://www.w3.org/2001/XMLSchema-instance" xsi:noNamespaceSchemaLocation="http://sumo.dlr.de/xsd/edgediff_file.xsd">
    <!-- Deleted Elements -->
    <!-- Created Elements -->
    <!-- Changed Elements -->
    <edge id="39013713" />  <!-- missingAttributes: disallow,name,shape,type -->
</edges>
