<?xml version="1.0" encoding="UTF-8"?>

<!-- generated on 2025-08-01 13:22:22 by Eclipse SUMO netconvert Version v1_24_0+0105-e209ab84cb0
This data file and the accompanying materials
are made available under the terms of the Eclipse Public License v2.0
which accompanies this distribution, and is available at
http://www.eclipse.org/legal/epl-v20.html
This file may also be made available under the following Secondary
Licenses when the conditions for such availability set forth in the Eclipse
Public License 2.0 are satisfied: GNU General Public License, version 2
or later which is available at
https://www.gnu.org/licenses/old-licenses/gpl-2.0-standalone.html
SPDX-License-Identifier: EPL-2.0 OR GPL-2.0-or-later
<netconvertConfiguration xmlns:xsi="http://www.w3.org/2001/XMLSchema-instance" xsi:noNamespaceSchemaLocation="http://sumo.dlr.de/xsd/netconvertConfiguration.xsd">

    <input>
        <osm-files value="osm.xml"/>
    </input>

    <output>
        <write-license value="true"/>
        <ptstop-output value="additional.xml"/>
        <ptline-output value="ptlines.xml"/>
    </output>

    <projection>
        <proj.utm value="true"/>
    </projection>

    <processing>
        <edges.join-tram-dist value="1.6"/>
    </processing>

    <edge_removal>
        <keep-edges.by-vclass value="passenger,tram,bus"/>
    </edge_removal>

    <junctions>
        <no-internal-links value="true"/>
    </junctions>

    <report>
        <xml-validation value="never"/>
    </report>

</netconvertConfiguration>
-->

<net version="1.20" junctionCornerDetail="5" limitTurnSpeed="5.50" xmlns:xsi="http://www.w3.org/2001/XMLSchema-instance" xsi:noNamespaceSchemaLocation="http://sumo.dlr.de/xsd/net_file.xsd">

    <location netOffset="-402736.69,-5811586.07" convBoundary="0.00,0.00,694.86,866.77" origBoundary="13.498592,52.444569,13.580610,52.469965" projParameter="+proj=utm +zone=33 +ellps=WGS84 +datum=WGS84 +units=m +no_defs"/>

    <type id="highway.residential" priority="3" numLanes="1" speed="13.89" disallow="tram rail_urban rail rail_electric rail_fast ship container cable_car subway aircraft wheelchair scooter drone" oneway="0"/>
    <type id="highway.secondary" priority="11" numLanes="1" speed="27.78" disallow="tram rail_urban rail rail_electric rail_fast ship container cable_car subway aircraft wheelchair scooter drone" oneway="0"/>
    <type id="highway.service|railway.tram" priority="17" numLanes="1" speed="13.89" allow="pedestrian delivery bicycle tram" oneway="0"/>
    <type id="railway.tram" priority="17" numLanes="1" speed="13.89" allow="tram" oneway="1"/>

    <edge id="-10699605" from="31491897" to="94954640" priority="3" type="highway.residential">
        <lane id="-10699605_0" index="0" disallow="tram rail_urban rail rail_electric rail_fast ship container cable_car subway aircraft wheelchair scooter drone" speed="5.56" length="56.46" width="4.00" shape="629.76,161.79 672.95,158.29"/>
    </edge>
    <edge id="-10699691#0" from="1864873559" to="534411910" priority="3" type="highway.residential">
        <lane id="-10699691#0_0" index="0" disallow="rail_urban rail rail_electric rail_fast ship container cable_car subway aircraft wheelchair scooter drone" speed="13.89" length="21.50" shape="362.51,386.51 355.20,405.14"/>
    </edge>
    <edge id="-10699691#1" from="715816172" to="1864873559" priority="3" type="highway.residential">
        <lane id="-10699691#1_0" index="0" disallow="rail_urban rail rail_electric rail_fast ship container cable_car subway aircraft wheelchair scooter drone" speed="13.89" length="44.19" shape="375.70,344.26 362.62,386.19"/>
    </edge>
    <edge id="-10699691#2" from="1483958533" to="715816172" priority="3" type="highway.residential">
        <lane id="-10699691#2_0" index="0" disallow="rail_urban rail rail_electric rail_fast ship container cable_car subway aircraft wheelchair scooter drone" speed="13.89" length="18.62" shape="381.49,326.57 375.79,344.00"/>
    </edge>
    <edge id="-10699691#3" from="31491891" to="1483958533" priority="3" type="highway.residential">
        <lane id="-10699691#3_0" index="0" disallow="rail_urban rail rail_electric rail_fast ship container cable_car subway aircraft wheelchair scooter drone" speed="13.89" length="5.45" shape="383.28,321.46 381.56,326.34"/>
    </edge>
    <edge id="-148614162" from="2093889753" to="31491891" priority="3" type="highway.residential">
        <lane id="-148614162_0" index="0" disallow="rail_urban rail rail_electric rail_fast ship container cable_car subway aircraft wheelchair scooter drone" speed="13.89" length="62.73" shape="402.59,261.73 383.38,321.17"/>
    </edge>
    <edge id="-176031292" from="31491895" to="94958193" priority="3" type="highway.residential" shape="442.27,176.40 440.18,180.70 434.29,191.74">
        <lane id="-176031292_0" index="0" disallow="rail_urban rail rail_electric rail_fast ship container cable_car subway aircraft wheelchair scooter drone" speed="8.33" length="17.29" shape="440.65,183.21 435.77,192.37"/>
    </edge>
    <edge id="-25274116#0" from="2384599984" to="275330264" priority="3" type="highway.residential" shape="630.24,70.36 629.96,57.68 630.35,39.08 630.39,32.98 635.10,0.00">
        <lane id="-25274116#0_0" index="0" disallow="tram rail_urban rail rail_electric rail_fast ship container cable_car subway aircraft wheelchair scooter drone" speed="5.56" length="70.70" width="3.25" shape="628.61,70.27 628.33,57.68 628.73,39.05 628.77,32.86 633.49,-0.23"/>
    </edge>
    <edge id="-25274116#1" from="297024763" to="2384599984" priority="3" type="highway.residential" shape="628.90,95.87 629.18,90.53 630.24,70.36">
        <lane id="-25274116#1_0" index="0" disallow="tram rail_urban rail rail_electric rail_fast ship container cable_car subway aircraft wheelchair scooter drone" speed="5.56" length="25.55" width="3.25" shape="627.28,95.78 627.56,90.44 628.61,70.40"/>
    </edge>
    <edge id="-25274116#2" from="2384599998" to="297024763" priority="3" type="highway.residential" shape="624.07,145.19 625.08,134.85 628.90,95.87">
        <lane id="-25274116#2_0" index="0" disallow="tram rail_urban rail rail_electric rail_fast ship container cable_car subway aircraft wheelchair scooter drone" speed="5.56" length="49.56" width="3.25" shape="622.47,144.89 623.46,134.69 627.28,95.71"/>
    </edge>
    <edge id="-25274116#3" from="31491897" to="2384599998" priority="3" type="highway.residential" shape="621.84,164.44 623.30,151.87 624.07,145.19">
        <lane id="-25274116#3_0" index="0" disallow="tram rail_urban rail rail_electric rail_fast ship container cable_car subway aircraft wheelchair scooter drone" speed="5.56" length="19.38" width="3.25" shape="621.23,155.59 621.69,151.68 622.44,145.15"/>
    </edge>
    <edge id="-25795811" from="281368284" to="281368198" priority="3" type="highway.residential">
        <lane id="-25795811_0" index="0" disallow="tram rail_urban rail rail_electric rail_fast ship container cable_car subway aircraft wheelchair scooter drone" speed="13.89" length="101.75" shape="167.37,468.90 239.89,532.04"/>
    </edge>
    <edge id="-343029979" from="3499519865" to="31491895" priority="3" type="highway.residential">
        <lane id="-343029979_0" index="0" disallow="rail_urban rail rail_electric rail_fast ship container cable_car subway aircraft wheelchair scooter drone" speed="8.33" length="10.82" width="3.25" shape="446.84,168.15 446.77,168.34"/>
    </edge>
    <edge id="-671101960#0" from="7551651817" to="31491897" priority="3" type="highway.residential">
        <lane id="-671101960#0_0" index="0" disallow="tram rail_urban rail rail_electric rail_fast ship container cable_car subway aircraft wheelchair scooter drone" speed="5.56" length="41.83" width="4.00" shape="579.99,165.81 615.18,162.97"/>
    </edge>
    <edge id="-671101960#1" from="6314107956" to="7551651817" priority="3" type="highway.residential">
        <lane id="-671101960#1_0" index="0" disallow="tram rail_urban rail rail_electric rail_fast ship container cable_car subway aircraft wheelchair scooter drone" speed="5.56" length="64.72" width="4.00" shape="515.63,170.98 579.99,165.81"/>
    </edge>
    <edge id="-671101960#2" from="31491896" to="6314107956" priority="3" type="highway.residential">
        <lane id="-671101960#2_0" index="0" disallow="tram rail_urban rail rail_electric rail_fast ship container cable_car subway aircraft wheelchair scooter drone" speed="5.56" length="24.61" width="4.00" shape="490.95,172.90 515.34,171.01"/>
    </edge>
    <edge id="-671101960#3" from="31491895" to="31491896" priority="3" type="highway.residential">
        <lane id="-671101960#3_0" index="0" disallow="tram rail_urban rail rail_electric rail_fast ship container cable_car subway aircraft wheelchair scooter drone" speed="5.56" length="48.85" width="4.00" shape="451.20,174.12 491.04,172.89"/>
    </edge>
    <edge id="-901108202" from="94958193" to="1616941643" priority="3" type="highway.residential">
        <lane id="-901108202_0" index="0" disallow="rail_urban rail rail_electric rail_fast ship container cable_car subway aircraft wheelchair scooter drone" speed="8.33" length="15.30" shape="435.62,192.64 428.94,204.60"/>
    </edge>
    <edge id="-93704162#0" from="1616941654" to="2093889753" priority="3" type="highway.residential">
        <lane id="-93704162#0_0" index="0" disallow="rail_urban rail rail_electric rail_fast ship container cable_car subway aircraft wheelchair scooter drone" speed="8.33" length="4.53" shape="403.61,258.77 402.67,261.50"/>
    </edge>
    <edge id="-93704162#1" from="1616941643" to="1616941654" priority="3" type="highway.residential" shape="426.83,205.10 424.36,209.55 412.81,231.34 408.24,242.02 404.28,252.61 402.59,256.83">
        <lane id="-93704162#1_0" index="0" disallow="tram rail_urban rail rail_electric rail_fast ship container cable_car subway aircraft wheelchair scooter drone" speed="8.33" length="57.22" shape="427.51,207.17 425.77,210.31 414.25,232.03 409.73,242.62 405.77,253.19 404.61,256.08"/>
    </edge>
    <edge id="10699605" from="94954640" to="31491897" priority="3" type="highway.residential">
        <lane id="10699605_0" index="0" disallow="tram rail_urban rail rail_electric rail_fast ship container cable_car subway aircraft wheelchair scooter drone" speed="5.56" length="56.46" width="4.00" shape="673.27,162.28 630.08,165.78"/>
    </edge>
    <edge id="10699691#0" from="534411910" to="1864873559" priority="3" type="highway.residential">
        <lane id="10699691#0_0" index="0" disallow="rail_urban rail rail_electric rail_fast ship container cable_car subway aircraft wheelchair scooter drone" speed="13.89" length="21.50" shape="352.23,403.97 359.53,385.34"/>
    </edge>
    <edge id="10699691#1" from="1864873559" to="715816172" priority="3" type="highway.residential">
        <lane id="10699691#1_0" index="0" disallow="rail_urban rail rail_electric rail_fast ship container cable_car subway aircraft wheelchair scooter drone" speed="13.89" length="44.19" shape="359.57,385.23 372.65,343.30"/>
    </edge>
    <edge id="10699691#2" from="715816172" to="1483958533" priority="3" type="highway.residential">
        <lane id="10699691#2_0" index="0" disallow="rail_urban rail rail_electric rail_fast ship container cable_car subway aircraft wheelchair scooter drone" speed="13.89" length="18.62" shape="372.74,343.00 378.45,325.57"/>
    </edge>
    <edge id="10699691#3" from="1483958533" to="31491891" priority="3" type="highway.residential">
        <lane id="10699691#3_0" index="0" disallow="rail_urban rail rail_electric rail_fast ship container cable_car subway aircraft wheelchair scooter drone" speed="13.89" length="5.45" shape="378.55,325.28 380.27,320.39"/>
    </edge>
    <edge id="107509085#0" from="1616941622" to="94952360" priority="17" type="railway.tram" spreadType="center" shape="488.94,84.67 488.76,97.89 488.15,102.11 486.00,110.92 479.56,120.82 468.45,131.73">
        <lane id="107509085#0_0" index="0" allow="tram" speed="13.89" length="53.97" shape="488.92,86.17 488.76,97.89 488.15,102.11 486.00,110.92 479.56,120.82 469.47,130.73"/>
    </edge>
    <edge id="107509085#0#0" from="3522290081" to="94952356" priority="17" type="railway.tram" spreadType="center" shape="505.95,13.77 500.93,21.15 493.67,31.49 490.96,39.59 490.45,42.44">
        <lane id="107509085#0#0_0" index="0" allow="tram" speed="13.89" length="33.26" shape="505.95,13.77 500.93,21.15 493.67,31.49 490.96,39.59 490.70,41.05"/>
    </edge>
    <edge id="107509085#1" from="1616941643" to="1863260185" priority="17" type="railway.tram" spreadType="center" shape="428.48,206.02 426.29,210.22">
        <lane id="107509085#1_0" index="0" allow="tram" speed="13.89" length="5.69" shape="427.80,207.32 426.36,210.09"/>
    </edge>
    <edge id="107509085#1#0" from="94952360" to="1867118502" priority="17" type="railway.tram" spreadType="center" shape="468.45,131.73 463.81,136.70">
        <lane id="107509085#1#0_0" index="0" allow="tram" speed="13.89" length="7.30" shape="467.37,132.89 463.79,136.72"/>
    </edge>
    <edge id="107509085#1#1" from="585216917" to="3499519865" priority="17" type="railway.tram" spreadType="center" shape="455.94,145.68 454.38,147.67 451.41,153.77 448.94,161.76 447.82,166.80">
        <lane id="107509085#1#1_0" index="0" allow="tram" speed="13.89" length="23.61" shape="454.89,147.02 454.38,147.67 451.41,153.77 448.94,161.76 448.36,164.36"/>
    </edge>
    <edge id="107509089#0" from="1863260185" to="1616941654" priority="17" type="railway.tram" spreadType="center" shape="426.29,210.22 412.24,236.66 409.64,242.85 407.53,249.61 404.35,257.45">
        <lane id="107509089#0_0" index="0" allow="bus tram" speed="13.89" length="53.19" shape="426.22,210.35 412.24,236.66 409.64,242.85 407.53,249.61 404.86,256.18"/>
    </edge>
    <edge id="10855571#0" from="370883704" to="1882685625" priority="11" type="highway.secondary" spreadType="center">
        <lane id="10855571#0_0" index="0" disallow="pedestrian tram rail_urban rail rail_electric rail_fast ship container cable_car subway aircraft wheelchair scooter drone" speed="13.89" length="5.57" shape="235.31,572.88 235.18,573.03"/>
        <lane id="10855571#0_1" index="1" disallow="pedestrian tram rail_urban rail rail_electric rail_fast ship container cable_car subway aircraft wheelchair scooter drone" speed="13.89" length="5.57" shape="232.96,570.71 232.83,570.86"/>
    </edge>
    <edge id="10855571#1" from="1882685625" to="1863260213" priority="11" type="highway.secondary" spreadType="center" shape="235.58,570.24 234.23,571.60 232.02,573.85">
        <lane id="10855571#1_0" index="0" disallow="pedestrian tram rail_urban rail rail_electric rail_fast ship container cable_car subway aircraft wheelchair scooter drone" speed="13.89" length="6.42" shape="232.82,575.31 232.68,575.46"/>
        <lane id="10855571#1_1" index="1" disallow="pedestrian tram rail_urban rail rail_electric rail_fast ship container cable_car subway aircraft wheelchair scooter drone" speed="13.89" length="6.42" shape="230.55,573.07 230.41,573.21"/>
    </edge>
    <edge id="10855571#2" from="1863260213" to="1882685632" priority="11" type="highway.secondary" spreadType="center" shape="232.02,573.85 226.92,579.53 224.68,581.79">
        <lane id="10855571#2_0" index="0" disallow="pedestrian tram rail_urban rail rail_electric rail_fast ship container cable_car subway aircraft wheelchair scooter drone" speed="13.89" length="10.82" shape="228.78,579.93 228.64,580.07"/>
        <lane id="10855571#2_1" index="1" disallow="pedestrian tram rail_urban rail rail_electric rail_fast ship container cable_car subway aircraft wheelchair scooter drone" speed="13.89" length="10.82" shape="226.45,577.73 226.31,577.87"/>
    </edge>
    <edge id="10855571#3" from="1882685632" to="1882685638" priority="11" type="highway.secondary" spreadType="center">
        <lane id="10855571#3_0" index="0" disallow="pedestrian tram rail_urban rail rail_electric rail_fast ship container cable_car subway aircraft wheelchair scooter drone" speed="13.89" length="4.19" shape="224.28,584.66 224.14,584.81"/>
        <lane id="10855571#3_1" index="1" disallow="pedestrian tram rail_urban rail rail_electric rail_fast ship container cable_car subway aircraft wheelchair scooter drone" speed="13.89" length="4.19" shape="221.88,582.54 221.75,582.69"/>
    </edge>
    <edge id="10855571#4" from="1882685638" to="370884302" priority="11" type="highway.secondary" spreadType="center">
        <lane id="10855571#4_0" index="0" disallow="pedestrian tram rail_urban rail rail_electric rail_fast ship container cable_car subway aircraft wheelchair scooter drone" speed="13.89" length="2.08" shape="223.02,586.08 222.88,586.22"/>
        <lane id="10855571#4_1" index="1" disallow="pedestrian tram rail_urban rail rail_electric rail_fast ship container cable_car subway aircraft wheelchair scooter drone" speed="13.89" length="2.08" shape="220.68,583.89 220.54,584.04"/>
    </edge>
    <edge id="148614162" from="31491891" to="2093889753" priority="3" type="highway.residential">
        <lane id="148614162_0" index="0" disallow="rail_urban rail rail_electric rail_fast ship container cable_car subway aircraft wheelchair scooter drone" speed="13.89" length="62.73" shape="380.34,320.18 399.54,260.75"/>
    </edge>
    <edge id="175769903#0" from="1863122994" to="1882685644" priority="17" type="railway.tram" spreadType="center">
        <lane id="175769903#0_0" index="0" allow="tram" speed="13.89" length="4.41" shape="193.91,598.94 196.04,596.94"/>
    </edge>
    <edge id="175769903#1" from="1882685644" to="1882685635" priority="17" type="railway.tram" spreadType="center" shape="196.04,596.94 201.83,590.85 206.83,586.31 211.87,583.70 217.08,582.24">
        <lane id="175769903#1_0" index="0" allow="tram" speed="13.89" length="26.24" shape="196.04,596.94 201.83,590.85 206.83,586.31 211.87,583.70 213.16,583.34"/>
    </edge>
    <edge id="175769903#2" from="1882685635" to="1882685632" priority="17" type="railway.tram" spreadType="center" shape="217.08,582.24 218.49,581.86 224.68,581.79">
        <lane id="175769903#2_0" index="0" allow="tram" speed="13.89" length="7.64" shape="219.22,581.85 219.42,581.85"/>
    </edge>
    <edge id="175769903#3" from="1882685632" to="3088844295" priority="17" type="railway.tram" spreadType="center" shape="224.68,581.79 226.04,581.89 230.76,582.57 237.09,585.11 240.18,587.16 241.31,588.31">
        <lane id="175769903#3_0" index="0" allow="tram" speed="13.89" length="18.25" shape="231.36,582.81 237.09,585.11 240.18,587.16 241.21,588.20"/>
    </edge>
    <edge id="175769903#4" from="3088844295" to="1863231693" priority="17" type="railway.tram" spreadType="center">
        <lane id="175769903#4_0" index="0" allow="tram" speed="13.89" length="10.40" shape="241.42,588.42 247.67,594.69"/>
    </edge>
    <edge id="175769905#0" from="1863231695" to="3088844296" priority="17" type="highway.service|railway.tram" spreadType="center" shape="244.43,598.10 238.95,591.88 238.39,591.19">
        <lane id="175769905#0_0" index="0" allow="pedestrian" speed="13.89" length="10.34" width="2.00" shape="242.24,598.04 237.75,592.93 237.25,592.32"/>
        <lane id="175769905#0_1" index="1" allow="bus delivery bicycle tram" speed="13.89" length="10.34" shape="244.19,596.32 239.70,591.22 239.27,590.68"/>
    </edge>
    <edge id="175769905#1" from="3088844296" to="1863260213" priority="17" type="highway.service|railway.tram" spreadType="center" shape="238.39,591.20 236.05,588.34 234.51,585.50 233.19,582.31 231.87,578.37 231.16,575.17 231.03,573.95">
        <lane id="175769905#1_0" index="0" allow="pedestrian" speed="13.89" length="19.78" width="2.00" shape="237.05,592.09 234.72,589.24 233.06,586.19 231.69,582.87 231.63,582.69"/>
        <lane id="175769905#1_1" index="1" allow="bus delivery bicycle tram" speed="13.89" length="19.78" shape="239.07,590.45 236.88,587.78 235.41,585.07 234.31,582.39"/>
    </edge>
    <edge id="175769905#2" from="1863260213" to="1882685622" priority="17" type="highway.service|railway.tram" spreadType="center" shape="231.03,573.94 230.68,570.31 231.18,566.75 231.46,565.23">
        <lane id="175769905#2_0" index="0" allow="pedestrian" speed="13.89" length="9.01" width="2.00" shape="229.09,569.27 229.13,569.07"/>
        <lane id="175769905#2_1" index="1" allow="bus delivery bicycle tram" speed="13.89" length="9.01" shape="231.71,569.37 231.75,569.18"/>
    </edge>
    <edge id="175769905#3" from="1882685622" to="1882685597" priority="17" type="highway.service|railway.tram" spreadType="center" shape="231.46,565.20 232.06,562.37 233.34,559.07 237.03,553.16">
        <lane id="175769905#3_0" index="0" allow="pedestrian" speed="13.89" length="14.10" width="2.00" shape="232.69,557.09 235.59,552.44"/>
        <lane id="175769905#3_1" index="1" allow="bus delivery bicycle tram" speed="13.89" length="14.10" shape="235.38,557.69 237.80,553.82"/>
    </edge>
    <edge id="175769905#4" from="1882685597" to="1863231612" priority="17" type="highway.service|railway.tram" spreadType="center" shape="237.03,553.17 240.25,547.86">
        <lane id="175769905#4_0" index="0" allow="pedestrian" speed="13.89" length="7.40" width="2.00" shape="235.74,552.21 238.19,548.18"/>
        <lane id="175769905#4_1" index="1" allow="bus delivery bicycle tram" speed="13.89" length="7.40" shape="237.96,553.56 240.40,549.53"/>
    </edge>
    <edge id="175769910" from="1863231699" to="1863122994" priority="17" type="highway.service|railway.tram" spreadType="center" shape="148.15,648.40 192.08,599.29">
        <lane id="175769910_0" index="0" allow="pedestrian" speed="13.89" length="67.23" width="2.00" shape="146.96,647.33 189.97,599.25"/>
        <lane id="175769910_1" index="1" allow="bus delivery bicycle tram" speed="13.89" length="67.23" shape="148.90,649.07 191.91,600.98"/>
    </edge>
    <edge id="175769916#0" from="1863231695" to="3088844297" priority="17" type="railway.tram" spreadType="center" shape="245.18,597.44 241.14,592.91 238.83,590.92">
        <lane id="175769916#0_0" index="0" allow="tram" speed="13.89" length="9.12" shape="244.18,596.32 241.14,592.91 238.94,591.02"/>
    </edge>
    <edge id="175769916#1" from="3088844297" to="1882685638" priority="17" type="railway.tram" spreadType="center" shape="238.83,590.92 236.97,589.34 233.21,587.05 229.70,586.00 223.70,584.90 221.90,584.93">
        <lane id="175769916#1_0" index="0" allow="tram" speed="13.89" length="18.38" shape="238.72,590.82 236.97,589.34 233.21,587.05 229.70,586.00 228.59,585.80"/>
    </edge>
    <edge id="175769916#2" from="1882685638" to="1882685641" priority="17" type="railway.tram" spreadType="center">
        <lane id="175769916#2_0" index="0" allow="tram" speed="13.89" length="2.97" shape="219.30,584.95 219.10,584.95"/>
    </edge>
    <edge id="175769916#3" from="1882685641" to="1863231691" priority="17" type="railway.tram" spreadType="center" shape="219.27,584.95 217.22,585.20 211.77,587.05 207.42,589.73 200.85,594.56">
        <lane id="175769916#3_0" index="0" allow="tram" speed="13.89" length="20.94" shape="215.48,585.79 215.29,585.86"/>
    </edge>
    <edge id="175769919#0" from="1863122994" to="1863122991" priority="17" type="highway.service|railway.tram" spreadType="center" shape="192.10,599.26 195.13,596.10">
        <lane id="175769919#0_0" index="0" allow="pedestrian" speed="13.89" length="5.56" width="2.00" shape="191.97,597.08 193.87,595.10"/>
        <lane id="175769919#0_1" index="1" allow="delivery bicycle tram" speed="13.89" length="5.56" shape="193.85,598.88 195.75,596.90"/>
    </edge>
    <edge id="175769919#1" from="1863122991" to="8453482081" priority="17" type="highway.service|railway.tram" spreadType="center" shape="195.12,596.11 202.03,588.63 209.73,580.31">
        <lane id="175769919#1_0" index="0" allow="pedestrian" speed="13.89" length="23.38" width="2.00" shape="194.05,594.92 200.86,587.54 208.56,579.22"/>
        <lane id="175769919#1_1" index="1" allow="delivery bicycle tram" speed="13.89" length="23.38" shape="195.96,596.68 202.76,589.31 210.46,580.99"/>
    </edge>
    <edge id="175769919#2" from="8453482081" to="1882685629" priority="17" type="highway.service|railway.tram" spreadType="center" shape="209.73,580.31 212.57,577.24">
        <lane id="175769919#2_0" index="0" allow="pedestrian" speed="13.89" length="5.32" width="2.00" shape="208.56,579.22 209.16,578.57"/>
        <lane id="175769919#2_1" index="1" allow="delivery bicycle tram" speed="13.89" length="5.32" shape="210.46,580.99 211.06,580.34"/>
    </edge>
    <edge id="175769919#3" from="1882685629" to="1882685599" priority="17" type="highway.service|railway.tram" spreadType="center" shape="212.57,577.24 228.07,560.78">
        <lane id="175769919#3_0" index="0" allow="pedestrian" speed="13.89" length="22.85" width="2.00" shape="213.75,573.65 223.62,563.17"/>
        <lane id="175769919#3_1" index="1" allow="delivery bicycle tram" speed="13.89" length="22.85" shape="215.64,575.43 225.51,564.96"/>
    </edge>
    <edge id="175769919#4" from="1882685599" to="1863122982" priority="17" type="highway.service|railway.tram" spreadType="center" shape="228.07,560.78 236.18,552.19">
        <lane id="175769919#4_0" index="0" allow="pedestrian" speed="13.89" length="12.78" width="2.00" shape="230.31,556.08 234.91,551.20"/>
        <lane id="175769919#4_1" index="1" allow="delivery bicycle tram" speed="13.89" length="12.78" shape="232.20,557.87 236.80,552.98"/>
    </edge>
    <edge id="175769919#5" from="1863122982" to="1863231612" priority="17" type="highway.service|railway.tram" spreadType="center" shape="236.18,552.19 240.37,547.69">
        <lane id="175769919#5_0" index="0" allow="pedestrian" speed="13.89" length="7.31" width="2.00" shape="235.11,550.99 237.90,548.00"/>
        <lane id="175769919#5_1" index="1" allow="delivery bicycle tram" speed="13.89" length="7.31" shape="237.01,552.76 240.16,549.38"/>
    </edge>
    <edge id="175772156" from="1863231612" to="1863260212" priority="17" type="highway.service|railway.tram" spreadType="center" shape="240.35,547.72 265.77,518.30 277.70,504.51 287.48,493.22">
        <lane id="175772156_0" index="0" allow="pedestrian" speed="13.89" length="73.33" width="2.00" shape="239.82,545.88 264.56,517.25 276.49,503.46 286.18,492.28"/>
        <lane id="175772156_1" index="1" allow="bus delivery bicycle tram" speed="13.89" length="73.33" shape="241.79,547.58 266.53,518.95 278.46,505.16 288.15,493.98"/>
    </edge>
    <edge id="175772160" from="1864294635" to="297025226" priority="17" type="railway.tram" spreadType="center" shape="440.77,124.96 439.48,121.82">
        <lane id="175772160_0" index="0" allow="tram" speed="13.89" length="5.39" shape="441.18,125.95 440.03,123.16"/>
    </edge>
    <edge id="175772160#0" from="94952360" to="1867118502" priority="17" type="railway.tram" spreadType="center" shape="468.45,131.73 463.83,135.75 463.29,135.97">
        <lane id="175772160#0_0" index="0" allow="tram" speed="13.89" length="7.15" shape="467.25,132.77 463.83,135.75 463.29,135.97"/>
    </edge>
    <edge id="175772163#0" from="1863231610" to="1863122984" priority="17" type="railway.tram" spreadType="center">
        <lane id="175772163#0_0" index="0" allow="tram" speed="13.89" length="10.47" shape="245.68,548.57 239.77,555.14"/>
    </edge>
    <edge id="175772163#1" from="1863122984" to="1882685600" priority="17" type="railway.tram" spreadType="center">
        <lane id="175772163#1_0" index="0" allow="tram" speed="13.89" length="12.21" shape="239.62,555.30 234.50,560.56"/>
    </edge>
    <edge id="175772163#2" from="1882685600" to="370884433" priority="17" type="railway.tram" spreadType="center" shape="231.18,563.97 221.47,574.11 215.51,580.49">
        <lane id="175772163#2_0" index="0" allow="tram" speed="13.89" length="22.77" shape="227.83,567.47 221.47,574.11 217.75,578.09"/>
    </edge>
    <edge id="175772163#3" from="370884433" to="1863231691" priority="17" type="railway.tram" spreadType="center">
        <lane id="175772163#3_0" index="0" allow="tram" speed="13.89" length="20.32" shape="208.25,587.46 208.11,587.59"/>
    </edge>
    <edge id="175925594#0" from="1863231691" to="1863122992" priority="17" type="railway.tram" spreadType="center">
        <lane id="175925594#0_0" index="0" allow="tram" speed="13.89" length="4.94" shape="199.71,595.74 197.42,598.11"/>
    </edge>
    <edge id="175925594#1" from="1863122992" to="1006128113" priority="17" type="railway.tram" spreadType="center" shape="197.42,598.11 157.45,644.08 145.03,658.54 129.91,677.23 120.18,689.13 110.17,701.89 91.68,728.08 63.05,769.69 55.98,780.82 52.19,786.79 50.50,789.39 18.43,838.53 0.00,866.77">
        <lane id="175925594#1_0" index="0" allow="tram" speed="13.89" length="333.93" shape="197.42,598.11 157.45,644.08 145.03,658.54 129.91,677.23 120.18,689.13 110.17,701.89 91.68,728.08 63.05,769.69 55.98,780.82 52.19,786.79 50.50,789.39 18.43,838.53 0.00,866.77"/>
    </edge>
    <edge id="175925595#0" from="1864294635" to="297025226" priority="17" type="railway.tram" spreadType="center" shape="440.84,126.02 439.48,121.82">
        <lane id="175925595#0_0" index="0" allow="tram" speed="13.89" length="5.04" shape="440.85,126.06 439.93,123.20"/>
    </edge>
    <edge id="175925595#0#0" from="1863260184" to="1616941643" priority="17" type="railway.tram" spreadType="center" shape="422.65,208.85 425.26,204.23">
        <lane id="175925595#0#0_0" index="0" allow="tram" speed="13.89" length="6.13" shape="422.72,208.73 424.49,205.60"/>
    </edge>
    <edge id="175925595#1" from="3522290094" to="3522290083" priority="17" type="railway.tram" spreadType="center" shape="419.19,65.74 410.12,44.58 398.01,16.88">
        <lane id="175925595#1_0" index="0" allow="tram" speed="13.89" length="53.45" shape="418.60,64.36 410.12,44.58 398.01,16.88"/>
    </edge>