<?xml version="1.0" encoding="UTF-8"?>

<!-- generated on 2022-04-13 14:23:36 by Eclipse SUMO netedit Version v1_12_0+2118-9616b5bef7e
-->

<routes xmlns:xsi="http://www.w3.org/2001/XMLSchema-instance" xsi:noNamespaceSchemaLocation="http://sumo.dlr.de/xsd/routes_file.xsd">
    <!-- Vehicles, persons and containers (sorted by depart) -->
    <personFlow id="pf_0" begin="0.00" color="139,131,120" end="3600.00" personsPerHour="1800.00">
        <walk from="gneE2" busStop="busStop"/>
    </personFlow>
    <personFlow id="pf_1" begin="0.00" color="red" end="3600.00" personsPerHour="1800.00">
        <walk from="gneE2" busStop="busStop"/>
    </personFlow>
</routes>
