<?xml version="1.0" encoding="UTF-8"?>

<configuration xmlns:xsi="http://www.w3.org/2001/XMLSchema-instance" xsi:noNamespaceSchemaLocation="http://sumo-sim.org/xsd/netconvertConfiguration.xsd">

    <input>
        <node-files value="../three_split.nod.xml"/>
        <edge-files value="../three_split.edg.xml"/>
    </input>

    <output>
        <output-file value="three_split.net.xml"/>
    </output>

</configuration>
