<?xml version="1.0" encoding="UTF-8"?>

<!-- generated on Fri 31 Jan 2020 02:16:46 PM CET by Eclipse SUMO netedit Version v1_4_0+0886-4dbe3cf
<configuration xmlns:xsi="http://www.w3.org/2001/XMLSchema-instance" xsi:noNamespaceSchemaLocation="http://sumo.dlr.de/xsd/netconvertConfiguration.xsd">

    <input>
        <new value="true"/>
    </input>

    <output>
        <plain-output-prefix value="/scr2/debug/joinFail/bolten_niehler/input_plain"/>
    </output>

    <processing>
        <offset.disable-normalization value="true"/>
    </processing>

    <report>
        <aggregate-warnings value="5"/>
    </report>

</configuration>
-->

<edges version="1.3" xmlns:xsi="http://www.w3.org/2001/XMLSchema-instance" xsi:noNamespaceSchemaLocation="http://sumo.dlr.de/xsd/edges_file.xsd">
    <edge id="gneE0" from="gneJ0" to="gneJ1" priority="-1" numLanes="2" speed="13.89" spreadType="center"/>
    <edge id="gneE1" from="gneJ1" to="gneJ2" priority="-1" numLanes="2" speed="13.89" spreadType="center"/>
    <edge id="gneE2" from="gneJ1" to="gneJ3" priority="-1" numLanes="2" speed="13.89" shape="100.00,0.00 140.23,0.13 149.76,2.97 156.77,9.03" spreadType="center"/>
</edges>
