<?xml version="1.0" encoding="UTF-8"?>

<!-- generated on 2022-03-08 10:04:27 by Eclipse SUMO netedit Version v1_12_0+1216-22d05a4cfcc
-->

<routes xmlns:xsi="http://www.w3.org/2001/XMLSchema-instance" xsi:noNamespaceSchemaLocation="http://sumo.dlr.de/xsd/routes_file.xsd">
    <!-- Vehicles, persons and containers (sorted by depart) -->
    <vehicle id="vehicle_2" depart="20.00" color="9,43,231">
        <route edges="gneE2 gneE4 gneE5" color="cyan"/>
    </vehicle>
    <vehicle id="vehicle_3" depart="20.00" color="20,30,40">
        <route edges="gneE2 gneE4 gneE5" color="cyan"/>
    </vehicle>
    <vehicle id="vehicle_4" depart="20.00" color="magenta">
        <route edges="gneE2 gneE4 gneE5" color="cyan"/>
    </vehicle>
</routes>
