<?xml version="1.0" encoding="UTF-8"?>

<!-- generated on Wed 25 Apr 2018 06:16:38 PM CEST by Eclipse SUMO netedit Version 26f4280
<configuration xmlns:xsi="http://www.w3.org/2001/XMLSchema-instance" xsi:noNamespaceSchemaLocation="http://sumo.dlr.de/xsd/netconvertConfiguration.xsd">

    <input>
        <sumo-net-file value="/scr1/sumo/tests/sumo/sublane_model/wide_lane_split2/net.net.xml"/>
    </input>

    <output>
        <output-file value="/scr1/sumo/tests/sumo/sublane_model/wide_lane_split2/net.net.xml"/>
        <plain-output-prefix value="/scr1/sumo/tests/netconvert/inner_lanes/changeWidth_split2/input_plain"/>
    </output>

    <processing>
        <no-turnarounds value="true"/>
        <offset.disable-normalization value="true"/>
        <lefthand value="false"/>
        <junctions.corner-detail value="0"/>
        <rectangular-lane-cut value="false"/>
        <walkingareas value="false"/>
    </processing>

</configuration>
-->

<nodes version="0.27" xmlns:xsi="http://www.w3.org/2001/XMLSchema-instance" xsi:noNamespaceSchemaLocation="http://sumo.dlr.de/xsd/nodes_file.xsd">
    <location netOffset="100.00,100.00" convBoundary="0.00,100.00,100.00,100.00" origBoundary="-10000000000.00,-10000000000.00,10000000000.00,10000000000.00" projParameter="!"/>

    <node id="C" x="100.00" y="100.00" type="dead_end"/>
    <node id="W" x="0.00" y="100.00" type="dead_end"/>
    <node id="gneJ0" x="46.00" y="100.00" type="priority"/>
</nodes>
