<?xml version="1.0" encoding="UTF-8"?>

<!-- generated on 2021-06-30 15:32:27 by Eclipse SUMO netedit Version v1_9_2+0768-4171a24
<configuration xmlns:xsi="http://www.w3.org/2001/XMLSchema-instance" xsi:noNamespaceSchemaLocation="http://sumo.dlr.de/xsd/netconvertConfiguration.xsd">

    <input>
        <sumo-net-file value="input_net2.net.xml"/>
    </input>

    <output>
        <output-file value="input_net2.net.xml"/>
    </output>

    <processing>
        <geometry.min-radius.fix.railways value="false"/>
        <geometry.max-grade.fix value="false"/>
        <offset.disable-normalization value="true"/>
        <lefthand value="false"/>
    </processing>

    <junctions>
        <no-turnarounds value="true"/>
        <junctions.corner-detail value="5"/>
        <junctions.limit-turn-speed value="5.5"/>
        <rectangular-lane-cut value="false"/>
    </junctions>

    <pedestrian>
        <walkingareas value="false"/>
    </pedestrian>

    <report>
        <aggregate-warnings value="5"/>
    </report>

</configuration>
-->

<net version="1.9" junctionCornerDetail="5" limitTurnSpeed="5.50" xmlns:xsi="http://www.w3.org/2001/XMLSchema-instance" xsi:noNamespaceSchemaLocation="http://sumo.dlr.de/xsd/net_file.xsd">

    <location netOffset="0.00,0.00" convBoundary="10.00,40.00,30.00,60.00" origBoundary="-10000000000.00,-10000000000.00,10000000000.00,10000000000.00" projParameter="!"/>

    <edge id=":gneJ1_0" function="internal">
        <lane id=":gneJ1_0_0" index="0" disallow="pedestrian" speed="13.89" length="0.10" shape="20.00,41.60 20.00,41.60"/>
    </edge>
    <edge id=":gneJ1_1" function="internal">
        <lane id=":gneJ1_1_0" index="0" disallow="pedestrian" speed="13.89" length="0.10" shape="20.00,38.40 20.00,38.40"/>
    </edge>
    <edge id=":gneJ4_0" function="internal">
        <lane id=":gneJ4_0_0" index="0" disallow="pedestrian" speed="13.89" length="0.10" shape="28.40,50.00 28.40,50.00"/>
    </edge>
    <edge id=":gneJ4_1" function="internal">
        <lane id=":gneJ4_1_0" index="0" disallow="pedestrian" speed="13.89" length="0.10" shape="31.60,50.00 31.60,50.00"/>
    </edge>

    <edge id="-a" from="gneJ1" to="gneJ0" priority="-1">
        <lane id="-a_0" index="0" allow="pedestrian" speed="13.89" length="10.00" width="2.00" shape="20.00,44.20 10.00,44.20"/>
        <lane id="-a_1" index="1" disallow="pedestrian" speed="13.89" length="10.00" shape="20.00,41.60 10.00,41.60"/>
    </edge>
    <edge id="-b" from="gneJ4" to="gneJ1" priority="-1" shape="30.00,50.00 30.00,40.00 20.00,40.00">
        <lane id="-b_0" index="0" allow="pedestrian" speed="13.89" length="14.20" width="2.00" shape="25.80,50.00 25.80,44.20 20.00,44.20"/>
        <lane id="-b_1" index="1" disallow="pedestrian" speed="13.89" length="14.20" shape="28.40,50.00 28.40,41.60 20.00,41.60"/>
    </edge>
    <edge id="-c" from="gneJ5" to="gneJ4" priority="-1">
        <lane id="-c_0" index="0" allow="pedestrian" speed="13.89" length="10.00" width="2.00" shape="25.80,60.00 25.80,50.00"/>
        <lane id="-c_1" index="1" disallow="pedestrian" speed="13.89" length="10.00" shape="28.40,60.00 28.40,50.00"/>
    </edge>
    <edge id="a" from="gneJ0" to="gneJ1" priority="-1">
        <lane id="a_0" index="0" allow="pedestrian" speed="13.89" length="10.00" width="2.00" shape="10.00,35.80 20.00,35.80"/>
        <lane id="a_1" index="1" disallow="pedestrian" speed="13.89" length="10.00" shape="10.00,38.40 20.00,38.40"/>
    </edge>
    <edge id="b" from="gneJ1" to="gneJ4" priority="-1" shape="20.00,40.00 30.00,40.00 30.00,50.00">
        <lane id="b_0" index="0" allow="pedestrian" speed="13.89" length="25.80" width="2.00" shape="20.00,35.80 34.20,35.80 34.20,50.00"/>
        <lane id="b_1" index="1" disallow="pedestrian" speed="13.89" length="25.80" shape="20.00,38.40 31.60,38.40 31.60,50.00"/>
    </edge>
    <edge id="c" from="gneJ4" to="gneJ5" priority="-1">
        <lane id="c_0" index="0" allow="pedestrian" speed="13.89" length="10.00" width="2.00" shape="34.20,50.00 34.20,60.00"/>
        <lane id="c_1" index="1" disallow="pedestrian" speed="13.89" length="10.00" shape="31.60,50.00 31.60,60.00"/>
    </edge>

    <junction id="gneJ0" type="dead_end" x="10.00" y="40.00" incLanes="-a_0 -a_1" intLanes="" shape="10.00,40.00 10.00,45.20 10.00,40.00"/>
    <junction id="gneJ1" type="priority" x="20.00" y="40.00" incLanes="-b_0 -b_1 a_0 a_1" intLanes=":gneJ1_0_0 :gneJ1_1_0" shape="20.00,45.20 20.00,34.80 20.00,45.20">
        <request index="0" response="00" foes="00" cont="0"/>
        <request index="1" response="00" foes="00" cont="0"/>
    </junction>
    <junction id="gneJ4" type="priority" x="30.00" y="50.00" incLanes="-c_0 -c_1 b_0 b_1" intLanes=":gneJ4_0_0 :gneJ4_1_0" shape="24.80,50.00 35.20,50.00 24.80,50.00">
        <request index="0" response="00" foes="00" cont="0"/>
        <request index="1" response="00" foes="00" cont="0"/>
    </junction>
    <junction id="gneJ5" type="dead_end" x="30.00" y="60.00" incLanes="c_0 c_1" intLanes="" shape="30.00,60.00 35.20,60.00 30.00,60.00"/>

    <connection from="-b" to="-a" fromLane="1" toLane="1" via=":gneJ1_0_0" dir="s" state="M"/>
    <connection from="-c" to="-b" fromLane="1" toLane="1" via=":gneJ4_0_0" dir="s" state="M"/>
    <connection from="a" to="b" fromLane="1" toLane="1" via=":gneJ1_1_0" dir="s" state="M"/>
    <connection from="b" to="c" fromLane="1" toLane="1" via=":gneJ4_1_0" dir="s" state="M"/>

    <connection from=":gneJ1_0" to="-a" fromLane="0" toLane="1" dir="s" state="M"/>
    <connection from=":gneJ1_1" to="b" fromLane="0" toLane="1" dir="s" state="M"/>
    <connection from=":gneJ4_0" to="-b" fromLane="0" toLane="1" dir="s" state="M"/>
    <connection from=":gneJ4_1" to="c" fromLane="0" toLane="1" dir="s" state="M"/>

</net>
