<?xml version="1.0" encoding="UTF-8"?>

<!-- generated on 2024-08-02 11:11:58 by Eclipse SUMO sumo Version v1_20_0+0500-a0f33926ef7
This data file and the accompanying materials
are made available under the terms of the Eclipse Public License v2.0
which accompanies this distribution, and is available at
http://www.eclipse.org/legal/epl-v20.html
This file may also be made available under the following Secondary
Licenses when the conditions for such availability set forth in the Eclipse
Public License 2.0 are satisfied: GNU General Public License, version 2
or later which is available at
https://www.gnu.org/licenses/old-licenses/gpl-2.0-standalone.html
SPDX-License-Identifier: EPL-2.0 OR GPL-2.0-or-later
<configuration xmlns:xsi="http://www.w3.org/2001/XMLSchema-instance" xsi:noNamespaceSchemaLocation="http://sumo.dlr.de/xsd/sumoConfiguration.xsd">

    <input>
        <net-file value="net.net.xml"/>
        <route-files value="input_routes.rou.xml"/>
    </input>

    <output>
        <write-license value="true"/>
        <tripinfo-output value="tripinfos.xml"/>
        <railsignal-block-output value="railsignal_blocks.xml"/>
    </output>

    <processing>
        <default.speeddev value="0"/>
    </processing>

    <report>
        <xml-validation value="never"/>
        <duration-log.disable value="true"/>
        <no-step-log value="true"/>
    </report>

</configuration>
-->

<railsignal-block-output>
    <railSignal id="A">
        <link linkIndex="0" from="a_0" to=":A_0_0">
            <driveWay id="A.0" edges="b c d e f g h j k l -l -k -j -h -g -f -e -d -c">
                <forward lanes=":A_0_0 b_0 :B_1_0 c_0 :C_1_0 d_0"/>
                <bidi lanes="-c_0 :C_0_0 -d_0 :D_0_0 -e_0 :E_0_0 -f_0 :F_0_0 -g_0 :G_0_0 -h_0 :H_0_0 -j_0 :J_0_0 -k_0 :K_0_0 -l_0 l_0 :K_1_0 k_0 :J_1_0 j_0 :H_1_0 h_0 :G_1_0 g_0 :F_1_0 f_0 :E_1_0 e_0 :D_1_0 d_0 :C_1_0 c_0"/>
                <flank lanes=""/>
                <protectingSwitches links=""/>
                <conflictLinks signals=""/>
                <foes driveWays="A.0 D.0 D.1.0"/>
            </driveWay>
        </link>
    </railSignal>
    <railSignal id="D">
        <link linkIndex="0" from="-e_0" to=":D_0_0">
            <driveWay id="D.1" edges="-d -c -b -a">
                <forward lanes=":D_0_0 -d_0 :C_0_0 -c_0 :B_0_0 -b_0 :-A_0_0 -a_0"/>
                <bidi lanes=":D_1_0 d_0 :C_1_0 c_0"/>
                <flank lanes=":B_1_0 b_0 :A_0_0"/>
                <protectingSwitches links=""/>
                <conflictLinks signals="A_0"/>
                <foes driveWays="A.0 D.1"/>
            </driveWay>
            <subDriveWay id="D.1.0" edges="-d -c">
                <forward lanes=":D_0_0 -d_0 :C_0_0 -c_0"/>
            </subDriveWay>
        </link>
        <link linkIndex="1" from="d_0" to=":D_1_0">
            <driveWay id="D.0" edges="e f g h j k l -l -k -j -h -g -f -e -d -c">
                <forward lanes=":D_1_0 e_0 :E_1_0 f_0 :F_1_0 g_0 :G_1_0 h_0 :H_1_0 j_0 :J_1_0 k_0 :K_1_0 l_0 :L_0_0 -l_0 :K_0_0 -k_0 :J_0_0 -j_0 :H_0_0 -h_0 :G_0_0 -g_0 :F_0_0 -f_0 :E_0_0 -e_0"/>
                <bidi lanes=":D_0_0 -e_0 :E_0_0 -f_0 :F_0_0 -g_0 :G_0_0 -h_0 :H_0_0 -j_0 :J_0_0 -k_0 :K_0_0 -l_0 l_0 :K_1_0 k_0 :J_1_0 j_0 :H_1_0 h_0 :G_1_0 g_0 :F_1_0 f_0 :E_1_0 e_0 :D_1_0 d_0 :C_1_0 c_0"/>
                <flank lanes=":B_1_0 b_0 :A_0_0"/>
                <protectingSwitches links=""/>
                <conflictLinks signals="A_0"/>
                <foes driveWays="A.0 D.0"/>
            </driveWay>
        </link>
    </railSignal>
    <departJunction id="gneJ0">
        <driveWay id="gneJ0.d0" edges="a">
            <forward lanes="a_0"/>
            <bidi lanes=""/>
            <flank lanes=""/>
            <protectingSwitches links=""/>
            <conflictLinks signals=""/>
            <foes driveWays="gneJ0.d0"/>
        </driveWay>
    </departJunction>
</railsignal-block-output>
