<?xml version="1.0" encoding="UTF-8"?>

<!-- generated on Tue Nov 17 07:16:02 2020 by Eclipse SUMO sumo Version v1_7_0+1040-d9283c0be9
This data file and the accompanying materials
are made available under the terms of the Eclipse Public License v2.0
which accompanies this distribution, and is available at
http://www.eclipse.org/legal/epl-v20.html
SPDX-License-Identifier: EPL-2.0
<configuration xmlns:xsi="http://www.w3.org/2001/XMLSchema-instance" xsi:noNamespaceSchemaLocation="http://sumo.dlr.de/xsd/sumoConfiguration.xsd">

    <input>
        <net-file value="net.net.xml"/>
        <route-files value="input_routes.rou.xml"/>
    </input>

    <output>
        <write-license value="true"/>
        <tripinfo-output value="tripinfos.xml"/>
        <railsignal-block-output value="railsignal_blocks.xml"/>
    </output>

    <processing>
        <default.speeddev value="0"/>
        <pedestrian.model value="nonInteracting"/>
    </processing>

    <report>
        <xml-validation value="never"/>
        <xml-validation.routes value="never"/>
        <duration-log.disable value="true"/>
        <no-step-log value="true"/>
    </report>

    <mesoscopic>
        <mesosim value="true"/>
    </mesoscopic>

</configuration>
-->

<railsignal-block-output>
    <railSignal id="A">
        <link linkIndex="0" from="a_0" to="b_0">
            <driveWay edges="b c d e f g h j k l">
                <forward lanes="b_0 c_0 d_0"/>
                <bidi lanes="-c_0 -d_0 -e_0 -f_0 -g_0 -h_0 -j_0 -k_0 -l_0"/>
                <flank lanes=""/>
                <protectingSwitches links=""/>
                <conflictLinks signals=""/>
            </driveWay>
        </link>
    </railSignal>
    <railSignal id="D">
        <link linkIndex="0" from="-e_0" to="-d_0">
            <driveWay edges="-d -c -b -a">
                <forward lanes="-d_0 -c_0 -b_0 -a_0"/>
                <bidi lanes="d_0 c_0"/>
                <flank lanes="b_0"/>
                <protectingSwitches links=""/>
                <conflictLinks signals="A_0"/>
            </driveWay>
        </link>
        <link linkIndex="1" from="d_0" to="e_0">
            <driveWay edges="e f g h j k l">
                <forward lanes="e_0 f_0 g_0 h_0 j_0 k_0 l_0"/>
                <bidi lanes="-e_0 -f_0 -g_0 -h_0 -j_0 -k_0 -l_0"/>
                <flank lanes=""/>
                <protectingSwitches links=""/>
                <conflictLinks signals=""/>
            </driveWay>
        </link>
    </railSignal>
</railsignal-block-output>
