<?xml version="1.0" encoding="UTF-8"?>

<!-- generated on 2021-08-30 15:07:21 by Eclipse SUMO netedit Version v1_10_0+0381-df20e58b5b
-->

<additional xmlns:xsi="http://www.w3.org/2001/XMLSchema-instance" xsi:noNamespaceSchemaLocation="http://sumo.dlr.de/xsd/additional_file.xsd">
    <trainStop id="trainStopA" name="trainStop" lane="gneE0_0" startPos="5.00" endPos="10.00" friendlyPos="true" lines="line1 line2" personCapacity="50" parkingLength="12.00">
        <param key="KeyA1" value="valueA1"/>
        <param key="KeyA2" value="valueA3"/>
        <param key="KeyA3" value="valueA2"/>
    </trainStop>
    <trainStop id="trainStopB" name="trainStop" lane="gneE0_0" startPos="15.00" endPos="20.00" lines="line3 line4" personCapacity="50" parkingLength="15.00">
        <param key="KeyB1" value="valueB1"/>
        <param key="KeyB2" value="valueB3"/>
        <param key="KeyB3" value="valueB2"/>
    </trainStop>
</additional>
