<?xml version="1.0" encoding="UTF-8"?>

<!-- generated on Mon Feb 17 15:30:49 2020 by Eclipse SUMO netconvert Version v1_5_0+0130-ceb0a01
This data file and the accompanying materials
are made available under the terms of the Eclipse Public License v2.0
which accompanies this distribution, and is available at
http://www.eclipse.org/legal/epl-v20.html
SPDX-License-Identifier: EPL-2.0
<configuration xmlns:xsi="http://www.w3.org/2001/XMLSchema-instance" xsi:noNamespaceSchemaLocation="http://sumo.dlr.de/xsd/netconvertConfiguration.xsd">

    <input>
        <node-files value="input_nodes.nod.xml"/>
        <edge-files value="input_edges.edg.xml"/>
    </input>

    <output>
        <write-license value="true"/>
        <output-file value="net.net.xml"/>
    </output>

    <report>
        <xml-validation value="never"/>
        <aggregate-warnings value="5"/>
    </report>

</configuration>
-->

<net version="1.6" junctionCornerDetail="5" limitTurnSpeed="5.50" xmlns:xsi="http://www.w3.org/2001/XMLSchema-instance" xsi:noNamespaceSchemaLocation="http://sumo.dlr.de/xsd/net_file.xsd">

    <location netOffset="0.00,0.00" convBoundary="0.00,0.00,100.00,0.00" origBoundary="0.00,0.00,100.00,0.00" projParameter="!"/>

    <edge id=":1.10_0" function="internal">
        <lane id=":1.10_0_0" index="0" speed="13.89" length="0.10" shape="10.00,-1.60 10.00,-1.60"/>
    </edge>
    <edge id=":1.50_0" function="internal">
        <lane id=":1.50_0_0" index="0" speed="13.89" length="0.10" shape="50.00,-1.60 50.00,-1.60"/>
    </edge>

    <edge id="a" from="0" to="1.10" priority="-1">
        <lane id="a_0" index="0" speed="13.89" length="10.00" shape="0.00,-1.60 10.00,-1.60"/>
    </edge>
    <edge id="c" from="1.10" to="1.50" priority="-1">
        <lane id="c_0" index="0" speed="13.89" length="40.00" shape="10.00,-1.60 50.00,-1.60"/>
    </edge>
    <edge id="d" from="1.50" to="1" priority="-1">
        <lane id="d_0" index="0" speed="13.89" length="50.00" shape="50.00,-1.60 100.00,-1.60"/>
    </edge>

    <junction id="0" type="dead_end" x="0.00" y="0.00" incLanes="" intLanes="" shape="0.00,0.00 0.00,-3.20"/>
    <junction id="1" type="dead_end" x="100.00" y="0.00" incLanes="d_0" intLanes="" shape="100.00,-3.20 100.00,0.00"/>
    <junction id="1.10" type="priority" x="10.00" y="0.00" incLanes="a_0" intLanes=":1.10_0_0" shape="10.00,0.00 10.00,-3.20 10.00,0.00">
        <request index="0" response="0" foes="0" cont="0"/>
    </junction>
    <junction id="1.50" type="priority" x="50.00" y="0.00" incLanes="c_0" intLanes=":1.50_0_0" shape="50.00,0.00 50.00,-3.20 50.00,0.00">
        <request index="0" response="0" foes="0" cont="0"/>
    </junction>

    <connection from="a" to="c" fromLane="0" toLane="0" via=":1.10_0_0" dir="s" state="M"/>
    <connection from="c" to="d" fromLane="0" toLane="0" via=":1.50_0_0" dir="s" state="M"/>

    <connection from=":1.10_0" to="c" fromLane="0" toLane="0" dir="s" state="M"/>
    <connection from=":1.50_0" to="d" fromLane="0" toLane="0" dir="s" state="M"/>

</net>
