<?xml version="1.0" encoding="UTF-8"?>

<!-- generated on 2022-10-25 16:45:30 by Eclipse SUMO netedit Version v1_14_1+1940-4d5459b920b
-->

<routes xmlns:xsi="http://www.w3.org/2001/XMLSchema-instance" xsi:noNamespaceSchemaLocation="http://sumo.dlr.de/xsd/routes_file.xsd">
    <!-- Vehicles, persons and containers (sorted by depart) -->
    <flow id="flow_0" begin="0.00" from="gneE0" to="gneE1" end="36.00" number="18">
        <stop chargingStation="chargingStation"/>
    </flow>
    <flow id="flow_1" begin="0.00" from="gneE0" to="gneE1" end="36.00" number="18">
        <stop chargingStation="chargingStation" onDemand="1"/>
    </flow>
</routes>
