<routes>
   <flow id="l" begin="0" period="1" no="11">
      <route edges="beg beg2left left left2end end rend"/>
   </flow>
   <flow id="m" begin="5" period="1" no="11">
      <route edges="beg middle end rend"/>
   </flow>
</routes>
