<routes xmlns:xsi="http://www.w3.org/2001/XMLSchema-instance" xsi:noNamespaceSchemaLocation="http://sumo.dlr.de/xsd/routes_file.xsd">
    <vType id="DEFAULT_VEHTYPE" sigma="0"/>

	<trip id="disconnected" depart="10" fromTaz="2" toTaz="1"/>
	<trip id="disconnected2" depart="20" fromTaz="2" toTaz="1"/>
</routes>
