<?xml version="1.0" encoding="UTF-8"?>

<!-- generated on 03.08.2018 11:13:10 by Eclipse SUMO netedit Version 7115a4b324
<configuration xmlns:xsi="http://www.w3.org/2001/XMLSchema-instance" xsi:noNamespaceSchemaLocation="http://sumo.dlr.de/xsd/netconvertConfiguration.xsd">

    <input>
        <sumo-additionals-file value="C:/Users/SUMO-Test/.texttest/tmp/netedit.gui.10_from_03Aug091602.1760/netedit.gui/additionalElements/e2detector/inspect_selection\input_additionals.add.xml"/>
        <sumo-net-file value="C:/Users/SUMO-Test/.texttest/tmp/netedit.gui.10_from_03Aug091602.1760/netedit.gui/additionalElements/e2detector/inspect_selection\input_net.net.xml"/>
    </input>

    <output>
        <additionals-output value="C:/Users/SUMO-Test/.texttest/tmp/netedit.gui.10_from_03Aug091602.1760/netedit.gui/additionalElements/e2detector/inspect_selection\additionals.xml"/>
        <shapes-output value="C:/Users/SUMO-Test/.texttest/tmp/netedit.gui.10_from_03Aug091602.1760/netedit.gui/additionalElements/e2detector/inspect_selection\shapes.xml"/>
        <output-file value="C:/Users/SUMO-Test/.texttest/tmp/netedit.gui.10_from_03Aug091602.1760/netedit.gui/additionalElements/e2detector/inspect_selection\net.net.xml"/>
    </output>

    <processing>
        <no-turnarounds value="true"/>
        <offset.disable-normalization value="true"/>
        <lefthand value="false"/>
        <junctions.corner-detail value="5"/>
        <rectangular-lane-cut value="false"/>
        <walkingareas value="false"/>
    </processing>

    <visualisation>
        <gui-settings-file value="C:/Users/SUMO-Test/.texttest/tmp/netedit.gui.10_from_03Aug091602.1760/netedit.gui/additionalElements/e2detector/inspect_selection\gui-settings.xml"/>
        <window-size value="700,500"/>
        <window-pos value="50,50"/>
        <gui-testing value="true"/>
        <gui-testing-debug value="true"/>
    </visualisation>

    <report>
        <no-warnings value="true"/>
        <error-log value="C:/Users/SUMO-Test/.texttest/tmp/netedit.gui.10_from_03Aug091602.1760/netedit.gui/additionalElements/e2detector/inspect_selection\log.txt"/>
    </report>

</configuration>
-->

<additional xmlns:xsi="http://www.w3.org/2001/XMLSchema-instance" xsi:noNamespaceSchemaLocation="http://sumo.dlr.de/xsd/additional_file.xsd">
    <e2Detector id="E2_A" name="customName" length="7.00" vTypes="Type1 Type2 Type3" lane="gneE0_0" pos="5.00" freq="50.00" file="myOwnFilename.txt" timeThreshold="11.30" speedThreshold="4.00" jamThreshold="8.50" friendlyPos="1"/>
    <e2Detector id="E2_B" name="customName" length="7.00" vTypes="Type1 Type2 Type3" lane="gneE0_0" pos="15.00" freq="50.00" file="myOwnFilename.txt" timeThreshold="11.30" speedThreshold="4.00" jamThreshold="8.50" friendlyPos="1"/>
</additional>
