<?xml version="1.0" encoding="UTF-8"?>

<!-- generated on 07.08.2018 15:36:27 by Eclipse SUMO netedit Version 7115a4b324
<configuration xmlns:xsi="http://www.w3.org/2001/XMLSchema-instance" xsi:noNamespaceSchemaLocation="http://sumo.dlr.de/xsd/netconvertConfiguration.xsd">

    <input>
        <sumo-net-file value="C:/Users/SUMO-Test/.texttest/tmp/netedit.gui.07Aug153159.1576/netedit.gui/additionalElements/parkingspace/inspect_generic\input_net.net.xml"/>
    </input>

    <output>
        <additionals-output value="C:/Users/SUMO-Test/.texttest/tmp/netedit.gui.07Aug153159.1576/netedit.gui/additionalElements/parkingspace/inspect_generic\additionals.xml"/>
        <shapes-output value="C:/Users/SUMO-Test/.texttest/tmp/netedit.gui.07Aug153159.1576/netedit.gui/additionalElements/parkingspace/inspect_generic\shapes.xml"/>
        <output-file value="C:/Users/SUMO-Test/.texttest/tmp/netedit.gui.07Aug153159.1576/netedit.gui/additionalElements/parkingspace/inspect_generic\net.net.xml"/>
    </output>

    <processing>
        <no-turnarounds value="true"/>
        <offset.disable-normalization value="true"/>
        <lefthand value="false"/>
        <junctions.corner-detail value="5"/>
        <rectangular-lane-cut value="false"/>
        <walkingareas value="false"/>
    </processing>

    <visualisation>
        <gui-settings-file value="C:/Users/SUMO-Test/.texttest/tmp/netedit.gui.07Aug153159.1576/netedit.gui/additionalElements/parkingspace/inspect_generic\gui-settings.xml"/>
        <window-size value="700,500"/>
        <window-pos value="50,50"/>
        <gui-testing value="true"/>
        <gui-testing-debug value="true"/>
    </visualisation>

    <report>
        <no-warnings value="true"/>
        <error-log value="C:/Users/SUMO-Test/.texttest/tmp/netedit.gui.07Aug153159.1576/netedit.gui/additionalElements/parkingspace/inspect_generic\log.txt"/>
    </report>

</configuration>
-->

<additional xmlns:xsi="http://www.w3.org/2001/XMLSchema-instance" xsi:noNamespaceSchemaLocation="http://sumo.dlr.de/xsd/additional_file.xsd">
    <parkingArea id="parkingArea_gneE2_0_0" lane="gneE2_0" startPos="17.00" endPos="27.00">
        <space x="17.00" y="2.00">
            <param key="keyFinal1" value="value1"/>
            <param key="keyFinal2" value="value2"/>
            <param key="keyFinal3" value="value3"/>
        </space>
    </parkingArea>
</additional>
