<?xml version="1.0" encoding="UTF-8"?>

<!-- generated on 2023-01-26 09:21:36 by Eclipse SUMO netconvert Version v1_15_0+1955-2a740b567ac
<configuration xmlns:xsi="http://www.w3.org/2001/XMLSchema-instance" xsi:noNamespaceSchemaLocation="http://sumo.dlr.de/xsd/netconvertConfiguration.xsd">

    <input>
        <node-files value="D:/SUMO/tests/netedit\bugs\grid\ticket3278/net.nod.xml"/>
        <edge-files value="D:/SUMO/tests/netedit\bugs\grid\ticket3278/net.edg.xml"/>
        <connection-files value="D:/SUMO/tests/netedit\bugs\grid\ticket3278/net.con.xml"/>
    </input>

    <output>
        <output-file value="D:/SUMO/tests/netedit\bugs\grid\ticket3278/net.net.xml"/>
    </output>

</configuration>
-->

<net version="1.16" junctionCornerDetail="5" limitTurnSpeed="5.50" xmlns:xsi="http://www.w3.org/2001/XMLSchema-instance" xsi:noNamespaceSchemaLocation="http://sumo.dlr.de/xsd/net_file.xsd">

    <location netOffset="50.00,50.00" convBoundary="0.00,0.00,100.00,100.00" origBoundary="-50.00,-50.00,50.00,50.00" projParameter="!"/>

    <edge id=":A_0" function="internal">
        <lane id=":A_0_0" index="0" disallow="pedestrian" speed="3.65" length="4.67" shape="48.40,0.00 49.20,-1.20 50.00,-1.60 50.80,-1.20 51.60,0.00"/>
    </edge>
    <edge id=":A_w0" function="walkingarea">
        <lane id=":A_w0_0" index="0" allow="pedestrian" speed="2.78" length="8.40" width="2.00" shape="53.20,0.00 55.20,0.00 44.80,0.00 46.80,0.00"/>
    </edge>
    <edge id=":B_0" function="internal">
        <lane id=":B_0_0" index="0" disallow="pedestrian" speed="3.65" length="4.67" shape="51.60,100.00 50.80,101.20 50.00,101.60 49.20,101.20 48.40,100.00"/>
    </edge>
    <edge id=":B_w0" function="walkingarea">
        <lane id=":B_w0_0" index="0" allow="pedestrian" speed="2.78" length="8.40" width="2.00" shape="46.80,100.00 44.80,100.00 55.20,100.00 53.20,100.00"/>
    </edge>
    <edge id=":C_0" function="internal">
        <lane id=":C_0_0" index="0" disallow="pedestrian" speed="3.65" length="4.67" shape="0.00,51.60 -1.20,50.80 -1.60,50.00 -1.20,49.20 0.00,48.40"/>
    </edge>
    <edge id=":C_w0" function="walkingarea">
        <lane id=":C_w0_0" index="0" allow="pedestrian" speed="2.78" length="8.40" width="2.00" shape="0.00,46.80 0.00,44.80 0.00,55.20 0.00,53.20"/>
    </edge>
    <edge id=":Center_0" function="internal">
        <lane id=":Center_0_0" index="0" allow="pedestrian" speed="4.80" length="4.84" width="2.00" shape="45.80,57.20 45.61,55.89 45.05,54.95 44.11,54.39 42.80,54.20"/>
    </edge>
    <edge id=":Center_1" function="internal">
        <lane id=":Center_1_0" index="0" allow="pedestrian" speed="13.90" length="14.40" width="2.00" shape="45.80,57.20 45.80,42.80"/>
        <lane id=":Center_1_1" index="1" disallow="pedestrian" speed="13.90" length="14.40" shape="48.40,57.20 48.40,42.80"/>
    </edge>
    <edge id=":Center_3" function="internal">
        <lane id=":Center_3_0" index="0" disallow="pedestrian" speed="8.00" length="4.07" shape="48.40,57.20 48.95,53.35 49.04,53.20"/>
    </edge>
    <edge id=":Center_4" function="internal">
        <lane id=":Center_4_0" index="0" disallow="pedestrian" speed="3.65" length="1.44" shape="48.40,57.20 49.20,56.00"/>
    </edge>
    <edge id=":Center_20" function="internal">
        <lane id=":Center_20_0" index="0" disallow="pedestrian" speed="8.00" length="10.13" shape="49.04,53.20 50.60,50.60 53.35,48.95 57.20,48.40"/>
    </edge>
    <edge id=":Center_21" function="internal">
        <lane id=":Center_21_0" index="0" disallow="pedestrian" speed="3.65" length="3.23" shape="49.20,56.00 50.00,55.60 50.80,56.00 51.60,57.20"/>
    </edge>
    <edge id=":Center_5" function="internal">
        <lane id=":Center_5_0" index="0" allow="pedestrian" speed="4.80" length="4.84" width="2.00" shape="57.20,54.20 55.89,54.39 54.95,54.95 54.39,55.89 54.20,57.20"/>
    </edge>
    <edge id=":Center_6" function="internal">
        <lane id=":Center_6_0" index="0" allow="pedestrian" speed="13.90" length="14.40" width="2.00" shape="57.20,54.20 42.80,54.20"/>
        <lane id=":Center_6_1" index="1" disallow="pedestrian" speed="13.90" length="14.40" shape="57.20,51.60 42.80,51.60"/>
    </edge>
    <edge id=":Center_8" function="internal">
        <lane id=":Center_8_0" index="0" disallow="pedestrian" speed="8.00" length="14.19" shape="57.20,51.60 53.35,51.05 50.60,49.40 48.95,46.65 48.40,42.80"/>
    </edge>
    <edge id=":Center_9" function="internal">
        <lane id=":Center_9_0" index="0" disallow="pedestrian" speed="3.65" length="4.67" shape="57.20,51.60 56.00,50.80 55.60,50.00 56.00,49.20 57.20,48.40"/>
    </edge>
    <edge id=":Center_10" function="internal">
        <lane id=":Center_10_0" index="0" allow="pedestrian" speed="4.80" length="4.84" width="2.00" shape="54.20,42.80 54.39,44.11 54.95,45.05 55.89,45.61 57.20,45.80"/>
    </edge>
    <edge id=":Center_11" function="internal">
        <lane id=":Center_11_0" index="0" allow="pedestrian" speed="13.90" length="14.40" width="2.00" shape="54.20,42.80 54.20,57.20"/>
        <lane id=":Center_11_1" index="1" disallow="pedestrian" speed="13.90" length="14.40" shape="51.60,42.80 51.60,57.20"/>
    </edge>
    <edge id=":Center_13" function="internal">
        <lane id=":Center_13_0" index="0" disallow="pedestrian" speed="8.00" length="4.07" shape="51.60,42.80 51.05,46.65 50.96,46.80"/>
    </edge>
    <edge id=":Center_14" function="internal">
        <lane id=":Center_14_0" index="0" disallow="pedestrian" speed="3.65" length="1.44" shape="51.60,42.80 50.80,44.00"/>
    </edge>
    <edge id=":Center_22" function="internal">
        <lane id=":Center_22_0" index="0" disallow="pedestrian" speed="8.00" length="10.13" shape="50.96,46.80 49.40,49.40 46.65,51.05 42.80,51.60"/>
    </edge>
    <edge id=":Center_23" function="internal">
        <lane id=":Center_23_0" index="0" disallow="pedestrian" speed="3.65" length="3.23" shape="50.80,44.00 50.00,44.40 49.20,44.00 48.40,42.80"/>
    </edge>
    <edge id=":Center_15" function="internal">
        <lane id=":Center_15_0" index="0" allow="pedestrian" speed="4.80" length="4.84" width="2.00" shape="42.80,45.80 44.11,45.61 45.05,45.05 45.61,44.11 45.80,42.80"/>
    </edge>
    <edge id=":Center_16" function="internal">
        <lane id=":Center_16_0" index="0" allow="pedestrian" speed="13.90" length="14.40" width="2.00" shape="42.80,45.80 57.20,45.80"/>
        <lane id=":Center_16_1" index="1" disallow="pedestrian" speed="13.90" length="14.40" shape="42.80,48.40 57.20,48.40"/>
    </edge>
    <edge id=":Center_18" function="internal">
        <lane id=":Center_18_0" index="0" disallow="pedestrian" speed="8.00" length="14.19" shape="42.80,48.40 46.65,48.95 49.40,50.60 51.05,53.35 51.60,57.20"/>
    </edge>
    <edge id=":Center_19" function="internal">
        <lane id=":Center_19_0" index="0" disallow="pedestrian" speed="3.65" length="4.67" shape="42.80,48.40 44.00,49.20 44.40,50.00 44.00,50.80 42.80,51.60"/>
    </edge>
    <edge id=":Center_c0" function="crossing" crossingEdges="2 6">
        <lane id=":Center_c0_0" index="0" allow="pedestrian" speed="2.78" length="6.40" width="4.00" shape="53.20,55.20 46.80,55.20"/>
    </edge>
    <edge id=":Center_c1" function="crossing" crossingEdges="4 8">
        <lane id=":Center_c1_0" index="0" allow="pedestrian" speed="2.78" length="6.40" width="4.00" shape="55.20,46.80 55.20,53.20"/>
    </edge>
    <edge id=":Center_c2" function="crossing" crossingEdges="1 5">
        <lane id=":Center_c2_0" index="0" allow="pedestrian" speed="2.78" length="6.40" width="4.00" shape="46.80,44.80 53.20,44.80"/>
    </edge>
    <edge id=":Center_c3" function="crossing" crossingEdges="3 7">
        <lane id=":Center_c3_0" index="0" allow="pedestrian" speed="2.78" length="6.40" width="4.00" shape="44.80,53.20 44.80,46.80"/>
    </edge>
    <edge id=":Center_w0" function="walkingarea">
        <lane id=":Center_w0_0" index="0" allow="pedestrian" speed="2.78" length="3.30" width="4.00" shape="42.80,53.20 42.80,55.20 44.80,57.20 46.80,57.20 46.69,55.98 46.36,54.98 45.80,54.20 45.02,53.64 44.02,53.31"/>
    </edge>
    <edge id=":Center_w1" function="walkingarea">
        <lane id=":Center_w1_0" index="0" allow="pedestrian" speed="2.78" length="3.30" width="4.00" shape="53.20,57.20 55.20,57.20 57.20,55.20 57.20,53.20 55.98,53.31 54.98,53.64 54.20,54.20 53.64,54.98 53.31,55.98"/>
    </edge>
    <edge id=":Center_w2" function="walkingarea">
        <lane id=":Center_w2_0" index="0" allow="pedestrian" speed="2.78" length="3.30" width="4.00" shape="57.20,46.80 57.20,44.80 55.20,42.80 53.20,42.80 53.31,44.02 53.64,45.02 54.20,45.80 54.98,46.36 55.98,46.69"/>
    </edge>
    <edge id=":Center_w3" function="walkingarea">
        <lane id=":Center_w3_0" index="0" allow="pedestrian" speed="2.78" length="3.30" width="4.00" shape="46.80,42.80 44.80,42.80 42.80,44.80 42.80,46.80 44.02,46.69 45.02,46.36 45.80,45.80 46.36,45.02 46.69,44.02"/>
    </edge>
    <edge id=":D_0" function="internal">
        <lane id=":D_0_0" index="0" disallow="pedestrian" speed="3.65" length="4.67" shape="100.00,48.40 101.20,49.20 101.60,50.00 101.20,50.80 100.00,51.60"/>
    </edge>
    <edge id=":D_w0" function="walkingarea">
        <lane id=":D_w0_0" index="0" allow="pedestrian" speed="2.78" length="8.40" width="2.00" shape="100.00,53.20 100.00,55.20 100.00,44.80 100.00,46.80"/>
    </edge>

    <edge id="1" from="Center" to="A" priority="-1">
        <lane id="1_0" index="0" allow="pedestrian" speed="13.90" length="42.80" width="2.00" shape="45.80,42.80 45.80,0.00"/>
        <lane id="1_1" index="1" disallow="pedestrian" speed="13.90" length="42.80" shape="48.40,42.80 48.40,0.00"/>
    </edge>
    <edge id="2" from="Center" to="B" priority="-1">
        <lane id="2_0" index="0" allow="pedestrian" speed="13.90" length="42.80" width="2.00" shape="54.20,57.20 54.20,100.00"/>
        <lane id="2_1" index="1" disallow="pedestrian" speed="13.90" length="42.80" shape="51.60,57.20 51.60,100.00"/>
    </edge>
    <edge id="3" from="Center" to="C" priority="-1">
        <lane id="3_0" index="0" allow="pedestrian" speed="13.90" length="42.80" width="2.00" shape="42.80,54.20 0.00,54.20"/>
        <lane id="3_1" index="1" disallow="pedestrian" speed="13.90" length="42.80" shape="42.80,51.60 0.00,51.60"/>
    </edge>
    <edge id="4" from="Center" to="D" priority="-1">
        <lane id="4_0" index="0" allow="pedestrian" speed="13.90" length="42.80" width="2.00" shape="57.20,45.80 100.00,45.80"/>
        <lane id="4_1" index="1" disallow="pedestrian" speed="13.90" length="42.80" shape="57.20,48.40 100.00,48.40"/>
    </edge>
    <edge id="5" from="A" to="Center" priority="-1">
        <lane id="5_0" index="0" allow="pedestrian" speed="13.90" length="42.80" width="2.00" shape="54.20,0.00 54.20,42.80"/>
        <lane id="5_1" index="1" disallow="pedestrian" speed="13.90" length="42.80" shape="51.60,0.00 51.60,42.80"/>
    </edge>
    <edge id="6" from="B" to="Center" priority="-1">
        <lane id="6_0" index="0" allow="pedestrian" speed="13.90" length="42.80" width="2.00" shape="45.80,100.00 45.80,57.20"/>
        <lane id="6_1" index="1" disallow="pedestrian" speed="13.90" length="42.80" shape="48.40,100.00 48.40,57.20"/>
    </edge>
    <edge id="7" from="C" to="Center" priority="-1">
        <lane id="7_0" index="0" allow="pedestrian" speed="13.90" length="42.80" width="2.00" shape="0.00,45.80 42.80,45.80"/>
        <lane id="7_1" index="1" disallow="pedestrian" speed="13.90" length="42.80" shape="0.00,48.40 42.80,48.40"/>
    </edge>
    <edge id="8" from="D" to="Center" priority="-1">
        <lane id="8_0" index="0" allow="pedestrian" speed="13.90" length="42.80" width="2.00" shape="100.00,54.20 57.20,54.20"/>
        <lane id="8_1" index="1" disallow="pedestrian" speed="13.90" length="42.80" shape="100.00,51.60 57.20,51.60"/>
    </edge>

    <junction id="A" type="priority" x="50.00" y="0.00" incLanes="1_0 1_1" intLanes=":A_0_0" shape="50.00,0.00 44.80,0.00 50.00,0.00">
        <request index="0" response="0" foes="0" cont="0"/>
    </junction>
    <junction id="B" type="priority" x="50.00" y="100.00" incLanes="2_0 2_1" intLanes=":B_0_0" shape="50.00,100.00 55.20,100.00 50.00,100.00">
        <request index="0" response="0" foes="0" cont="0"/>
    </junction>
    <junction id="C" type="priority" x="0.00" y="50.00" incLanes="3_0 3_1" intLanes=":C_0_0" shape="0.00,50.00 0.00,55.20 0.00,50.00">
        <request index="0" response="0" foes="0" cont="0"/>
    </junction>
    <junction id="Center" type="priority" x="50.00" y="50.00" incLanes="6_0 6_1 8_0 8_1 5_0 5_1 7_0 7_1 :Center_w1_0 :Center_w2_0 :Center_w3_0 :Center_w0_0" intLanes=":Center_0_0 :Center_1_0 :Center_1_1 :Center_20_0 :Center_21_0 :Center_5_0 :Center_6_0 :Center_6_1 :Center_8_0 :Center_9_0 :Center_10_0 :Center_11_0 :Center_11_1 :Center_22_0 :Center_23_0 :Center_15_0 :Center_16_0 :Center_16_1 :Center_18_0 :Center_19_0 :Center_c0_0 :Center_c1_0 :Center_c2_0 :Center_c3_0" shape="44.80,57.20 55.20,57.20 55.42,56.09 55.70,55.70 56.09,55.42 56.59,55.26 57.20,55.20 57.20,44.80 56.09,44.58 55.70,44.30 55.42,43.91 55.26,43.41 55.20,42.80 44.80,42.80 44.58,43.91 44.30,44.30 43.91,44.58 43.41,44.74 42.80,44.80 42.80,55.20 43.91,55.42 44.30,55.70 44.58,56.09 44.74,56.59">
        <request index="0"  response="100000000000000000000000" foes="100100000000000001000000" cont="0"/>
        <request index="1"  response="000000000000000000000000" foes="010101111010000011000000" cont="0"/>
        <request index="2"  response="000000000000000000000000" foes="010101110110000111000000" cont="0"/>
        <request index="3"  response="001000000001100000000000" foes="001101100011101111000000" cont="1"/>
        <request index="4"  response="000001000001000000000000" foes="000101000001000000000000" cont="1"/>
        <request index="5"  response="000100000000100000000000" foes="001100000000100000000000" cont="0"/>
        <request index="6"  response="000000000001100000001111" foes="101001000001100000001111" cont="0"/>
        <request index="7"  response="000000000011100000001110" foes="101011000011100000001110" cont="0"/>
        <request index="8"  response="010000110011100000001100" foes="011001110111100000001100" cont="0"/>
        <request index="9"  response="000000100000000000001000" foes="001000100000000000001000" cont="0"/>
        <request index="10" response="001000000000000000000000" foes="011000010000000000000000" cont="0"/>
        <request index="11" response="000000000000000000000000" foes="010100110000000111101000" cont="0"/>
        <request index="12" response="000000000000000000000000" foes="010101110000000111011000" cont="0"/>
        <request index="13" response="100000000000000000001110" foes="110011110000000110001110" cont="1"/>
        <request index="14" response="000000000000000100000100" foes="010000000000000100000100" cont="1"/>
        <request index="15" response="010000000000000000000010" foes="110000000000000000000010" cont="0"/>
        <request index="16" response="000000000011110000000110" foes="101000000011110100000110" cont="0"/>
        <request index="17" response="000000000011100000001110" foes="101000000011101100001110" cont="0"/>
        <request index="18" response="000100000011000111001110" foes="100100000011000111011110" cont="0"/>
        <request index="19" response="000000000010000010000000" foes="100000000010000010000000" cont="0"/>
        <request index="20" response="000000000001100000011111" foes="000001000001100000111111" cont="0"/>
        <request index="21" response="000000110000001111100000" foes="000000110000011111101000" cont="0"/>
        <request index="22" response="000000000111110000000110" foes="000000001111110100000110" cont="0"/>
        <request index="23" response="000011111000000011000000" foes="000011111010000011000001" cont="0"/>
    </junction>
    <junction id="D" type="priority" x="100.00" y="50.00" incLanes="4_0 4_1" intLanes=":D_0_0" shape="100.00,50.00 100.00,44.80 100.00,50.00">
        <request index="0" response="0" foes="0" cont="0"/>
    </junction>

    <junction id=":Center_20_0" type="internal" x="49.04" y="53.20" incLanes=":Center_3_0 5_0 5_1" intLanes=":Center_6_0 :Center_6_1 :Center_8_0 :Center_9_0 :Center_10_0 :Center_11_0 :Center_11_1 :Center_16_0 :Center_16_1 :Center_18_0 :Center_c0_0 :Center_c1_0"/>
    <junction id=":Center_21_0" type="internal" x="49.20" y="56.00" incLanes=":Center_4_0 5_0 5_1 7_1 8_0" intLanes=":Center_5_0 :Center_11_0 :Center_11_1 :Center_18_0 :Center_c0_0 :Center_c0_0"/>
    <junction id=":Center_22_0" type="internal" x="50.96" y="46.80" incLanes=":Center_13_0 6_0 6_1" intLanes=":Center_0_0 :Center_1_0 :Center_1_1 :Center_6_0 :Center_6_1 :Center_8_0 :Center_16_0 :Center_16_1 :Center_18_0 :Center_19_0 :Center_c2_0 :Center_c3_0"/>
    <junction id=":Center_23_0" type="internal" x="50.80" y="44.00" incLanes=":Center_14_0 6_0 6_1 7_0 8_1" intLanes=":Center_1_0 :Center_1_1 :Center_8_0 :Center_15_0 :Center_c2_0 :Center_c2_0"/>

    <connection from="1" to="5" fromLane="1" toLane="1" via=":A_0_0" dir="t" state="M"/>
    <connection from="2" to="6" fromLane="1" toLane="1" via=":B_0_0" dir="t" state="M"/>
    <connection from="3" to="7" fromLane="1" toLane="1" via=":C_0_0" dir="t" state="M"/>
    <connection from="4" to="8" fromLane="1" toLane="1" via=":D_0_0" dir="t" state="M"/>
    <connection from="5" to="4" fromLane="0" toLane="0" via=":Center_10_0" dir="r" state="m"/>
    <connection from="5" to="2" fromLane="0" toLane="0" via=":Center_11_0" dir="s" state="M"/>
    <connection from="5" to="2" fromLane="1" toLane="1" via=":Center_11_1" dir="s" state="M"/>
    <connection from="5" to="3" fromLane="1" toLane="1" via=":Center_13_0" dir="l" state="m"/>
    <connection from="5" to="1" fromLane="1" toLane="1" via=":Center_14_0" dir="t" state="m"/>
    <connection from="6" to="3" fromLane="0" toLane="0" via=":Center_0_0" dir="r" state="m"/>
    <connection from="6" to="1" fromLane="0" toLane="0" via=":Center_1_0" dir="s" state="M"/>
    <connection from="6" to="1" fromLane="1" toLane="1" via=":Center_1_1" dir="s" state="M"/>
    <connection from="6" to="4" fromLane="1" toLane="1" via=":Center_3_0" dir="l" state="m"/>
    <connection from="6" to="2" fromLane="1" toLane="1" via=":Center_4_0" dir="t" state="m"/>
    <connection from="7" to="1" fromLane="0" toLane="0" via=":Center_15_0" dir="r" state="m"/>
    <connection from="7" to="4" fromLane="0" toLane="0" via=":Center_16_0" dir="s" state="m"/>
    <connection from="7" to="4" fromLane="1" toLane="1" via=":Center_16_1" dir="s" state="m"/>
    <connection from="7" to="2" fromLane="1" toLane="1" via=":Center_18_0" dir="l" state="m"/>
    <connection from="7" to="3" fromLane="1" toLane="1" via=":Center_19_0" dir="t" state="m"/>
    <connection from="8" to="2" fromLane="0" toLane="0" via=":Center_5_0" dir="r" state="m"/>
    <connection from="8" to="3" fromLane="0" toLane="0" via=":Center_6_0" dir="s" state="m"/>
    <connection from="8" to="3" fromLane="1" toLane="1" via=":Center_6_1" dir="s" state="m"/>
    <connection from="8" to="1" fromLane="1" toLane="1" via=":Center_8_0" dir="l" state="m"/>
    <connection from="8" to="4" fromLane="1" toLane="1" via=":Center_9_0" dir="t" state="m"/>

    <connection from=":A_0" to="5" fromLane="0" toLane="1" dir="t" state="M"/>
    <connection from=":B_0" to="6" fromLane="0" toLane="1" dir="t" state="M"/>
    <connection from=":C_0" to="7" fromLane="0" toLane="1" dir="t" state="M"/>
    <connection from=":Center_0" to="3" fromLane="0" toLane="0" dir="r" state="M"/>
    <connection from=":Center_1" to="1" fromLane="0" toLane="0" dir="s" state="M"/>
    <connection from=":Center_1" to="1" fromLane="1" toLane="1" dir="s" state="M"/>
    <connection from=":Center_3" to="4" fromLane="0" toLane="1" via=":Center_20_0" dir="l" state="m"/>
    <connection from=":Center_20" to="4" fromLane="0" toLane="1" dir="l" state="m"/>
    <connection from=":Center_4" to="2" fromLane="0" toLane="1" via=":Center_21_0" dir="t" state="m"/>
    <connection from=":Center_21" to="2" fromLane="0" toLane="1" dir="t" state="m"/>
    <connection from=":Center_5" to="2" fromLane="0" toLane="0" dir="r" state="M"/>
    <connection from=":Center_6" to="3" fromLane="0" toLane="0" dir="s" state="M"/>
    <connection from=":Center_6" to="3" fromLane="1" toLane="1" dir="s" state="M"/>
    <connection from=":Center_8" to="1" fromLane="0" toLane="1" dir="l" state="M"/>
    <connection from=":Center_9" to="4" fromLane="0" toLane="1" dir="t" state="M"/>
    <connection from=":Center_10" to="4" fromLane="0" toLane="0" dir="r" state="M"/>
    <connection from=":Center_11" to="2" fromLane="0" toLane="0" dir="s" state="M"/>
    <connection from=":Center_11" to="2" fromLane="1" toLane="1" dir="s" state="M"/>
    <connection from=":Center_13" to="3" fromLane="0" toLane="1" via=":Center_22_0" dir="l" state="m"/>
    <connection from=":Center_22" to="3" fromLane="0" toLane="1" dir="l" state="m"/>
    <connection from=":Center_14" to="1" fromLane="0" toLane="1" via=":Center_23_0" dir="t" state="m"/>
    <connection from=":Center_23" to="1" fromLane="0" toLane="1" dir="t" state="m"/>
    <connection from=":Center_15" to="1" fromLane="0" toLane="0" dir="r" state="M"/>
    <connection from=":Center_16" to="4" fromLane="0" toLane="0" dir="s" state="M"/>
    <connection from=":Center_16" to="4" fromLane="1" toLane="1" dir="s" state="M"/>
    <connection from=":Center_18" to="2" fromLane="0" toLane="1" dir="l" state="M"/>
    <connection from=":Center_19" to="3" fromLane="0" toLane="1" dir="t" state="M"/>
    <connection from=":D_0" to="8" fromLane="0" toLane="1" dir="t" state="M"/>

    <connection from=":A_w0" to="5" fromLane="0" toLane="0" dir="s" state="M"/>
    <connection from="1" to=":A_w0" fromLane="0" toLane="0" dir="s" state="M"/>
    <connection from=":B_w0" to="6" fromLane="0" toLane="0" dir="s" state="M"/>
    <connection from="2" to=":B_w0" fromLane="0" toLane="0" dir="s" state="M"/>
    <connection from=":C_w0" to="7" fromLane="0" toLane="0" dir="s" state="M"/>
    <connection from="3" to=":C_w0" fromLane="0" toLane="0" dir="s" state="M"/>
    <connection from=":Center_c0" to=":Center_w0" fromLane="0" toLane="0" dir="s" state="M"/>
    <connection from=":Center_c1" to=":Center_w1" fromLane="0" toLane="0" dir="s" state="M"/>
    <connection from=":Center_c2" to=":Center_w2" fromLane="0" toLane="0" dir="s" state="M"/>
    <connection from=":Center_c3" to=":Center_w3" fromLane="0" toLane="0" dir="s" state="M"/>
    <connection from=":Center_w0" to=":Center_c3" fromLane="0" toLane="0" dir="s" state="m"/>
    <connection from=":Center_w0" to="3" fromLane="0" toLane="0" dir="s" state="M"/>
    <connection from="6" to=":Center_w0" fromLane="0" toLane="0" dir="s" state="M"/>
    <connection from=":Center_w1" to=":Center_c0" fromLane="0" toLane="0" dir="s" state="m"/>
    <connection from=":Center_w1" to="2" fromLane="0" toLane="0" dir="s" state="M"/>
    <connection from="8" to=":Center_w1" fromLane="0" toLane="0" dir="s" state="M"/>
    <connection from=":Center_w2" to=":Center_c1" fromLane="0" toLane="0" dir="s" state="m"/>
    <connection from=":Center_w2" to="4" fromLane="0" toLane="0" dir="s" state="M"/>
    <connection from="5" to=":Center_w2" fromLane="0" toLane="0" dir="s" state="M"/>
    <connection from=":Center_w3" to=":Center_c2" fromLane="0" toLane="0" dir="s" state="m"/>
    <connection from=":Center_w3" to="1" fromLane="0" toLane="0" dir="s" state="M"/>
    <connection from="7" to=":Center_w3" fromLane="0" toLane="0" dir="s" state="M"/>
    <connection from=":D_w0" to="8" fromLane="0" toLane="0" dir="s" state="M"/>
    <connection from="4" to=":D_w0" fromLane="0" toLane="0" dir="s" state="M"/>
</net>
