<?xml version="1.0" encoding="UTF-8"?>

<!-- generated on 12.04.2018 10:39:07 by Netedit Version b46590447d
<configuration xmlns:xsi="http://www.w3.org/2001/XMLSchema-instance" xsi:noNamespaceSchemaLocation="http://sumo.dlr.de/xsd/netconvertConfiguration.xsd">

    <input>
        <sumo-net-file value="C:/Users/Palcraft/.texttest/tmp/netedit.gui.12Apr091237.2220/netedit.gui/bugs/grid/ticket3278\input_net.net.xml"/>
    </input>

    <output>
        <additionals-output value="C:/Users/Palcraft/.texttest/tmp/netedit.gui.12Apr091237.2220/netedit.gui/bugs/grid/ticket3278\additionals.xml"/>
        <shapes-output value="C:/Users/Palcraft/.texttest/tmp/netedit.gui.12Apr091237.2220/netedit.gui/bugs/grid/ticket3278\shapes.xml"/>
        <output-file value="C:/Users/Palcraft/.texttest/tmp/netedit.gui.12Apr091237.2220/netedit.gui/bugs/grid/ticket3278\net.net.xml"/>
    </output>

    <processing>
        <no-internal-links value="false"/>
        <no-turnarounds value="true"/>
        <offset.disable-normalization value="true"/>
        <lefthand value="false"/>
        <junctions.corner-detail value="0"/>
        <rectangular-lane-cut value="false"/>
        <walkingareas value="false"/>
    </processing>

    <visualisation>
        <gui-settings-file value="C:/Users/Palcraft/.texttest/tmp/netedit.gui.12Apr091237.2220/netedit.gui/bugs/grid/ticket3278\gui-settings.xml"/>
        <window-size value="700,500"/>
        <window-pos value="50,50"/>
        <gui-testing value="true"/>
        <gui-testing-debug value="true"/>
    </visualisation>

    <report>
        <no-warnings value="true"/>
        <error-log value="C:/Users/Palcraft/.texttest/tmp/netedit.gui.12Apr091237.2220/netedit.gui/bugs/grid/ticket3278\log.txt"/>
    </report>

</configuration>
-->

<net version="0.27" xmlns:xsi="http://www.w3.org/2001/XMLSchema-instance" xsi:noNamespaceSchemaLocation="http://sumo.dlr.de/xsd/net_file.xsd">

    <location netOffset="50.00,50.00" convBoundary="20.00,0.00,100.00,100.00" origBoundary="-50.00,-50.00,50.00,50.00" projParameter="!"/>

    <edge id=":A_0" function="internal">
        <lane id=":A_0_0" index="0" speed="13.90" length="4.67" shape="48.40,0.00 49.20,-1.20 50.00,-1.60 50.80,-1.20 51.60,0.00"/>
    </edge>
    <edge id=":A_w0" function="walkingarea">
        <lane id=":A_w0_0" index="0" allow="pedestrian" speed="1.00" length="9.60" width="3.20" shape="50.00,0.00 53.20,0.00 53.20,0.00 56.40,0.00 43.60,0.00 46.80,0.00 46.80,0.00 50.00,0.00"/>
    </edge>
    <edge id=":B_0" function="internal">
        <lane id=":B_0_0" index="0" speed="13.90" length="4.67" shape="51.60,100.00 50.80,101.20 50.00,101.60 49.20,101.20 48.40,100.00"/>
    </edge>
    <edge id=":B_w0" function="walkingarea">
        <lane id=":B_w0_0" index="0" allow="pedestrian" speed="1.00" length="9.60" width="3.20" shape="50.00,100.00 46.80,100.00 46.80,100.00 43.60,100.00 56.40,100.00 53.20,100.00 53.20,100.00 50.00,100.00"/>
    </edge>
    <edge id=":C_0" function="internal">
        <lane id=":C_0_0" index="0" speed="13.90" length="4.67" shape="18.87,21.13 18.59,19.72 18.87,18.87 19.72,18.59 21.13,18.87"/>
    </edge>
    <edge id=":C_w0" function="walkingarea">
        <lane id=":C_w0_0" index="0" allow="pedestrian" speed="1.00" length="9.60" width="3.20" shape="20.00,20.00 22.26,17.74 22.26,17.74 24.53,15.47 15.47,24.53 17.74,22.26 17.74,22.26 20.00,20.00"/>
    </edge>
    <edge id=":Center_0" function="internal">
        <lane id=":Center_0_0" index="0" speed="13.90" length="15.95" shape="45.20,57.90 44.54,54.65 42.55,50.82 39.25,46.41 37.34,44.34"/>
    </edge>
    <edge id=":Center_1" function="internal">
        <lane id=":Center_1_0" index="0" speed="13.90" length="24.85" shape="45.20,57.90 45.20,33.05"/>
        <lane id=":Center_1_1" index="1" speed="13.90" length="24.85" shape="48.40,57.90 48.40,33.05"/>
    </edge>
    <edge id=":Center_3" function="internal">
        <lane id=":Center_3_0" index="0" speed="13.90" length="6.15" shape="48.40,57.90 48.99,53.74 50.00,52.07"/>
    </edge>
    <edge id=":Center_4" function="internal">
        <lane id=":Center_4_0" index="0" speed="13.90" length="2.34" shape="48.40,57.90 49.20,56.70 50.00,56.30"/>
    </edge>
    <edge id=":Center_20" function="internal">
        <lane id=":Center_20_0" index="0" speed="13.90" length="4.00" shape="37.34,44.34 34.62,41.41"/>
    </edge>
    <edge id=":Center_21" function="internal">
        <lane id=":Center_21_0" index="0" speed="13.90" length="9.17" shape="50.00,52.07 50.77,50.78 53.74,48.99 57.90,48.40"/>
    </edge>
    <edge id=":Center_22" function="internal">
        <lane id=":Center_22_0" index="0" speed="13.90" length="2.34" shape="50.00,56.30 50.80,56.70 51.60,57.90"/>
    </edge>
    <edge id=":Center_5" function="internal">
        <lane id=":Center_5_0" index="0" speed="13.90" length="5.00" shape="57.90,54.80 56.54,54.99 55.58,55.57 54.99,56.54 54.80,57.90"/>
    </edge>
    <edge id=":Center_6" function="internal">
        <lane id=":Center_6_0" index="0" speed="13.90" length="27.45" shape="57.90,54.80 52.74,53.96 47.14,51.45 41.10,47.27 34.62,41.41"/>
    </edge>
    <edge id=":Center_7" function="internal">
        <lane id=":Center_7_0" index="0" speed="13.90" length="25.26" shape="57.90,51.60 51.39,50.65 46.29,48.02 41.74,44.07 36.88,39.15"/>
    </edge>
    <edge id=":Center_8" function="internal">
        <lane id=":Center_8_0" index="0" speed="13.90" length="23.09" shape="57.90,51.60 53.74,50.44 50.78,46.96 48.99,41.17 48.40,33.05"/>
    </edge>
    <edge id=":Center_9" function="internal">
        <lane id=":Center_9_0" index="0" speed="13.90" length="4.67" shape="57.90,51.60 56.70,50.80 56.30,50.00 56.70,49.20 57.90,48.40"/>
    </edge>
    <edge id=":Center_10" function="internal">
        <lane id=":Center_10_0" index="0" speed="13.90" length="13.19" shape="54.80,33.05 54.99,38.37 55.57,42.16 56.54,44.44 57.90,45.20"/>
    </edge>
    <edge id=":Center_11" function="internal">
        <lane id=":Center_11_0" index="0" speed="13.90" length="24.85" shape="54.80,33.05 54.80,57.90"/>
        <lane id=":Center_11_1" index="1" speed="13.90" length="24.85" shape="51.60,33.05 51.60,57.90"/>
    </edge>
    <edge id=":Center_13" function="internal">
        <lane id=":Center_13_0" index="0" speed="13.90" length="9.38" shape="51.60,33.05 50.68,41.24 50.00,42.16"/>
    </edge>
    <edge id=":Center_14" function="internal">
        <lane id=":Center_14_0" index="0" speed="13.90" length="2.34" shape="51.60,33.05 50.80,34.25 50.00,34.65"/>
    </edge>
    <edge id=":Center_23" function="internal">
        <lane id=":Center_23_0" index="0" speed="13.90" length="16.39" shape="50.00,42.16 47.92,44.98 43.32,44.28 36.88,39.15"/>
    </edge>
    <edge id=":Center_24" function="internal">
        <lane id=":Center_24_0" index="0" speed="13.90" length="2.34" shape="50.00,34.65 49.20,34.25 48.40,33.05"/>
    </edge>
    <edge id=":Center_15" function="internal">
        <lane id=":Center_15_0" index="0" speed="13.90" length="6.64" shape="41.41,34.62 43.07,35.94 44.25,36.12 44.96,35.16 45.20,33.05"/>
    </edge>
    <edge id=":Center_16" function="internal">
        <lane id=":Center_16_0" index="0" speed="13.90" length="19.96" shape="41.41,34.62 46.41,39.25 50.82,42.55 54.65,44.54 57.90,45.20"/>
    </edge>
    <edge id=":Center_17" function="internal">
        <lane id=":Center_17_0" index="0" speed="13.90" length="22.45" shape="39.15,36.88 44.64,41.92 49.59,45.52 54.01,47.68 57.90,48.40"/>
    </edge>
    <edge id=":Center_18" function="internal">
        <lane id=":Center_18_0" index="0" speed="13.90" length="24.95" shape="39.15,36.88 44.59,42.87 48.49,48.36 50.82,53.38 51.60,57.90"/>
    </edge>
    <edge id=":Center_19" function="internal">
        <lane id=":Center_19_0" index="0" speed="13.90" length="4.67" shape="39.15,36.88 39.43,38.30 39.15,39.15 38.30,39.43 36.88,39.15"/>
    </edge>
    <edge id=":Center_c0" function="crossing" crossingEdges="4 8">
        <lane id=":Center_c0_0" index="0" allow="pedestrian" speed="1.00" length="12.80" width="3.00" shape="56.40,43.60 56.40,56.40"/>
    </edge>
    <edge id=":Center_c1" function="crossing" crossingEdges="3 7">
        <lane id=":Center_c1_0" index="0" allow="pedestrian" speed="1.00" length="12.80" width="4.00" shape="34.90,43.95 43.95,34.90"/>
    </edge>
    <edge id=":Center_w0" function="walkingarea">
        <lane id=":Center_w0_0" index="0" allow="pedestrian" speed="1.00" length="18.30" width="3.20" shape="43.60,57.90 46.80,57.90 46.80,57.90 50.00,57.90 50.00,57.90 53.20,57.90 53.20,57.90 56.40,57.90 57.90,56.40 57.90,53.20 57.90,53.20 57.90,50.00 57.90,50.00 57.90,46.80 57.90,46.80 57.90,43.60 56.40,33.05 53.20,33.05 53.20,33.05 50.00,33.05 50.00,33.05 46.80,33.05 46.80,33.05 43.60,33.05 42.54,33.49 40.28,35.75 40.28,35.75 38.01,38.01 38.01,38.01 35.75,40.28 35.75,40.28 33.49,42.54"/>
    </edge>
    <edge id=":Center_w1" function="walkingarea">
        <lane id=":Center_w1_0" index="0" allow="pedestrian" speed="1.00" length="24.84" width="3.00" shape="54.90,56.40 57.90,56.40 33.84,42.89 35.96,45.01"/>
    </edge>
    <edge id=":Center_w2" function="walkingarea">
        <lane id=":Center_w2_0" index="0" allow="pedestrian" speed="1.00" length="15.18" width="4.00" shape="45.37,36.32 42.54,33.49 58.40,43.60 54.40,43.60"/>
    </edge>
    <edge id=":D_0" function="internal">
        <lane id=":D_0_0" index="0" speed="13.90" length="4.67" shape="100.00,48.40 101.20,49.20 101.60,50.00 101.20,50.80 100.00,51.60"/>
    </edge>
    <edge id=":D_w0" function="walkingarea">
        <lane id=":D_w0_0" index="0" allow="pedestrian" speed="1.00" length="9.60" width="3.20" shape="100.00,50.00 100.00,53.20 100.00,53.20 100.00,56.40 100.00,43.60 100.00,46.80 100.00,46.80 100.00,50.00"/>
    </edge>

    <edge id="1" from="Center" to="A" priority="-1">
        <lane id="1_0" index="0" speed="13.90" length="33.05" shape="45.20,33.05 45.20,0.00"/>
        <lane id="1_1" index="1" speed="13.90" length="33.05" shape="48.40,33.05 48.40,0.00"/>
    </edge>
    <edge id="2" from="Center" to="B" priority="-1">
        <lane id="2_0" index="0" speed="13.90" length="42.10" shape="54.80,57.90 54.80,100.00"/>
        <lane id="2_1" index="1" speed="13.90" length="42.10" shape="51.60,57.90 51.60,100.00"/>
    </edge>
    <edge id="3" from="Center" to="C" priority="-1">
        <lane id="3_0" index="0" speed="13.90" length="25.48" shape="34.62,41.41 16.61,23.39"/>
        <lane id="3_1" index="1" speed="13.90" length="25.48" shape="36.88,39.15 18.87,21.13"/>
    </edge>
    <edge id="4" from="Center" to="D" priority="-1">
        <lane id="4_0" index="0" speed="13.90" length="42.10" shape="57.90,45.20 100.00,45.20"/>
        <lane id="4_1" index="1" speed="13.90" length="42.10" shape="57.90,48.40 100.00,48.40"/>
    </edge>
    <edge id="5" from="A" to="Center" priority="-1">
        <lane id="5_0" index="0" speed="13.90" length="33.05" shape="54.80,0.00 54.80,33.05"/>
        <lane id="5_1" index="1" speed="13.90" length="33.05" shape="51.60,0.00 51.60,33.05"/>
    </edge>
    <edge id="6" from="B" to="Center" priority="-1">
        <lane id="6_0" index="0" speed="13.90" length="42.10" shape="45.20,100.00 45.20,57.90"/>
        <lane id="6_1" index="1" speed="13.90" length="42.10" shape="48.40,100.00 48.40,57.90"/>
    </edge>
    <edge id="7" from="C" to="Center" priority="-1">
        <lane id="7_0" index="0" speed="13.90" length="25.48" shape="23.39,16.61 41.41,34.62"/>
        <lane id="7_1" index="1" speed="13.90" length="25.48" shape="21.13,18.87 39.15,36.88"/>
    </edge>
    <edge id="8" from="D" to="Center" priority="-1">
        <lane id="8_0" index="0" speed="13.90" length="42.10" shape="100.00,54.80 57.90,54.80"/>
        <lane id="8_1" index="1" speed="13.90" length="42.10" shape="100.00,51.60 57.90,51.60"/>
    </edge>

    <junction id="A" type="priority" x="50.00" y="0.00" incLanes="1_0 1_1" intLanes=":A_0_0" shape="50.00,0.00 43.60,0.00 50.00,0.00">
        <request index="0" response="0" foes="0" cont="0"/>
    </junction>
    <junction id="B" type="priority" x="50.00" y="100.00" incLanes="2_0 2_1" intLanes=":B_0_0" shape="50.00,100.00 56.40,100.00 50.00,100.00">
        <request index="0" response="0" foes="0" cont="0"/>
    </junction>
    <junction id="C" type="priority" x="20.00" y="20.00" incLanes="3_0 3_1" intLanes=":C_0_0" shape="20.00,20.00 15.47,24.53 20.00,20.00">
        <request index="0" response="0" foes="0" cont="0"/>
    </junction>
    <junction id="Center" type="priority" x="50.00" y="50.00" incLanes="6_0 6_1 8_0 8_1 5_0 5_1 7_0 7_1 :Center_w2_0 :Center_w1_0" intLanes=":Center_20_0 :Center_1_0 :Center_1_1 :Center_21_0 :Center_22_0 :Center_5_0 :Center_6_0 :Center_7_0 :Center_8_0 :Center_9_0 :Center_10_0 :Center_11_0 :Center_11_1 :Center_23_0 :Center_24_0 :Center_15_0 :Center_16_0 :Center_17_0 :Center_18_0 :Center_19_0 :Center_c0_0 :Center_c1_0" shape="43.60,57.90 56.40,57.90 57.90,56.40 57.90,43.60 56.40,33.05 43.60,33.05 42.54,33.49 33.49,42.54">
        <request index="0"  response="1000000000000000000000" foes="1010000010000011000000" cont="1"/>
        <request index="1"  response="0000000000000000000000" foes="0001111110000111000000" cont="0"/>
        <request index="2"  response="0000000000000000000000" foes="0001111110000111000000" cont="0"/>
        <request index="3"  response="0100000001110000000000" foes="0101110001111111000000" cont="1"/>
        <request index="4"  response="0001000001100000100000" foes="0001000001100000100000" cont="1"/>
        <request index="5"  response="0100000001100000000000" foes="0101000001100000010000" cont="0"/>
        <request index="6"  response="0100000011100000001111" foes="1111000011100000001111" cont="0"/>
        <request index="7"  response="0100000011100000001111" foes="1111000011100000001111" cont="0"/>
        <request index="8"  response="0100111011100000001110" foes="0100111111100000001110" cont="0"/>
        <request index="9"  response="0100110000010000001000" foes="0100110000010000001000" cont="0"/>
        <request index="10" response="0100000000000000000000" foes="0100110000001000001000" cont="0"/>
        <request index="11" response="0000000000000000000000" foes="0001110000000111111000" cont="0"/>
        <request index="12" response="0000000000000000000000" foes="0001110000000111111000" cont="0"/>
        <request index="13" response="1000000000000000000111" foes="1011110000000111000111" cont="1"/>
        <request index="14" response="0000001000000100000110" foes="0000001000000100000110" cont="1"/>
        <request index="15" response="0000000000000000000110" foes="1000000100000100000110" cont="0"/>
        <request index="16" response="0100000011110000001110" foes="1100000011111100001110" cont="0"/>
        <request index="17" response="0100000011110000001110" foes="1100000011111100001110" cont="0"/>
        <request index="18" response="0000000011100011101110" foes="1000000011100011111110" cont="0"/>
        <request index="19" response="0000000010000011000001" foes="1000000010000011000001" cont="0"/>
        <request index="20" response="0000000000000000000000" foes="0000110000011111101000" cont="0"/>
        <request index="21" response="0011111000000011000000" foes="0011111010000011000001" cont="0"/>
    </junction>
    <junction id="D" type="priority" x="100.00" y="50.00" incLanes="4_0 4_1" intLanes=":D_0_0" shape="100.00,50.00 100.00,43.60 100.00,50.00">
        <request index="0" response="0" foes="0" cont="0"/>
    </junction>

    <junction id=":Center_20_0" type="internal" x="37.34" y="44.34" incLanes=":Center_0_0" intLanes=":Center_6_0 :Center_7_0 :Center_13_0 :Center_19_0 :Center_c1_0"/>
    <junction id=":Center_21_0" type="internal" x="50.00" y="52.07" incLanes=":Center_3_0 5_0 5_1" intLanes=":Center_6_0 :Center_7_0 :Center_8_0 :Center_9_0 :Center_10_0 :Center_11_0 :Center_11_1 :Center_16_0 :Center_17_0 :Center_18_0 :Center_c0_0"/>
    <junction id=":Center_22_0" type="internal" x="50.00" y="56.30" incLanes=":Center_4_0 5_0 5_1 7_1 8_0" intLanes=":Center_5_0 :Center_11_0 :Center_11_1 :Center_18_0"/>
    <junction id=":Center_23_0" type="internal" x="50.00" y="42.16" incLanes=":Center_13_0 6_0 6_1" intLanes=":Center_0_0 :Center_1_0 :Center_1_1 :Center_6_0 :Center_7_0 :Center_8_0 :Center_16_0 :Center_17_0 :Center_18_0 :Center_19_0 :Center_c1_0"/>
    <junction id=":Center_24_0" type="internal" x="50.00" y="34.65" incLanes=":Center_14_0 6_0 6_1 7_0 8_1" intLanes=":Center_1_0 :Center_1_1 :Center_8_0 :Center_15_0"/>

    <connection from="1" to="5" fromLane="1" toLane="1" via=":A_0_0" dir="t" state="M"/>
    <connection from="2" to="6" fromLane="1" toLane="1" via=":B_0_0" dir="t" state="M"/>
    <connection from="3" to="7" fromLane="1" toLane="1" via=":C_0_0" dir="t" state="M"/>
    <connection from="4" to="8" fromLane="1" toLane="1" via=":D_0_0" dir="t" state="M"/>
    <connection from="5" to="4" fromLane="0" toLane="0" via=":Center_10_0" dir="r" state="m"/>
    <connection from="5" to="2" fromLane="0" toLane="0" via=":Center_11_0" dir="s" state="M"/>
    <connection from="5" to="2" fromLane="1" toLane="1" via=":Center_11_1" dir="s" state="M"/>
    <connection from="5" to="3" fromLane="1" toLane="1" via=":Center_13_0" dir="l" state="m"/>
    <connection from="5" to="1" fromLane="1" toLane="1" via=":Center_14_0" dir="t" state="m"/>
    <connection from="6" to="3" fromLane="0" toLane="0" via=":Center_0_0" dir="r" state="m"/>
    <connection from="6" to="1" fromLane="0" toLane="0" via=":Center_1_0" dir="s" state="M"/>
    <connection from="6" to="1" fromLane="1" toLane="1" via=":Center_1_1" dir="s" state="M"/>
    <connection from="6" to="4" fromLane="1" toLane="1" via=":Center_3_0" dir="l" state="m"/>
    <connection from="6" to="2" fromLane="1" toLane="1" via=":Center_4_0" dir="t" state="m"/>
    <connection from="7" to="1" fromLane="0" toLane="0" via=":Center_15_0" dir="r" state="m"/>
    <connection from="7" to="4" fromLane="0" toLane="0" via=":Center_16_0" dir="R" state="m"/>
    <connection from="7" to="4" fromLane="1" toLane="1" via=":Center_17_0" dir="R" state="m"/>
    <connection from="7" to="2" fromLane="1" toLane="1" via=":Center_18_0" dir="l" state="m"/>
    <connection from="7" to="3" fromLane="1" toLane="1" via=":Center_19_0" dir="t" state="m"/>
    <connection from="8" to="2" fromLane="0" toLane="0" via=":Center_5_0" dir="r" state="m"/>
    <connection from="8" to="3" fromLane="0" toLane="0" via=":Center_6_0" dir="L" state="m"/>
    <connection from="8" to="3" fromLane="1" toLane="1" via=":Center_7_0" dir="L" state="m"/>
    <connection from="8" to="1" fromLane="1" toLane="1" via=":Center_8_0" dir="l" state="m"/>
    <connection from="8" to="4" fromLane="1" toLane="1" via=":Center_9_0" dir="t" state="m"/>

    <connection from=":A_0" to="5" fromLane="0" toLane="1" dir="t" state="M"/>
    <connection from=":B_0" to="6" fromLane="0" toLane="1" dir="t" state="M"/>
    <connection from=":C_0" to="7" fromLane="0" toLane="1" dir="t" state="M"/>
    <connection from=":Center_0" to="3" fromLane="0" toLane="0" via=":Center_20_0" dir="r" state="m"/>
    <connection from=":Center_20" to="3" fromLane="0" toLane="0" dir="r" state="M"/>
    <connection from=":Center_1" to="1" fromLane="0" toLane="0" dir="s" state="M"/>
    <connection from=":Center_1" to="1" fromLane="1" toLane="1" dir="s" state="M"/>
    <connection from=":Center_3" to="4" fromLane="0" toLane="1" via=":Center_21_0" dir="l" state="m"/>
    <connection from=":Center_21" to="4" fromLane="0" toLane="1" dir="l" state="M"/>
    <connection from=":Center_4" to="2" fromLane="0" toLane="1" via=":Center_22_0" dir="t" state="m"/>
    <connection from=":Center_22" to="2" fromLane="0" toLane="1" dir="t" state="M"/>
    <connection from=":Center_5" to="2" fromLane="0" toLane="0" dir="r" state="M"/>
    <connection from=":Center_6" to="3" fromLane="0" toLane="0" dir="L" state="M"/>
    <connection from=":Center_7" to="3" fromLane="0" toLane="1" dir="L" state="M"/>
    <connection from=":Center_8" to="1" fromLane="0" toLane="1" dir="l" state="M"/>
    <connection from=":Center_9" to="4" fromLane="0" toLane="1" dir="t" state="M"/>
    <connection from=":Center_10" to="4" fromLane="0" toLane="0" dir="r" state="M"/>
    <connection from=":Center_11" to="2" fromLane="0" toLane="0" dir="s" state="M"/>
    <connection from=":Center_11" to="2" fromLane="1" toLane="1" dir="s" state="M"/>
    <connection from=":Center_13" to="3" fromLane="0" toLane="1" via=":Center_23_0" dir="l" state="m"/>
    <connection from=":Center_23" to="3" fromLane="0" toLane="1" dir="l" state="M"/>
    <connection from=":Center_14" to="1" fromLane="0" toLane="1" via=":Center_24_0" dir="t" state="m"/>
    <connection from=":Center_24" to="1" fromLane="0" toLane="1" dir="t" state="M"/>
    <connection from=":Center_15" to="1" fromLane="0" toLane="0" dir="r" state="M"/>
    <connection from=":Center_16" to="4" fromLane="0" toLane="0" dir="R" state="M"/>
    <connection from=":Center_17" to="4" fromLane="0" toLane="1" dir="R" state="M"/>
    <connection from=":Center_18" to="2" fromLane="0" toLane="1" dir="l" state="M"/>
    <connection from=":Center_19" to="3" fromLane="0" toLane="1" dir="t" state="M"/>
    <connection from=":D_0" to="8" fromLane="0" toLane="1" dir="t" state="M"/>

    <connection from=":A_w0" to="5" fromLane="0" toLane="0" dir="s" state="M"/>
    <connection from="1" to=":A_w0" fromLane="0" toLane="0" dir="s" state="M"/>
    <connection from=":B_w0" to="6" fromLane="0" toLane="0" dir="s" state="M"/>
    <connection from="2" to=":B_w0" fromLane="0" toLane="0" dir="s" state="M"/>
    <connection from=":C_w0" to="7" fromLane="0" toLane="0" dir="s" state="M"/>
    <connection from="3" to=":C_w0" fromLane="0" toLane="0" dir="s" state="M"/>
    <connection from=":Center_c0" to=":Center_w1" fromLane="0" toLane="0" dir="s" state="M"/>
    <connection from=":Center_c1" to=":Center_w2" fromLane="0" toLane="0" dir="s" state="M"/>
    <connection from=":Center_w0" to="2" fromLane="0" toLane="0" dir="s" state="M"/>
    <connection from=":Center_w0" to="4" fromLane="0" toLane="0" dir="s" state="M"/>
    <connection from=":Center_w0" to="1" fromLane="0" toLane="0" dir="s" state="M"/>
    <connection from=":Center_w0" to="3" fromLane="0" toLane="0" dir="s" state="M"/>
    <connection from="6" to=":Center_w0" fromLane="0" toLane="0" dir="s" state="M"/>
    <connection from="8" to=":Center_w0" fromLane="0" toLane="0" dir="s" state="M"/>
    <connection from="5" to=":Center_w0" fromLane="0" toLane="0" dir="s" state="M"/>
    <connection from="7" to=":Center_w0" fromLane="0" toLane="0" dir="s" state="M"/>
    <connection from=":Center_w1" to=":Center_c1" fromLane="0" toLane="0" dir="s" state="m"/>
    <connection from=":Center_w2" to=":Center_c0" fromLane="0" toLane="0" dir="s" state="M"/>
    <connection from=":D_w0" to="8" fromLane="0" toLane="0" dir="s" state="M"/>
    <connection from="4" to=":D_w0" fromLane="0" toLane="0" dir="s" state="M"/>
</net>
