<?xml version="1.0" encoding="UTF-8"?>

<!-- generated on 2022-04-20 09:45:29 by Eclipse SUMO netedit Version v1_12_0+2162-c3148f59955
-->

<routes xmlns:xsi="http://www.w3.org/2001/XMLSchema-instance" xsi:noNamespaceSchemaLocation="http://sumo.dlr.de/xsd/routes_file.xsd">
    <vType id="customType" length="20.00" width="5.00" height="12.00" color="cyan"/>
    <!-- Vehicles, containers and containers (sorted by depart) -->
    <container id="p_0" depart="0.00">
        <tranship from="gneE2" to="gneE5"/>
    </container>

    <container id="p_1" type="" depart="1.00">
        <tranship from="gneE2" to="gneE5"/>
    </container>

    <container id="p_2" type="dummyType" depart="2.00">
        <tranship from="gneE2" to="gneE5"/>
    </container>

    <container id="p_3" type="customType" depart="3.00">
        <tranship from="gneE2" to="gneE5"/>
    </container>
</routes>
