<?xml version="1.0" encoding="UTF-8"?>

<!-- generated on 2026-04-09T16:09:00.634101+01:00 by Eclipse SUMO netedit v1_26_0+1035-350daa49b68
This data file and the accompanying materials
are made available under the terms of the Eclipse Public License v2.0
which accompanies this distribution, and is available at
http://www.eclipse.org/legal/epl-v20.html
This file may also be made available under the following Secondary
Licenses when the conditions for such availability set forth in the Eclipse
Public License 2.0 are satisfied: GNU General Public License, version 2
or later which is available at
https://www.gnu.org/licenses/old-licenses/gpl-2.0-standalone.html
SPDX-License-Identifier: EPL-2.0 OR GPL-2.0-or-later
-->

<routes xmlns:xsi="http://www.w3.org/2001/XMLSchema-instance" xsi:noNamespaceSchemaLocation="http://sumo.dlr.de/xsd/routes_file.xsd">
    <!-- Vehicles, persons and containers (sorted by depart) -->
    <personFlow id="pf_0" begin="10.00" end="22.00" perHour="1200.00" departPos="0.00" color="12,13,14">
        <param key="KeyA1" value="valueA1"/>
        <param key="KeyA2" value="valueA3"/>
        <param key="KeyA3" value="valueA2"/>
        <personTrip from="Edge0" to="Edge1"/>
    </personFlow>
</routes>
