<?xml version="1.0" encoding="UTF-8"?>
<!-- generated on 2021-06-09 00:38:23.906734 by gtfs2pt.py v1_9_2+0412-04f89b33e3
  options: -n net.net.xml <doubleminus>gtfs gtfs.zip <doubleminus>date 20201111 <doubleminus>vtype-output vehtypes.xml <doubleminus>modes bus <doubleminus>begin 28800 <doubleminus>end 72000
-->
<routes xmlns:xsi="http://www.w3.org/2001/XMLSchema-instance" xsi:noNamespaceSchemaLocation="http://sumo.dlr.de/xsd/routes_file.xsd">
    <vehicle id="132244163.0" route="132244163" type="bus" depart="34670" line="620_132244163"/>
    <vehicle id="132244168.0" route="132244163" type="bus" depart="52670" line="620_132244163"/>
    <vehicle id="132244169.0" route="132244163" type="bus" depart="56270" line="620_132244163"/>
    <vehicle id="132244170.0" route="132244163" type="bus" depart="59870" line="620_132244163"/>
    <vehicle id="132244171.0" route="132244163" type="bus" depart="63470" line="620_132244163"/>
    <vehicle id="132244174.0" route="132244174" type="bus" depart="70670" line="620_132244174"/>
    <vehicle id="132244175.0" route="132244163" type="bus" depart="67070" line="620_132244163"/>
    <vehicle id="132244180.0" route="132244163" type="bus" depart="49070" line="620_132244163"/>
    <vehicle id="132244181.0" route="132244163" type="bus" depart="45470" line="620_132244163"/>
    <vehicle id="132244182.0" route="132244163" type="bus" depart="41870" line="620_132244163"/>
    <vehicle id="132244183.0" route="132244163" type="bus" depart="38270" line="620_132244163"/>
    <vehicle id="132244185.0" route="132244163" type="bus" depart="31070" line="620_132244163"/>
    <vehicle id="132244302.0" route="132244163" type="bus" depart="29270" line="620_132244163"/>
    <vehicle id="132244303.0" route="132244163" type="bus" depart="32870" line="620_132244163"/>
    <vehicle id="132244304.0" route="132244163" type="bus" depart="36470" line="620_132244163"/>
    <vehicle id="132244306.0" route="132244163" type="bus" depart="43670" line="620_132244163"/>
    <vehicle id="132244307.0" route="132244163" type="bus" depart="47270" line="620_132244163"/>
    <vehicle id="132244308.0" route="132244163" type="bus" depart="50870" line="620_132244163"/>
    <vehicle id="132244309.0" route="132244163" type="bus" depart="54470" line="620_132244163"/>
    <vehicle id="132244311.0" route="132244163" type="bus" depart="61670" line="620_132244163"/>
    <vehicle id="132244312.0" route="132244163" type="bus" depart="65270" line="620_132244163"/>
    <vehicle id="132244357.0" route="132244163" type="bus" depart="68870" line="620_132244163"/>
    <vehicle id="132244360.0" route="132244163" type="bus" depart="58070" line="620_132244163"/>
    <vehicle id="132244365.0" route="132244163" type="bus" depart="40070" line="620_132244163"/>
    <vehicle id="132244392.0" route="132244392" type="bus" depart="33290" line="620_132244392"/>
    <vehicle id="132244397.0" route="132244392" type="bus" depart="51290" line="620_132244392"/>
    <vehicle id="132244398.0" route="132244392" type="bus" depart="54890" line="620_132244392"/>
    <vehicle id="132244399.0" route="132244392" type="bus" depart="58490" line="620_132244392"/>
    <vehicle id="132244400.0" route="132244392" type="bus" depart="62090" line="620_132244392"/>
    <vehicle id="132244403.0" route="132244392" type="bus" depart="69290" line="620_132244392"/>
    <vehicle id="132244404.0" route="132244392" type="bus" depart="65690" line="620_132244392"/>
    <vehicle id="132244409.0" route="132244392" type="bus" depart="47690" line="620_132244392"/>
    <vehicle id="132244410.0" route="132244392" type="bus" depart="44090" line="620_132244392"/>
    <vehicle id="132244411.0" route="132244392" type="bus" depart="40490" line="620_132244392"/>
    <vehicle id="132244412.0" route="132244392" type="bus" depart="36890" line="620_132244392"/>
    <vehicle id="132244414.0" route="132244414" type="bus" depart="29690" line="620_132244414"/>
    <vehicle id="132244503.0" route="132244392" type="bus" depart="38690" line="620_132244392"/>
    <vehicle id="132244505.0" route="132244392" type="bus" depart="45890" line="620_132244392"/>
    <vehicle id="132244506.0" route="132244392" type="bus" depart="49490" line="620_132244392"/>
    <vehicle id="132244508.0" route="132244392" type="bus" depart="56690" line="620_132244392"/>
    <vehicle id="132244509.0" route="132244392" type="bus" depart="60290" line="620_132244392"/>
    <vehicle id="132244511.0" route="132244392" type="bus" depart="67490" line="620_132244392"/>
    <vehicle id="132244512.0" route="132244392" type="bus" depart="71090" line="620_132244392"/>
    <vehicle id="132244530.0" route="132244392" type="bus" depart="63890" line="620_132244392"/>
    <vehicle id="132244533.0" route="132244392" type="bus" depart="53090" line="620_132244392"/>
    <vehicle id="132244536.0" route="132244392" type="bus" depart="42290" line="620_132244392"/>
    <vehicle id="132244538.0" route="132244392" type="bus" depart="35090" line="620_132244392"/>
    <vehicle id="132244539.0" route="132244392" type="bus" depart="31490" line="620_132244392"/>
    <vehicle id="132185525.0" route="132185525" type="bus" depart="32390" line="418_132185525"/>
    <vehicle id="132185526.0" route="132185525" type="bus" depart="35990" line="418_132185525"/>
    <vehicle id="132185527.0" route="132185525" type="bus" depart="39590" line="418_132185525"/>
    <vehicle id="132185560.0" route="132185525" type="bus" depart="43190" line="418_132185525"/>
    <vehicle id="132185562.0" route="132185525" type="bus" depart="50390" line="418_132185525"/>
    <vehicle id="132185563.0" route="132185525" type="bus" depart="53990" line="418_132185525"/>
    <vehicle id="132185564.0" route="132185525" type="bus" depart="61190" line="418_132185525"/>
    <vehicle id="132185565.0" route="132185525" type="bus" depart="64790" line="418_132185525"/>
    <vehicle id="132185593.0" route="132185525" type="bus" depart="46790" line="418_132185525"/>
    <vehicle id="132185598.0" route="132185525" type="bus" depart="30590" line="418_132185525"/>
    <vehicle id="132185612.0" route="132185612" type="bus" depart="34070" line="418_132185612"/>
    <vehicle id="132185613.0" route="132185612" type="bus" depart="37670" line="418_132185612"/>
    <vehicle id="132185616.0" route="132185612" type="bus" depart="48470" line="418_132185612"/>
    <vehicle id="132185620.0" route="132185612" type="bus" depart="62870" line="418_132185612"/>
    <vehicle id="132185676.0" route="132185612" type="bus" depart="66470" line="418_132185612"/>
    <vehicle id="132185678.0" route="132185612" type="bus" depart="59270" line="418_132185612"/>
    <vehicle id="132185679.0" route="132185612" type="bus" depart="55670" line="418_132185612"/>
    <vehicle id="132185680.0" route="132185612" type="bus" depart="52070" line="418_132185612"/>
    <vehicle id="132185682.0" route="132185612" type="bus" depart="44870" line="418_132185612"/>
    <vehicle id="132185683.0" route="132185612" type="bus" depart="41270" line="418_132185612"/>
    <vehicle id="132185998.0" route="132185998" type="bus" depart="57470" line="418_132185998"/>
    <vehicle id="132185999.0" route="132185998" type="bus" depart="47870" line="418_132185998"/>
    <vehicle id="132186032.0" route="132185612" type="bus" depart="70070" line="418_132185612"/>
    <vehicle id="132186037.0" route="132185525" type="bus" depart="68390" line="418_132185525"/>
    <vehicle id="132186113.0" route="132186113" type="bus" depart="69230" line="418_132186113"/>
    <vehicle id="132186118.0" route="132186113" type="bus" depart="71030" line="418_132186113"/>
    <vehicle id="132186471.0" route="132186471" type="bus" depart="34970" line="418_132186471"/>
    <vehicle id="132186472.0" route="132186471" type="bus" depart="38570" line="418_132186471"/>
    <vehicle id="132186475.0" route="132186471" type="bus" depart="49370" line="418_132186471"/>
    <vehicle id="132186477.0" route="132186471" type="bus" depart="56570" line="418_132186471"/>
    <vehicle id="132186478.0" route="132186471" type="bus" depart="60170" line="418_132186471"/>
    <vehicle id="132186480.0" route="132186471" type="bus" depart="67370" line="418_132186471"/>
    <vehicle id="132186493.0" route="132186471" type="bus" depart="63770" line="418_132186471"/>
    <vehicle id="132186496.0" route="132186471" type="bus" depart="52970" line="418_132186471"/>
    <vehicle id="132186498.0" route="132186471" type="bus" depart="45770" line="418_132186471"/>
    <vehicle id="132186499.0" route="132186471" type="bus" depart="42170" line="418_132186471"/>
    <vehicle id="132186502.0" route="132186471" type="bus" depart="31370" line="418_132186471"/>
    <vehicle id="132186567.0" route="132186113" type="bus" depart="29570" line="418_132186113"/>
    <vehicle id="132186568.0" route="132186113" type="bus" depart="33170" line="418_132186113"/>
    <vehicle id="132186569.0" route="132186113" type="bus" depart="36770" line="418_132186113"/>
    <vehicle id="132186570.0" route="132186113" type="bus" depart="40370" line="418_132186113"/>
    <vehicle id="132186572.0" route="132186113" type="bus" depart="47570" line="418_132186113"/>
    <vehicle id="132186573.0" route="132186113" type="bus" depart="51170" line="418_132186113"/>
    <vehicle id="132186574.0" route="132186113" type="bus" depart="54770" line="418_132186113"/>
    <vehicle id="132186575.0" route="132186113" type="bus" depart="58370" line="418_132186113"/>
    <vehicle id="132186577.0" route="132186113" type="bus" depart="65570" line="418_132186113"/>
    <vehicle id="132186593.0" route="132186113" type="bus" depart="61970" line="418_132186113"/>
    <vehicle id="132186598.0" route="132186113" type="bus" depart="43970" line="418_132186113"/>
    <vehicle id="132187141.0" route="132187141" type="bus" depart="71150" line="420_132187141"/>
    <vehicle id="132187142.0" route="132187141" type="bus" depart="69350" line="420_132187141"/>
    <vehicle id="132187143.0" route="132187141" type="bus" depart="68450" line="420_132187141"/>
    <vehicle id="132187144.0" route="132187141" type="bus" depart="67550" line="420_132187141"/>
    <vehicle id="132187145.0" route="132187141" type="bus" depart="66650" line="420_132187141"/>
    <vehicle id="132187146.0" route="132187141" type="bus" depart="65750" line="420_132187141"/>
    <vehicle id="132187147.0" route="132187141" type="bus" depart="64850" line="420_132187141"/>
    <vehicle id="132187148.0" route="132187141" type="bus" depart="63950" line="420_132187141"/>
    <vehicle id="132187149.0" route="132187141" type="bus" depart="63050" line="420_132187141"/>
    <vehicle id="132187150.0" route="132187141" type="bus" depart="62150" line="420_132187141"/>
    <vehicle id="132187151.0" route="132187141" type="bus" depart="61250" line="420_132187141"/>
    <vehicle id="132187152.0" route="132187141" type="bus" depart="60350" line="420_132187141"/>
    <vehicle id="132187153.0" route="132187141" type="bus" depart="59450" line="420_132187141"/>
    <vehicle id="132187154.0" route="132187141" type="bus" depart="58550" line="420_132187141"/>
    <vehicle id="132187155.0" route="132187141" type="bus" depart="57650" line="420_132187141"/>
    <vehicle id="132187156.0" route="132187141" type="bus" depart="56750" line="420_132187141"/>
    <vehicle id="132187157.0" route="132187141" type="bus" depart="55850" line="420_132187141"/>
    <vehicle id="132187158.0" route="132187141" type="bus" depart="54950" line="420_132187141"/>
    <vehicle id="132187159.0" route="132187141" type="bus" depart="54050" line="420_132187141"/>
    <vehicle id="132187160.0" route="132187141" type="bus" depart="53150" line="420_132187141"/>
    <vehicle id="132187161.0" route="132187141" type="bus" depart="52250" line="420_132187141"/>
    <vehicle id="132187162.0" route="132187141" type="bus" depart="51350" line="420_132187141"/>
    <vehicle id="132187163.0" route="132187141" type="bus" depart="50450" line="420_132187141"/>
    <vehicle id="132187164.0" route="132187141" type="bus" depart="49550" line="420_132187141"/>
    <vehicle id="132187165.0" route="132187141" type="bus" depart="48650" line="420_132187141"/>
    <vehicle id="132187166.0" route="132187141" type="bus" depart="47750" line="420_132187141"/>
    <vehicle id="132187167.0" route="132187141" type="bus" depart="46850" line="420_132187141"/>
    <vehicle id="132187168.0" route="132187141" type="bus" depart="45950" line="420_132187141"/>
    <vehicle id="132187169.0" route="132187141" type="bus" depart="45050" line="420_132187141"/>
    <vehicle id="132187170.0" route="132187141" type="bus" depart="44150" line="420_132187141"/>
    <vehicle id="132187171.0" route="132187141" type="bus" depart="43250" line="420_132187141"/>
    <vehicle id="132187172.0" route="132187141" type="bus" depart="42350" line="420_132187141"/>
    <vehicle id="132187173.0" route="132187141" type="bus" depart="41450" line="420_132187141"/>
    <vehicle id="132187174.0" route="132187141" type="bus" depart="40550" line="420_132187141"/>
    <vehicle id="132187175.0" route="132187141" type="bus" depart="39650" line="420_132187141"/>
    <vehicle id="132187176.0" route="132187141" type="bus" depart="38750" line="420_132187141"/>
    <vehicle id="132187177.0" route="132187141" type="bus" depart="37850" line="420_132187141"/>
    <vehicle id="132187178.0" route="132187141" type="bus" depart="36950" line="420_132187141"/>
    <vehicle id="132187179.0" route="132187141" type="bus" depart="36050" line="420_132187141"/>
    <vehicle id="132187180.0" route="132187141" type="bus" depart="35150" line="420_132187141"/>
    <vehicle id="132187181.0" route="132187141" type="bus" depart="34250" line="420_132187141"/>
    <vehicle id="132187182.0" route="132187141" type="bus" depart="33350" line="420_132187141"/>
    <vehicle id="132187183.0" route="132187141" type="bus" depart="32450" line="420_132187141"/>
    <vehicle id="132187184.0" route="132187141" type="bus" depart="31550" line="420_132187141"/>
    <vehicle id="132187185.0" route="132187141" type="bus" depart="30650" line="420_132187141"/>
    <vehicle id="132187186.0" route="132187141" type="bus" depart="29750" line="420_132187141"/>
    <vehicle id="132187187.0" route="132187187" type="bus" depart="28850" line="420_132187187"/>
    <vehicle id="132187920.0" route="132187920" type="bus" depart="71810" line="420_132187920"/>
    <vehicle id="132187921.0" route="132187921" type="bus" depart="70910" line="420_132187921"/>
    <vehicle id="132187922.0" route="132187921" type="bus" depart="70010" line="420_132187921"/>
    <vehicle id="132187923.0" route="132187921" type="bus" depart="69110" line="420_132187921"/>
    <vehicle id="132187924.0" route="132187921" type="bus" depart="68210" line="420_132187921"/>
    <vehicle id="132187925.0" route="132187921" type="bus" depart="67310" line="420_132187921"/>
    <vehicle id="132187926.0" route="132187921" type="bus" depart="66410" line="420_132187921"/>
    <vehicle id="132187927.0" route="132187921" type="bus" depart="65510" line="420_132187921"/>
    <vehicle id="132187928.0" route="132187921" type="bus" depart="64610" line="420_132187921"/>
    <vehicle id="132187929.0" route="132187921" type="bus" depart="63710" line="420_132187921"/>
    <vehicle id="132187930.0" route="132187921" type="bus" depart="62810" line="420_132187921"/>
    <vehicle id="132187931.0" route="132187921" type="bus" depart="61910" line="420_132187921"/>
    <vehicle id="132187932.0" route="132187921" type="bus" depart="61010" line="420_132187921"/>
    <vehicle id="132187933.0" route="132187921" type="bus" depart="60110" line="420_132187921"/>
    <vehicle id="132187934.0" route="132187921" type="bus" depart="59210" line="420_132187921"/>
    <vehicle id="132187935.0" route="132187921" type="bus" depart="58310" line="420_132187921"/>
    <vehicle id="132187936.0" route="132187921" type="bus" depart="57410" line="420_132187921"/>
    <vehicle id="132187937.0" route="132187921" type="bus" depart="56510" line="420_132187921"/>
    <vehicle id="132187938.0" route="132187921" type="bus" depart="55610" line="420_132187921"/>
    <vehicle id="132187939.0" route="132187921" type="bus" depart="54710" line="420_132187921"/>
    <vehicle id="132187940.0" route="132187921" type="bus" depart="53810" line="420_132187921"/>
    <vehicle id="132187941.0" route="132187921" type="bus" depart="52910" line="420_132187921"/>
    <vehicle id="132187942.0" route="132187921" type="bus" depart="52010" line="420_132187921"/>
    <vehicle id="132187943.0" route="132187921" type="bus" depart="51110" line="420_132187921"/>
    <vehicle id="132187944.0" route="132187921" type="bus" depart="50210" line="420_132187921"/>
    <vehicle id="132187945.0" route="132187921" type="bus" depart="49310" line="420_132187921"/>
    <vehicle id="132187946.0" route="132187921" type="bus" depart="48410" line="420_132187921"/>
    <vehicle id="132187947.0" route="132187921" type="bus" depart="47510" line="420_132187921"/>
    <vehicle id="132187948.0" route="132187921" type="bus" depart="46610" line="420_132187921"/>
    <vehicle id="132187949.0" route="132187921" type="bus" depart="45710" line="420_132187921"/>
    <vehicle id="132187950.0" route="132187921" type="bus" depart="44810" line="420_132187921"/>
    <vehicle id="132187951.0" route="132187921" type="bus" depart="43910" line="420_132187921"/>
    <vehicle id="132187952.0" route="132187921" type="bus" depart="43010" line="420_132187921"/>
    <vehicle id="132187953.0" route="132187921" type="bus" depart="42110" line="420_132187921"/>
    <vehicle id="132187954.0" route="132187921" type="bus" depart="41210" line="420_132187921"/>
    <vehicle id="132187955.0" route="132187921" type="bus" depart="40310" line="420_132187921"/>
    <vehicle id="132187956.0" route="132187921" type="bus" depart="39410" line="420_132187921"/>
    <vehicle id="132187957.0" route="132187921" type="bus" depart="38510" line="420_132187921"/>
    <vehicle id="132187958.0" route="132187921" type="bus" depart="37610" line="420_132187921"/>
    <vehicle id="132187959.0" route="132187921" type="bus" depart="36710" line="420_132187921"/>
    <vehicle id="132187960.0" route="132187921" type="bus" depart="35810" line="420_132187921"/>
    <vehicle id="132187961.0" route="132187921" type="bus" depart="34910" line="420_132187921"/>
    <vehicle id="132187962.0" route="132187921" type="bus" depart="34010" line="420_132187921"/>
    <vehicle id="132187963.0" route="132187921" type="bus" depart="33110" line="420_132187921"/>
    <vehicle id="132187964.0" route="132187921" type="bus" depart="32210" line="420_132187921"/>
    <vehicle id="132187965.0" route="132187921" type="bus" depart="31310" line="420_132187921"/>
    <vehicle id="132187966.0" route="132187921" type="bus" depart="30410" line="420_132187921"/>
    <vehicle id="132187967.0" route="132187921" type="bus" depart="29510" line="420_132187921"/>
    <vehicle id="132188190.0" route="132188190" type="bus" depart="35570" line="422_132188190"/>
    <vehicle id="132188192.0" route="132188190" type="bus" depart="39170" line="422_132188190"/>
    <vehicle id="132188194.0" route="132188190" type="bus" depart="42770" line="422_132188190"/>
    <vehicle id="132188195.0" route="132188190" type="bus" depart="44570" line="422_132188190"/>
    <vehicle id="132188196.0" route="132188190" type="bus" depart="46370" line="422_132188190"/>
    <vehicle id="132188199.0" route="132188190" type="bus" depart="51770" line="422_132188190"/>
    <vehicle id="132188201.0" route="132188190" type="bus" depart="55370" line="422_132188190"/>
    <vehicle id="132188202.0" route="132188190" type="bus" depart="57170" line="422_132188190"/>
    <vehicle id="132188205.0" route="132188190" type="bus" depart="62570" line="422_132188190"/>
    <vehicle id="132188206.0" route="132188190" type="bus" depart="64370" line="422_132188190"/>
    <vehicle id="132188207.0" route="132188190" type="bus" depart="66170" line="422_132188190"/>
    <vehicle id="132188208.0" route="132188190" type="bus" depart="67970" line="422_132188190"/>
    <vehicle id="132188233.0" route="132188233" type="bus" depart="71570" line="422_132188233"/>
    <vehicle id="132188234.0" route="132188190" type="bus" depart="69770" line="422_132188190"/>
    <vehicle id="132188239.0" route="132188190" type="bus" depart="60770" line="422_132188190"/>
    <vehicle id="132188240.0" route="132188190" type="bus" depart="58970" line="422_132188190"/>
    <vehicle id="132188243.0" route="132188190" type="bus" depart="53570" line="422_132188190"/>
    <vehicle id="132188245.0" route="132188190" type="bus" depart="49970" line="422_132188190"/>
    <vehicle id="132188246.0" route="132188190" type="bus" depart="48170" line="422_132188190"/>
    <vehicle id="132188250.0" route="132188190" type="bus" depart="40970" line="422_132188190"/>
    <vehicle id="132188252.0" route="132188190" type="bus" depart="37370" line="422_132188190"/>
    <vehicle id="132188254.0" route="132188190" type="bus" depart="33770" line="422_132188190"/>
    <vehicle id="132188255.0" route="132188190" type="bus" depart="31970" line="422_132188190"/>
    <vehicle id="132188256.0" route="132188190" type="bus" depart="30170" line="422_132188190"/>
    <vehicle id="132188486.0" route="132188486" type="bus" depart="69530" line="422_132188486"/>
    <vehicle id="132188510.0" route="132188510" type="bus" depart="71330" line="422_132188510"/>
    <vehicle id="132188702.0" route="132188486" type="bus" depart="35210" line="422_132188486"/>
    <vehicle id="132188705.0" route="132188486" type="bus" depart="40610" line="422_132188486"/>
    <vehicle id="132188710.0" route="132188486" type="bus" depart="49610" line="422_132188486"/>
    <vehicle id="132188711.0" route="132188486" type="bus" depart="51410" line="422_132188486"/>
    <vehicle id="132188714.0" route="132188486" type="bus" depart="56810" line="422_132188486"/>
    <vehicle id="132188716.0" route="132188486" type="bus" depart="60410" line="422_132188486"/>
    <vehicle id="132188718.0" route="132188486" type="bus" depart="64010" line="422_132188486"/>
    <vehicle id="132188720.0" route="132188486" type="bus" depart="67610" line="422_132188486"/>
    <vehicle id="132188722.0" route="132188486" type="bus" depart="65810" line="422_132188486"/>
    <vehicle id="132188724.0" route="132188486" type="bus" depart="62210" line="422_132188486"/>
    <vehicle id="132188726.0" route="132188486" type="bus" depart="58610" line="422_132188486"/>
    <vehicle id="132188728.0" route="132188486" type="bus" depart="55010" line="422_132188486"/>
    <vehicle id="132188729.0" route="132188486" type="bus" depart="53210" line="422_132188486"/>
    <vehicle id="132188732.0" route="132188486" type="bus" depart="47810" line="422_132188486"/>
    <vehicle id="132188733.0" route="132188486" type="bus" depart="46010" line="422_132188486"/>
    <vehicle id="132188734.0" route="132188486" type="bus" depart="44210" line="422_132188486"/>
    <vehicle id="132188735.0" route="132188486" type="bus" depart="42410" line="422_132188486"/>
    <vehicle id="132188737.0" route="132188486" type="bus" depart="38810" line="422_132188486"/>
    <vehicle id="132188738.0" route="132188486" type="bus" depart="37010" line="422_132188486"/>
    <vehicle id="132188740.0" route="132188486" type="bus" depart="33410" line="422_132188486"/>
    <vehicle id="132188741.0" route="132188486" type="bus" depart="31610" line="422_132188486"/>
    <vehicle id="132188742.0" route="132188486" type="bus" depart="29810" line="422_132188486"/>
    <vehicle id="132203582.0" route="132203582" type="bus" depart="71330" line="450_132203582"/>
    <vehicle id="132203583.0" route="132203583" type="bus" depart="69530" line="450_132203583"/>
    <vehicle id="132203584.0" route="132203583" type="bus" depart="67730" line="450_132203583"/>
    <vehicle id="132203585.0" route="132203583" type="bus" depart="65930" line="450_132203583"/>
    <vehicle id="132203586.0" route="132203583" type="bus" depart="64130" line="450_132203583"/>
    <vehicle id="132203587.0" route="132203583" type="bus" depart="62330" line="450_132203583"/>
    <vehicle id="132203588.0" route="132203583" type="bus" depart="60530" line="450_132203583"/>
    <vehicle id="132203589.0" route="132203583" type="bus" depart="58730" line="450_132203583"/>
    <vehicle id="132203590.0" route="132203583" type="bus" depart="56930" line="450_132203583"/>
    <vehicle id="132203591.0" route="132203583" type="bus" depart="55130" line="450_132203583"/>
    <vehicle id="132203592.0" route="132203583" type="bus" depart="53330" line="450_132203583"/>
    <vehicle id="132203593.0" route="132203583" type="bus" depart="51530" line="450_132203583"/>
    <vehicle id="132203594.0" route="132203583" type="bus" depart="49730" line="450_132203583"/>
    <vehicle id="132203595.0" route="132203583" type="bus" depart="47930" line="450_132203583"/>
    <vehicle id="132203596.0" route="132203583" type="bus" depart="46130" line="450_132203583"/>
    <vehicle id="132203597.0" route="132203583" type="bus" depart="44330" line="450_132203583"/>
    <vehicle id="132203598.0" route="132203583" type="bus" depart="42530" line="450_132203583"/>
    <vehicle id="132203599.0" route="132203583" type="bus" depart="40730" line="450_132203583"/>
    <vehicle id="132203600.0" route="132203583" type="bus" depart="38930" line="450_132203583"/>
    <vehicle id="132203601.0" route="132203583" type="bus" depart="37130" line="450_132203583"/>
    <vehicle id="132203602.0" route="132203583" type="bus" depart="35330" line="450_132203583"/>
    <vehicle id="132203603.0" route="132203583" type="bus" depart="33530" line="450_132203583"/>
    <vehicle id="132203604.0" route="132203583" type="bus" depart="31730" line="450_132203583"/>
    <vehicle id="132203605.0" route="132203583" type="bus" depart="29930" line="450_132203583"/>
    <vehicle id="132203990.0" route="132203990" type="bus" depart="70310" line="450_132203990"/>
    <vehicle id="132203991.0" route="132203990" type="bus" depart="68510" line="450_132203990"/>
    <vehicle id="132203992.0" route="132203990" type="bus" depart="66710" line="450_132203990"/>
    <vehicle id="132203993.0" route="132203990" type="bus" depart="64910" line="450_132203990"/>
    <vehicle id="132203994.0" route="132203990" type="bus" depart="63110" line="450_132203990"/>
    <vehicle id="132203995.0" route="132203990" type="bus" depart="61310" line="450_132203990"/>
    <vehicle id="132203996.0" route="132203990" type="bus" depart="59510" line="450_132203990"/>
    <vehicle id="132203997.0" route="132203990" type="bus" depart="57710" line="450_132203990"/>
    <vehicle id="132203998.0" route="132203990" type="bus" depart="55910" line="450_132203990"/>
    <vehicle id="132203999.0" route="132203990" type="bus" depart="54110" line="450_132203990"/>
    <vehicle id="132204000.0" route="132203990" type="bus" depart="52310" line="450_132203990"/>
    <vehicle id="132204001.0" route="132203990" type="bus" depart="50510" line="450_132203990"/>
    <vehicle id="132204002.0" route="132203990" type="bus" depart="48710" line="450_132203990"/>
    <vehicle id="132204003.0" route="132203990" type="bus" depart="46910" line="450_132203990"/>
    <vehicle id="132204004.0" route="132203990" type="bus" depart="45110" line="450_132203990"/>
    <vehicle id="132204005.0" route="132203990" type="bus" depart="43310" line="450_132203990"/>
    <vehicle id="132204006.0" route="132203990" type="bus" depart="41510" line="450_132203990"/>
    <vehicle id="132204007.0" route="132203990" type="bus" depart="39710" line="450_132203990"/>
    <vehicle id="132204008.0" route="132203990" type="bus" depart="37910" line="450_132203990"/>
    <vehicle id="132204009.0" route="132203990" type="bus" depart="36110" line="450_132203990"/>
    <vehicle id="132204010.0" route="132203990" type="bus" depart="34310" line="450_132203990"/>
    <vehicle id="132204011.0" route="132203990" type="bus" depart="32510" line="450_132203990"/>
    <vehicle id="132204012.0" route="132203990" type="bus" depart="30710" line="450_132203990"/>
    <vehicle id="132204015.0" route="132204015" type="bus" depart="28970" line="450_132204015"/>
    <vehicle id="132204557.0" route="132204557" type="bus" depart="69170" line="461_132204557"/>
    <vehicle id="132204558.0" route="132204557" type="bus" depart="67370" line="461_132204557"/>
    <vehicle id="132204559.0" route="132204557" type="bus" depart="65570" line="461_132204557"/>
    <vehicle id="132204560.0" route="132204557" type="bus" depart="63770" line="461_132204557"/>
    <vehicle id="132204561.0" route="132204557" type="bus" depart="61970" line="461_132204557"/>
    <vehicle id="132204562.0" route="132204557" type="bus" depart="60170" line="461_132204557"/>
    <vehicle id="132204563.0" route="132204557" type="bus" depart="58370" line="461_132204557"/>
    <vehicle id="132204564.0" route="132204557" type="bus" depart="56570" line="461_132204557"/>
    <vehicle id="132204565.0" route="132204557" type="bus" depart="54770" line="461_132204557"/>
    <vehicle id="132204566.0" route="132204557" type="bus" depart="52970" line="461_132204557"/>
    <vehicle id="132204567.0" route="132204557" type="bus" depart="51170" line="461_132204557"/>
    <vehicle id="132204568.0" route="132204557" type="bus" depart="49370" line="461_132204557"/>
    <vehicle id="132204569.0" route="132204557" type="bus" depart="47570" line="461_132204557"/>
    <vehicle id="132204570.0" route="132204557" type="bus" depart="45770" line="461_132204557"/>
    <vehicle id="132204571.0" route="132204557" type="bus" depart="43970" line="461_132204557"/>
    <vehicle id="132204572.0" route="132204557" type="bus" depart="42170" line="461_132204557"/>
    <vehicle id="132204573.0" route="132204557" type="bus" depart="40370" line="461_132204557"/>