<?xml version="1.0" encoding="UTF-8"?>

<!-- generated on Thu Apr 23 10:48:04 2020 by Eclipse SUMO netconvert Version v1_5_0+1262-87c7f4a707
This data file and the accompanying materials
are made available under the terms of the Eclipse Public License v2.0
which accompanies this distribution, and is available at
http://www.eclipse.org/legal/epl-v20.html
SPDX-License-Identifier: EPL-2.0
<configuration xmlns:xsi="http://www.w3.org/2001/XMLSchema-instance" xsi:noNamespaceSchemaLocation="http://sumo.dlr.de/xsd/netconvertConfiguration.xsd">

    <input>
        <shapefile-prefix value="data/roads"/>
        <shapefile.traditional-axis-mapping value="true"/>
    </input>

    <output>
        <write-license value="true"/>
    </output>

    <projection>
        <proj.utm value="true"/>
    </projection>

    <formats>
        <shapefile.street-id value="osm_id"/>
        <shapefile.use-defaults-on-failure value="true"/>
    </formats>

    <report>
        <xml-validation value="never"/>
        <aggregate-warnings value="5"/>
    </report>

</configuration>
-->

<net version="1.6" junctionCornerDetail="5" limitTurnSpeed="5.50" xmlns:xsi="http://www.w3.org/2001/XMLSchema-instance" xsi:noNamespaceSchemaLocation="http://sumo.dlr.de/xsd/net_file.xsd">

    <location netOffset="-393250.70,-5817849.97" convBoundary="0.00,0.00,647.20,469.84" origBoundary="13.427344,52.500380,13.436832,52.504554" projParameter="+proj=utm +zone=33 +ellps=WGS84 +datum=WGS84 +units=m +no_defs"/>

    <edge id=":1_0" function="internal">
        <lane id=":1_0_0" index="0" speed="6.44" length="9.03" shape="363.80,229.95 362.16,228.08 360.33,227.21 358.30,227.33 356.08,228.45"/>
    </edge>
    <edge id=":1_1" function="internal">
        <lane id=":1_1_0" index="0" speed="13.89" length="11.31" shape="363.80,229.95 357.63,220.47"/>
    </edge>
    <edge id=":1_2" function="internal">
        <lane id=":1_2_0" index="0" speed="13.89" length="11.31" shape="365.34,221.95 356.08,228.45"/>
    </edge>
    <edge id=":1_3" function="internal">
        <lane id=":1_3_0" index="0" speed="6.42" length="4.30" shape="365.34,221.95 363.13,223.08 361.32,223.20"/>
    </edge>
    <edge id=":1_4" function="internal">
        <lane id=":1_4_0" index="0" speed="6.42" length="4.73" shape="361.32,223.20 361.10,223.21 359.27,222.34 357.63,220.47"/>
    </edge>
    <edge id=":10_0" function="internal">
        <lane id=":10_0_0" index="0" speed="13.89" length="10.88" shape="291.20,118.22 285.48,108.97"/>
    </edge>
    <edge id=":10_1" function="internal">
        <lane id=":10_1_0" index="0" speed="6.45" length="4.08" shape="291.20,118.22 290.19,116.05 290.14,114.36"/>
    </edge>
    <edge id=":10_4" function="internal">
        <lane id=":10_4_0" index="0" speed="6.45" length="4.71" shape="290.14,114.36 290.13,114.07 291.00,112.27 292.82,110.66"/>
    </edge>
    <edge id=":10_2" function="internal">
        <lane id=":10_2_0" index="0" speed="6.59" length="8.90" shape="283.75,116.67 285.55,115.07 286.43,113.25 286.41,111.22 285.48,108.97"/>
    </edge>
    <edge id=":10_3" function="internal">
        <lane id=":10_3_0" index="0" speed="13.89" length="10.88" shape="283.75,116.67 292.82,110.66"/>
    </edge>
    <edge id=":104_0" function="internal">
        <lane id=":104_0_0" index="0" speed="13.89" length="0.10" shape="152.87,371.83 152.87,371.83"/>
    </edge>
    <edge id=":108_0" function="internal">
        <lane id=":108_0_0" index="0" speed="13.89" length="0.28" shape="115.13,410.26 114.97,410.02"/>
    </edge>
    <edge id=":11_0" function="internal">
        <lane id=":11_0_0" index="0" speed="4.19" length="1.26" shape="266.14,76.01 266.00,75.71 265.93,75.41 265.92,75.11 265.97,74.79"/>
    </edge>
    <edge id=":110_0" function="internal">
        <lane id=":110_0_0" index="0" speed="13.89" length="0.10" shape="123.00,422.24 123.00,422.24"/>
    </edge>
    <edge id=":116_0" function="internal">
        <lane id=":116_0_0" index="0" speed="13.89" length="0.97" shape="86.54,211.26 86.28,211.39 86.10,211.46 85.90,211.48 85.61,211.46"/>
    </edge>
    <edge id=":123_0" function="internal">
        <lane id=":123_0_0" index="0" speed="13.89" length="0.10" shape="15.50,201.36 15.50,201.36"/>
    </edge>
    <edge id=":124_0" function="internal">
        <lane id=":124_0_0" index="0" speed="13.89" length="0.29" shape="95.93,206.02 95.67,206.16"/>
    </edge>
    <edge id=":131_0" function="internal">
        <lane id=":131_0_0" index="0" speed="13.89" length="0.30" shape="415.75,14.99 415.58,14.74"/>
    </edge>
    <edge id=":133_0" function="internal">
        <lane id=":133_0_0" index="0" speed="13.89" length="0.29" shape="332.62,18.45 332.33,18.38"/>
    </edge>
    <edge id=":135_0" function="internal">
        <lane id=":135_0_0" index="0" speed="13.89" length="0.10" shape="284.71,41.84 284.71,41.84"/>
    </edge>
    <edge id=":136_0" function="internal">
        <lane id=":136_0_0" index="0" speed="13.89" length="0.29" shape="391.32,15.88 391.16,15.63"/>
    </edge>
    <edge id=":139_0" function="internal">
        <lane id=":139_0_0" index="0" speed="13.89" length="0.30" shape="296.79,44.94 297.08,45.02"/>
    </edge>
    <edge id=":143_0" function="internal">
        <lane id=":143_0_0" index="0" speed="13.89" length="0.10" shape="358.91,52.80 358.91,52.80"/>
    </edge>
    <edge id=":144_0" function="internal">
        <lane id=":144_0_0" index="0" speed="13.89" length="0.30" shape="408.70,4.46 408.53,4.21"/>
    </edge>
    <edge id=":146_0" function="internal">
        <lane id=":146_0_0" index="0" speed="13.89" length="0.24" shape="292.56,12.66 292.32,12.60"/>
    </edge>
    <edge id=":149_0" function="internal">
        <lane id=":149_0_0" index="0" speed="13.89" length="0.10" shape="351.74,41.73 351.74,41.73"/>
    </edge>
    <edge id=":151_0" function="internal">
        <lane id=":151_0_0" index="0" speed="13.89" length="0.29" shape="320.44,15.35 320.16,15.28"/>
    </edge>
    <edge id=":155_0" function="internal">
        <lane id=":155_0_0" index="0" speed="13.89" length="0.10" shape="398.08,26.88 398.08,26.88"/>
    </edge>
    <edge id=":160_0" function="internal">
        <lane id=":160_0_0" index="0" speed="13.89" length="0.30" shape="305.29,15.73 305.00,15.66"/>
    </edge>
    <edge id=":164_0" function="internal">
        <lane id=":164_0_0" index="0" speed="13.89" length="0.10" shape="319.47,177.37 319.47,177.37"/>
    </edge>
    <edge id=":166_0" function="internal">
        <lane id=":166_0_0" index="0" speed="13.89" length="0.10" shape="245.60,222.24 245.60,222.24"/>
    </edge>
    <edge id=":172_0" function="internal">
        <lane id=":172_0_0" index="0" speed="13.89" length="0.10" shape="537.23,290.41 537.23,290.41"/>
    </edge>
    <edge id=":175_0" function="internal">
        <lane id=":175_0_0" index="0" speed="13.89" length="0.10" shape="514.33,146.74 514.33,146.74"/>
    </edge>
    <edge id=":182_0" function="internal">
        <lane id=":182_0_0" index="0" speed="13.89" length="0.30" shape="505.89,134.67 505.72,134.43"/>
    </edge>
    <edge id=":2_0" function="internal">
        <lane id=":2_0_0" index="0" speed="3.93" length="2.19" shape="352.01,413.87 351.43,413.97 350.93,413.89 350.50,413.62 350.13,413.16"/>
    </edge>
    <edge id=":206_0" function="internal">
        <lane id=":206_0_0" index="0" speed="13.89" length="0.30" shape="540.36,288.04 540.12,288.22"/>
    </edge>
    <edge id=":21_0" function="internal">
        <lane id=":21_0_0" index="0" speed="7.14" length="3.31" shape="193.53,27.51 191.96,26.82 190.72,25.82"/>
    </edge>
    <edge id=":21_2" function="internal">
        <lane id=":21_2_0" index="0" speed="7.14" length="3.33" shape="190.72,25.82 189.81,24.51 189.23,22.88"/>
    </edge>
    <edge id=":21_1" function="internal">
        <lane id=":21_1_0" index="0" speed="6.59" length="6.60" shape="186.96,28.62 188.26,27.45 189.08,26.10 189.40,24.57 189.23,22.88"/>
    </edge>
    <edge id=":210_0" function="internal">
        <lane id=":210_0_0" index="0" speed="13.89" length="0.10" shape="108.40,165.21 108.40,165.21"/>
    </edge>
    <edge id=":211_0" function="internal">
        <lane id=":211_0_0" index="0" speed="13.89" length="0.10" shape="118.14,158.86 118.14,158.86"/>
    </edge>
    <edge id=":212_0" function="internal">
        <lane id=":212_0_0" index="0" speed="13.89" length="0.29" shape="97.63,171.44 97.88,171.29"/>
    </edge>
    <edge id=":26_0" function="internal">
        <lane id=":26_0_0" index="0" speed="6.36" length="9.04" shape="116.15,220.55 117.67,222.54 119.44,223.51 121.46,223.46 123.72,222.40"/>
    </edge>
    <edge id=":26_1" function="internal">
        <lane id=":26_1_0" index="0" speed="13.89" length="11.19" shape="116.15,220.55 121.56,230.35"/>
    </edge>
    <edge id=":27_0" function="internal">
        <lane id=":27_0_0" index="0" speed="13.89" length="11.04" shape="206.55,174.45 200.82,165.01"/>
    </edge>
    <edge id=":27_1" function="internal">
        <lane id=":27_1_0" index="0" speed="6.59" length="4.25" shape="206.55,174.45 205.59,172.19 205.56,170.40"/>
    </edge>
    <edge id=":27_4" function="internal">
        <lane id=":27_4_0" index="0" speed="6.59" length="4.76" shape="205.56,170.40 205.56,170.15 206.46,168.31 208.29,166.68"/>
    </edge>
    <edge id=":27_2" function="internal">
        <lane id=":27_2_0" index="0" speed="6.58" length="8.99" shape="199.08,172.77 200.92,171.14 201.82,169.31 201.79,167.27 200.82,165.01"/>
    </edge>
    <edge id=":27_3" function="internal">
        <lane id=":27_3_0" index="0" speed="13.89" length="11.04" shape="199.08,172.77 208.29,166.68"/>
    </edge>
    <edge id=":3_0" function="internal">
        <lane id=":3_0_0" index="0" speed="6.34" length="9.04" shape="277.19,290.97 275.61,289.03 273.81,288.12 271.80,288.24 269.58,289.39"/>
    </edge>
    <edge id=":3_1" function="internal">
        <lane id=":3_1_0" index="0" speed="13.89" length="11.45" shape="277.19,290.97 271.27,281.17"/>
    </edge>
    <edge id=":3_2" function="internal">
        <lane id=":3_2_0" index="0" speed="13.89" length="11.45" shape="278.90,282.74 269.58,289.39"/>
    </edge>
    <edge id=":3_3" function="internal">
        <lane id=":3_3_0" index="0" speed="6.35" length="4.33" shape="278.90,282.74 276.68,283.89 274.85,283.99"/>
    </edge>
    <edge id=":3_4" function="internal">
        <lane id=":3_4_0" index="0" speed="6.35" length="4.71" shape="274.85,283.99 274.66,284.01 272.86,283.10 271.27,281.17"/>
    </edge>
    <edge id=":31_0" function="internal">
        <lane id=":31_0_0" index="0" speed="6.72" length="8.93" shape="190.35,345.58 188.58,347.23 187.69,349.08 187.67,351.13 188.54,353.38"/>
    </edge>
    <edge id=":31_1" function="internal">
        <lane id=":31_1_0" index="0" speed="13.89" length="10.78" shape="190.35,345.58 181.52,351.76"/>
    </edge>
    <edge id=":31_2" function="internal">
        <lane id=":31_2_0" index="0" speed="13.89" length="10.78" shape="183.35,343.94 188.54,353.38"/>
    </edge>
    <edge id=":31_3" function="internal">
        <lane id=":31_3_0" index="0" speed="6.75" length="4.16" shape="183.35,343.94 184.20,346.20 184.18,347.95"/>
    </edge>
    <edge id=":31_4" function="internal">
        <lane id=":31_4_0" index="0" speed="6.75" length="4.79" shape="184.18,347.95 184.18,348.26 183.29,350.12 181.52,351.76"/>
    </edge>
    <edge id=":38_0" function="internal">
        <lane id=":38_0_0" index="0" speed="13.89" length="0.30" shape="105.62,145.58 105.88,145.44"/>
    </edge>
    <edge id=":39_0" function="internal">
        <lane id=":39_0_0" index="0" speed="13.89" length="0.30" shape="116.50,139.49 116.77,139.35"/>
    </edge>
    <edge id=":4_0" function="internal">
        <lane id=":4_0_0" index="0" speed="4.03" length="1.65" shape="266.50,33.03 266.56,32.61 266.51,32.22 266.36,31.85 266.10,31.51"/>
    </edge>
    <edge id=":40_0" function="internal">
        <lane id=":40_0_0" index="0" speed="13.89" length="0.10" shape="88.62,155.10 88.62,155.10"/>
    </edge>
    <edge id=":41_0" function="internal">
        <lane id=":41_0_0" index="0" speed="13.89" length="0.30" shape="99.76,148.86 100.02,148.71"/>
    </edge>
    <edge id=":49_0" function="internal">
        <lane id=":49_0_0" index="0" speed="13.89" length="0.10" shape="143.32,70.52 143.32,70.52"/>
    </edge>
    <edge id=":5_0" function="internal">
        <lane id=":5_0_0" index="0" speed="3.90" length="2.56" shape="241.09,5.81 240.53,5.39 239.97,5.24 239.41,5.36 238.84,5.77"/>
    </edge>
    <edge id=":61_0" function="internal">
        <lane id=":61_0_0" index="0" speed="6.45" length="9.03" shape="158.73,30.48 158.44,32.94 159.02,34.89 160.47,36.32 162.78,37.23"/>
    </edge>
    <edge id=":61_1" function="internal">
        <lane id=":61_1_0" index="0" speed="7.09" length="5.58" shape="155.09,40.77 156.40,38.73 158.11,37.46 159.11,37.23"/>
    </edge>
    <edge id=":61_2" function="internal">
        <lane id=":61_2_0" index="0" speed="7.09" length="3.71" shape="159.11,37.23 160.24,36.96 162.78,37.23"/>
    </edge>
    <edge id=":63_0" function="internal">
        <lane id=":63_0_0" index="0" speed="6.53" length="9.01" shape="526.66,114.93 524.94,113.17 523.07,112.37 521.03,112.54 518.83,113.67"/>
    </edge>
    <edge id=":63_1" function="internal">
        <lane id=":63_1_0" index="0" speed="13.89" length="11.13" shape="526.66,114.93 520.06,105.97"/>
    </edge>
    <edge id=":63_2" function="internal">
        <lane id=":63_2_0" index="0" speed="13.89" length="11.13" shape="527.90,107.20 518.83,113.67"/>
    </edge>
    <edge id=":63_3" function="internal">
        <lane id=":63_3_0" index="0" speed="6.54" length="4.27" shape="527.90,107.20 525.72,108.34 523.91,108.50"/>
    </edge>
    <edge id=":63_4" function="internal">
        <lane id=":63_4_0" index="0" speed="6.54" length="4.74" shape="523.91,108.50 523.68,108.52 521.80,107.72 520.06,105.97"/>
    </edge>
    <edge id=":70_0" function="internal">
        <lane id=":70_0_0" index="0" speed="13.89" length="0.30" shape="569.40,417.18 569.64,417.01"/>
    </edge>
    <edge id=":74_0" function="internal">
        <lane id=":74_0_0" index="0" speed="6.51" length="9.02" shape="263.21,63.34 265.66,63.63 267.62,63.06 269.08,61.64 270.05,59.37"/>
    </edge>
    <edge id=":74_1" function="internal">
        <lane id=":74_1_0" index="0" speed="13.89" length="11.17" shape="267.19,70.17 270.05,59.37"/>
    </edge>
    <edge id=":8_0" function="internal">
        <lane id=":8_0_0" index="0" speed="6.64" length="8.95" shape="44.31,91.89 45.78,93.82 47.54,94.87 49.57,95.04 51.90,94.33"/>
    </edge>
    <edge id=":8_1" function="internal">
        <lane id=":8_1_0" index="0" speed="13.89" length="10.88" shape="44.31,91.89 49.62,101.39"/>
    </edge>
    <edge id=":8_2" function="internal">
        <lane id=":8_2_0" index="0" speed="13.89" length="10.88" shape="42.05,98.96 51.90,94.33"/>
    </edge>
    <edge id=":8_3" function="internal">
        <lane id=":8_3_0" index="0" speed="6.64" length="4.18" shape="42.05,98.96 44.37,98.24 46.11,98.38"/>
    </edge>
    <edge id=":8_4" function="internal">
        <lane id=":8_4_0" index="0" speed="6.64" length="4.77" shape="46.11,98.38 46.40,98.41 48.15,99.46 49.62,101.39"/>
    </edge>
    <edge id=":9_0" function="internal">
        <lane id=":9_0_0" index="0" speed="6.25" length="4.27" shape="137.26,60.55 136.27,58.23 136.31,56.48"/>
    </edge>
    <edge id=":9_2" function="internal">
        <lane id=":9_2_0" index="0" speed="6.25" length="4.77" shape="136.31,56.48 136.32,56.23 137.41,54.56 139.55,53.22"/>
    </edge>
    <edge id=":9_1" function="internal">
        <lane id=":9_1_0" index="0" speed="13.89" length="11.27" shape="129.32,57.96 139.55,53.22"/>
    </edge>

    <edge id="119515110" from="50" to="51" priority="0" spreadType="center">
        <lane id="119515110_0" index="0" speed="13.89" length="2.78" shape="383.82,2.54 381.53,4.13"/>
    </edge>
    <edge id="126753485" from="52" to="53" priority="0" spreadType="center">
        <lane id="126753485_0" index="0" speed="13.89" length="84.87" shape="341.20,338.10 314.19,257.64"/>
    </edge>
    <edge id="126753486" from="52" to="55" priority="0" spreadType="center">
        <lane id="126753486_0" index="0" speed="13.89" length="27.56" shape="339.22,342.01 313.00,350.50"/>
    </edge>
    <edge id="127539811" from="52" to="2" priority="0" spreadType="center" shape="342.19,341.05 358.78,335.49 364.71,355.51 379.38,404.95 350.79,414.26">
        <lane id="127539811_0" index="0" speed="13.89" length="115.65" shape="345.13,340.07 358.78,335.49 364.71,355.51 379.38,404.95 352.01,413.87"/>
    </edge>
    <edge id="127539814" from="58" to="59" priority="0" spreadType="center">
        <lane id="127539814_0" index="0" speed="13.89" length="19.52" shape="379.38,404.95 397.94,398.92"/>
    </edge>
    <edge id="128266207" from="60" to="61" priority="0" spreadType="center">
        <lane id="128266207_0" index="0" speed="13.89" length="21.32" shape="164.15,9.85 158.73,30.48"/>
    </edge>
    <edge id="128266208" from="62" to="63" priority="0" spreadType="center" shape="595.85,59.43 589.21,64.10 581.41,69.60 553.86,88.53 523.39,110.45">
        <lane id="128266208_0" index="0" speed="13.89" length="79.92" shape="593.28,61.24 589.21,64.10 581.41,69.60 553.86,88.53 527.90,107.20"/>
    </edge>
    <edge id="183073681" from="8" to="26" priority="0" spreadType="center" shape="46.97,96.64 51.12,104.07 81.81,158.91 90.87,175.21 105.08,200.79 118.94,225.54">
        <lane id="183073681_0" index="0" speed="13.89" length="136.47" shape="49.62,101.39 51.12,104.07 81.81,158.91 90.87,175.21 105.08,200.79 116.15,220.55"/>
    </edge>
    <edge id="184435526" from="28" to="67" priority="0" spreadType="center">
        <lane id="184435526_0" index="0" speed="13.89" length="5.33" shape="5.95,112.59 3.47,107.87"/>
    </edge>
    <edge id="188865506" from="1" to="10" priority="0" spreadType="center" shape="360.72,225.22 326.72,172.88 288.25,113.69">
        <lane id="188865506_0" index="0" speed="13.89" length="121.94" shape="357.63,220.47 326.72,172.88 291.20,118.22"/>
    </edge>
    <edge id="188865507" from="70" to="71" priority="0" spreadType="center" shape="569.52,417.10 572.91,414.63 587.57,403.99 613.28,385.33">
        <lane id="188865507_0" index="0" speed="13.89" length="50.81" shape="569.64,417.01 572.91,414.63 587.57,403.99 610.75,387.16"/>
    </edge>
    <edge id="188865508" from="0" to="70" priority="0" spreadType="center" shape="512.66,458.65 525.01,449.60 535.52,441.87 543.04,436.15 569.52,417.10">
        <lane id="188865508_0" index="0" speed="13.89" length="67.09" shape="515.24,456.77 525.01,449.60 535.52,441.87 543.04,436.15 569.40,417.18"/>
    </edge>
    <edge id="188865510" from="74" to="75" priority="0" spreadType="center" shape="268.61,64.77 274.59,42.33 275.28,39.42 283.03,10.02 285.53,0.52">
        <lane id="188865510_0" index="0" speed="13.89" length="60.86" shape="270.05,59.37 274.59,42.33 275.28,39.42 283.03,10.02 285.53,0.52"/>
    </edge>
    <edge id="188865512" from="61" to="74" priority="0" spreadType="center" shape="157.29,35.93 179.94,41.29 213.24,50.10 258.83,62.19 268.61,64.77">
        <lane id="188865512_0" index="0" speed="13.89" length="103.77" shape="162.78,37.23 179.94,41.29 213.24,50.10 258.83,62.19 263.21,63.34"/>
    </edge>
    <edge id="188865513" from="78" to="8" priority="0" spreadType="center">
        <lane id="188865513_0" index="0" speed="13.89" length="0.39" shape="44.12,91.55 44.31,91.89"/>
    </edge>
    <edge id="188865519" from="9" to="61" priority="0" spreadType="center" shape="134.23,55.58 151.93,47.71 152.32,46.84 157.29,35.93">
        <lane id="188865519_0" index="0" speed="13.89" length="21.18" shape="139.55,53.22 151.93,47.71 152.32,46.84 155.09,40.77"/>
    </edge>
    <edge id="188865521" from="63" to="1" priority="0" spreadType="center" shape="523.39,110.45 500.25,126.82 467.98,149.51 360.72,225.22">
        <lane id="188865521_0" index="0" speed="13.89" length="187.84" shape="518.83,113.67 500.25,126.82 467.98,149.51 365.34,221.95"/>
    </edge>
    <edge id="188865522" from="1" to="3" priority="0" spreadType="center" shape="360.72,225.22 314.19,257.64 274.24,286.06">
        <lane id="188865522_0" index="0" speed="13.89" length="94.37" shape="356.08,228.45 314.19,257.64 278.90,282.74"/>
    </edge>
    <edge id="188865524" from="86" to="63" priority="0" spreadType="center">
        <lane id="188865524_0" index="0" speed="13.89" length="204.62" shape="647.20,280.27 526.66,114.93"/>
    </edge>
    <edge id="188865525" from="63" to="33" priority="0" spreadType="center" shape="523.39,110.45 461.94,27.66 454.70,17.50 447.10,7.66">
        <lane id="188865525_0" index="0" speed="13.89" length="119.42" shape="520.06,105.97 461.94,27.66 454.70,17.50 448.94,10.04"/>
    </edge>
    <edge id="193442943" from="90" to="91" priority="0" spreadType="center">
        <lane id="193442943_0" index="0" speed="13.89" length="19.72" shape="542.49,72.42 553.86,88.53"/>
    </edge>
    <edge id="194559650" from="94" to="95" priority="0" spreadType="center">
        <lane id="194559650_0" index="0" speed="13.89" length="30.66" shape="486.59,9.41 461.94,27.66"/>
    </edge>
    <edge id="194559651" from="96" to="97" priority="0" spreadType="center">
        <lane id="194559651_0" index="0" speed="13.89" length="10.70" shape="454.70,17.50 463.02,10.77"/>
    </edge>
    <edge id="194559652" from="98" to="99" priority="0" spreadType="center" shape="545.63,15.75 549.29,27.58 575.03,61.25 581.41,69.60">
        <lane id="194559652_0" index="0" speed="13.89" length="65.27" shape="545.63,15.75 549.29,27.58 575.03,61.25 581.41,69.60"/>
    </edge>
    <edge id="194711249" from="62" to="101" priority="0" spreadType="center" shape="595.85,59.43 589.45,50.91 575.85,32.79 619.75,0.00">
        <lane id="194711249_0" index="0" speed="13.89" length="84.95" shape="593.96,56.91 589.45,50.91 575.85,32.79 619.75,0.00"/>
    </edge>
    <edge id="195332166" from="3" to="27" priority="0" spreadType="center" shape="274.24,286.06 238.55,227.20 203.69,169.73">
        <lane id="195332166_0" index="0" speed="13.89" length="124.81" shape="271.27,281.17 238.55,227.20 206.55,174.45"/>
    </edge>
    <edge id="195332171" from="104" to="105" priority="0" spreadType="center" shape="152.87,371.83 109.57,402.16 44.33,446.37 31.92,454.78 22.44,461.64">
        <lane id="195332171_0" index="0" speed="13.89" length="158.37" shape="152.87,371.83 109.57,402.16 44.33,446.37 31.92,454.78 22.44,461.64"/>
    </edge>
    <edge id="195332174" from="3" to="31" priority="0" spreadType="center" shape="274.24,286.06 223.60,322.30 185.93,348.68">
        <lane id="195332174_0" index="0" speed="13.89" length="97.13" shape="269.58,289.39 223.60,322.30 190.35,345.58"/>
    </edge>
    <edge id="239049133" from="108" to="109" priority="0" spreadType="center">
        <lane id="239049133_0" index="0" speed="13.89" length="9.54" shape="114.97,410.02 109.57,402.16"/>
    </edge>
    <edge id="239049134" from="110" to="108" priority="0" spreadType="center">
        <lane id="239049134_0" index="0" speed="13.89" length="14.34" shape="123.00,422.24 115.13,410.26"/>
    </edge>
    <edge id="239049135" from="112" to="113" priority="0" spreadType="center">
        <lane id="239049135_0" index="0" speed="13.89" length="11.77" shape="31.92,454.78 38.04,464.84"/>
    </edge>
    <edge id="239049137" from="114" to="110" priority="0" spreadType="center" shape="148.94,466.82 136.83,450.11 123.00,422.24">
        <lane id="239049137_0" index="0" speed="13.89" length="51.75" shape="148.94,466.82 136.83,450.11 123.00,422.24"/>
    </edge>
    <edge id="240438287" from="116" to="117" priority="0" spreadType="center" shape="86.10,211.50 74.73,210.46 68.54,211.20 33.60,197.88 21.67,203.04 20.33,207.79">
        <lane id="240438287_0" index="0" speed="13.89" length="72.49" shape="85.61,211.46 74.73,210.46 68.54,211.20 33.60,197.88 21.67,203.04 20.33,207.79"/>
    </edge>
    <edge id="240438289" from="118" to="119" priority="0" spreadType="center" shape="74.73,210.46 62.49,188.12 52.55,193.16 45.45,191.45 33.60,197.88 10.34,149.78 0.00,146.33">
        <lane id="240438289_0" index="0" speed="13.89" length="121.71" shape="74.73,210.46 62.49,188.12 52.55,193.16 45.45,191.45 33.60,197.88 10.34,149.78 -0.00,146.33"/>
    </edge>
    <edge id="240438293" from="120" to="121" priority="0" spreadType="center">
        <lane id="240438293_0" index="0" speed="13.89" length="61.35" shape="62.49,188.12 34.70,133.43"/>
    </edge>
    <edge id="240438297" from="122" to="123" priority="0" spreadType="center">
        <lane id="240438297_0" index="0" speed="13.89" length="12.73" shape="3.49,197.14 15.50,201.36"/>
    </edge>
    <edge id="240438298" from="124" to="116" priority="0" spreadType="center">
        <lane id="240438298_0" index="0" speed="13.89" length="10.46" shape="95.67,206.16 86.54,211.26"/>
    </edge>
    <edge id="240438302" from="123" to="127" priority="0" spreadType="center">
        <lane id="240438302_0" index="0" speed="13.89" length="6.40" shape="15.50,201.36 21.67,203.04"/>
    </edge>
    <edge id="240438303" from="128" to="124" priority="0" spreadType="center" shape="105.08,200.79 98.81,204.37 95.80,206.09">
        <lane id="240438303_0" index="0" speed="13.89" length="10.54" shape="105.08,200.79 98.81,204.37 95.93,206.02"/>
    </edge>
    <edge id="30275868" from="4" to="5" priority="0" spreadType="center" shape="266.73,32.16 250.01,14.98 239.98,4.68">
        <lane id="30275868_0" index="0" speed="13.89" length="35.86" shape="266.10,31.51 250.01,14.98 241.09,5.81"/>
    </edge>
    <edge id="30481281" from="6" to="7" priority="0" spreadType="center" shape="634.52,333.76 633.67,332.62 627.54,324.38 578.82,258.90">
        <lane id="30481281_0" index="0" speed="13.89" length="93.31" shape="634.52,333.76 633.67,332.62 627.54,324.38 578.82,258.90"/>
    </edge>
    <edge id="31586091" from="8" to="9" priority="0" spreadType="center" shape="46.97,96.64 53.09,93.77 103.51,70.46 134.23,55.58">
        <lane id="31586091_0" index="0" speed="13.89" length="85.55" shape="51.90,94.33 53.09,93.77 103.51,70.46 129.32,57.96"/>
    </edge>
    <edge id="31586101" from="10" to="11" priority="0" spreadType="center">
        <lane id="31586101_0" index="0" speed="13.89" length="38.22" shape="285.48,108.97 266.14,76.01"/>
    </edge>
    <edge id="31586870" from="12" to="13" priority="0" spreadType="center">
        <lane id="31586870_0" index="0" speed="13.89" length="9.28" shape="182.81,32.46 179.94,41.29"/>
    </edge>
    <edge id="317538638" from="130" to="131" priority="0" spreadType="center">
        <lane id="317538638_0" index="0" speed="13.89" length="11.70" shape="422.26,24.71 415.75,14.99"/>
    </edge>
    <edge id="317538639" from="132" to="133" priority="0" spreadType="center">
        <lane id="317538639_0" index="0" speed="13.89" length="2.46" shape="335.01,19.03 332.62,18.45"/>
    </edge>
    <edge id="317538640" from="134" to="135" priority="0" spreadType="center">
        <lane id="317538640_0" index="0" speed="13.89" length="9.74" shape="275.28,39.42 284.71,41.84"/>
    </edge>
    <edge id="317538641" from="136" to="137" priority="0" spreadType="center">
        <lane id="317538641_0" index="0" speed="13.89" length="6.35" shape="391.16,15.63 387.77,10.27"/>
    </edge>
    <edge id="317538642" from="135" to="139" priority="0" spreadType="center">
        <lane id="317538642_0" index="0" speed="13.89" length="12.46" shape="284.71,41.84 296.79,44.94"/>
    </edge>
    <edge id="317538644" from="139" to="141" priority="0" spreadType="center">
        <lane id="317538644_0" index="0" speed="13.89" length="6.67" shape="297.08,45.02 303.53,46.67"/>
    </edge>
    <edge id="317538645" from="142" to="143" priority="0" spreadType="center">
        <lane id="317538645_0" index="0" speed="13.89" length="11.66" shape="365.25,62.59 358.91,52.80"/>
    </edge>
    <edge id="317538647" from="144" to="145" priority="0" spreadType="center">
        <lane id="317538647_0" index="0" speed="13.89" length="3.42" shape="408.53,4.21 406.63,1.37"/>
    </edge>
    <edge id="317538648" from="146" to="147" priority="0" spreadType="center">
        <lane id="317538648_0" index="0" speed="13.89" length="9.64" shape="292.32,12.60 283.03,10.02"/>
    </edge>
    <edge id="317538650" from="143" to="149" priority="0" spreadType="center">
        <lane id="317538650_0" index="0" speed="13.89" length="13.19" shape="358.91,52.80 351.74,41.73"/>
    </edge>
    <edge id="317538651" from="133" to="151" priority="0" spreadType="center">
        <lane id="317538651_0" index="0" speed="13.89" length="12.27" shape="332.33,18.38 320.44,15.35"/>
    </edge>
    <edge id="317538652" from="149" to="153" priority="0" spreadType="center">
        <lane id="317538652_0" index="0" speed="13.89" length="7.07" shape="351.74,41.73 347.89,35.79"/>
    </edge>
    <edge id="317538653" from="154" to="155" priority="0" spreadType="center">
        <lane id="317538653_0" index="0" speed="13.89" length="11.46" shape="404.08,36.64 398.08,26.88"/>
    </edge>
    <edge id="317538655" from="155" to="136" priority="0" spreadType="center">
        <lane id="317538655_0" index="0" speed="13.89" length="12.91" shape="398.08,26.88 391.32,15.88"/>
    </edge>
    <edge id="317538656" from="131" to="144" priority="0" spreadType="center">
        <lane id="317538656_0" index="0" speed="13.89" length="12.37" shape="415.58,14.74 408.70,4.46"/>
    </edge>
    <edge id="317538657" from="160" to="146" priority="0" spreadType="center">
        <lane id="317538657_0" index="0" speed="13.89" length="12.80" shape="305.00,15.66 292.56,12.66"/>
    </edge>
    <edge id="317538660" from="151" to="160" priority="0" spreadType="center" shape="320.30,15.32 315.99,14.30 314.95,18.12 305.14,15.69">