<additional xmlns:xsi="http://www.w3.org/2001/XMLSchema-instance" xsi:noNamespaceSchemaLocation="http://sumo.sf.net/xsd/additional_file.xsd">
    <timedEvent type="SaveTLSStates" source="1/1" dest="tls_state.xml"/>
</additional>