<?xml version="1.0" encoding="UTF-8"?>

<!-- generated on 2023-07-25 14:24:07 by Eclipse SUMO netedit Version v1_18_0+0529-4ea5ddd7168
-->

<routes xmlns:xsi="http://www.w3.org/2001/XMLSchema-instance" xsi:noNamespaceSchemaLocation="http://sumo.dlr.de/xsd/routes_file.xsd">
    <!-- Routes -->
    <route id="route_0" edges="Edge0 Edge1 Edge2" color="yellow"/>
    <!-- Vehicles, persons and containers (sorted by depart) -->
    <flow id="routeFlow" begin="0.00" route="route_0" end="3600.00" number="18">
        <stop lane="Edge2_1" startPos="34.80" endPos="44.80" extension="0.00" speed="13.89"/>
        <stop lane="Edge2_1" startPos="34.80" endPos="44.80" extension="0.00" speed="13.89"/>
        <stop lane="Edge2_1" startPos="34.80" endPos="44.80" extension="22.33" speed="13.89"/>
    </flow>
</routes>
