<?xml version="1.0"?>

<!-- generated on 04/30/09 09:15:21 by SUMO sumo Version dev-SVN-r7092
<configuration>

   <input>
      <net-file>net.net.xml</net-file>
      <additional-files>input_routes.rou.xml,input_additional.add.xml,input_additional2.add.xml</additional-files>
   </input>

   <time>
      <begin>0</begin>
      <end>150</end>
   </time>

   <processing>
      <no-duration-log>true</no-duration-log>
      <no-step-log>true</no-step-log>
   </processing>

</configuration>
-->

<netstats>
   <interval begin="0" end="15" id="dump_15">
      <edge id="4/1to3/1">
         <lane id="4/1to3/1_0" traveltime="39.05" sampledSeconds="25.00" density="4.27" occupancy="2.13" noStops="0" speed="10.00" entered="0" emitted="2" left="0"/>
      </edge>
   </interval>
   <interval begin="15" end="30" id="dump_15">
      <edge id="4/1to3/1">
         <lane id="4/1to3/1_0" traveltime="39.05" sampledSeconds="30.00" density="5.12" occupancy="2.56" noStops="0" speed="10.00" entered="0" emitted="0" left="0"/>
      </edge>
   </interval>
   <interval begin="30" end="45" id="dump_15">
      <edge id="3/1to2/1">
         <lane id="3/1to2/1_0" traveltime="39.05" sampledSeconds="24.90" density="4.25" occupancy="2.13" noStops="0" speed="10.00" entered="2" emitted="0" left="0"/>
      </edge>
      <edge id="4/1to3/1">
         <lane id="4/1to3/1_0" traveltime="39.05" sampledSeconds="5.10" density="0.87" occupancy="0.44" noStops="0" speed="10.00" entered="0" emitted="0" left="2"/>
      </edge>
   </interval>
   <interval begin="45" end="60" id="dump_15">
      <edge id="3/1to2/1">
         <lane id="3/1to2/1_0" traveltime="39.05" sampledSeconds="30.00" density="5.12" occupancy="2.56" noStops="0" speed="10.00" entered="0" emitted="0" left="0"/>
      </edge>
   </interval>
   <interval begin="60" end="75" id="dump_15">
      <edge id="2/1to1/1">
         <lane id="2/1to1/1_0" traveltime="39.05" sampledSeconds="6.80" density="1.16" occupancy="0.58" noStops="0" speed="10.00" entered="2" emitted="0" left="0"/>
      </edge>
      <edge id="3/1to2/1">
         <lane id="3/1to2/1_0" traveltime="39.05" sampledSeconds="23.20" density="3.96" occupancy="1.98" noStops="0" speed="10.00" entered="0" emitted="0" left="2"/>
      </edge>
   </interval>
   <interval begin="75" end="90" id="dump_15">
      <edge id="2/1to1/1">
         <lane id="2/1to1/1_0" traveltime="39.05" sampledSeconds="30.00" density="5.12" occupancy="2.56" noStops="0" speed="10.00" entered="0" emitted="0" left="0"/>
      </edge>
   </interval>
   <interval begin="90" end="105" id="dump_15">
      <edge id="2/1to1/1">
         <lane id="2/1to1/1_0" traveltime="39.05" sampledSeconds="30.00" density="5.12" occupancy="2.56" noStops="0" speed="10.00" entered="0" emitted="0" left="0"/>
      </edge>
   </interval>
   <interval begin="105" end="120" id="dump_15">
      <edge id="1/1to0/1">
         <lane id="1/1to0/1_0" traveltime="39.05" sampledSeconds="1.70" density="0.29" occupancy="0.15" noStops="0" speed="10.00" entered="2" emitted="0" left="0"/>
      </edge>
      <edge id="2/1to1/1">
         <lane id="2/1to1/1_0" traveltime="39.05" sampledSeconds="11.30" density="1.93" occupancy="0.96" noStops="0" speed="10.00" entered="0" emitted="0" left="2"/>
      </edge>
   </interval>
   <interval begin="120" end="135" id="dump_15">
   </interval>
   <interval begin="135" end="150" id="dump_15">
   </interval>
   <interval begin="150" end="151" id="dump_15">
   </interval>
</netstats>
