<?xml version="1.0" encoding="UTF-8"?>

<!-- generated on 2025-07-10 09:24:14 by Eclipse SUMO sumo Version v1_23_1+0978-b3f6417a0cf
This data file and the accompanying materials
are made available under the terms of the Eclipse Public License v2.0
which accompanies this distribution, and is available at
http://www.eclipse.org/legal/epl-v20.html
This file may also be made available under the following Secondary
Licenses when the conditions for such availability set forth in the Eclipse
Public License 2.0 are satisfied: GNU General Public License, version 2
or later which is available at
https://www.gnu.org/licenses/old-licenses/gpl-2.0-standalone.html
SPDX-License-Identifier: EPL-2.0 OR GPL-2.0-or-later
<sumoConfiguration xmlns:xsi="http://www.w3.org/2001/XMLSchema-instance" xsi:noNamespaceSchemaLocation="http://sumo.dlr.de/xsd/sumoConfiguration.xsd">

    <input>
        <net-file value="net.net.xml"/>
        <route-files value="input_routes.rou.xml"/>
    </input>

    <output>
        <write-license value="true"/>
        <tripinfo-output value="tripinfos.xml"/>
        <railsignal-block-output value="railsignal_blocks.xml"/>
        <railsignal-vehicle-output value="railsignal_vehicles.xml"/>
    </output>

    <processing>
        <collision.action value="warn"/>
        <time-to-teleport.railsignal-deadlock value="200"/>
        <railsignal-moving-block value="true"/>
        <default.speeddev value="0"/>
    </processing>

    <report>
        <xml-validation value="never"/>
        <duration-log.disable value="true"/>
        <no-step-log value="true"/>
    </report>

    <mesoscopic>
        <mesosim value="true"/>
        <meso-junction-control value="true"/>
    </mesoscopic>

</sumoConfiguration>
-->

<railsignal-block-output>
    <railSignal id="gneJ6">
        <link linkIndex="0" from="b0_0" to="a0_0">
            <driveWay id="gneJ6.0" vehicle="v0" edges="a0">
                <forward lanes="a0_0"/>
                <bidi lanes="-a_0"/>
                <flank lanes=""/>
                <conflictLinks signals=""/>
            </driveWay>
        </link>
        <link linkIndex="1" from="-a_0" to="-b_0"/>
    </railSignal>
    <railSignal id="gneJ8">
        <link linkIndex="0" from="-b0_0" to="-a0_0"/>
        <link linkIndex="1" from="a_0" to="b_0">
            <driveWay id="gneJ8.0" vehicle="v0" edges="b c e -e -c b0 a0">
                <forward lanes="b_0 c_0 e_0 -e_0 -c_0 b0_0"/>
                <bidi lanes="-b0_0 -c_0 -e_0 e_0 c_0 -b_0 -a_0"/>
                <flank lanes=""/>
                <conflictLinks signals=""/>
                <foes driveWays="gneJ8.0.0"/>
            </driveWay>
            <subDriveWay id="gneJ8.0.0" vehicle="" edges="b c e -e -c">
                <forward lanes="b_0 c_0 e_0 -e_0 -c_0"/>
            </subDriveWay>
        </link>
    </railSignal>
    <departJunction id="gneJ0">
        <driveWay id="gneJ0.d0" vehicle="v0" edges="a b c e -e -c b0 a0">
            <forward lanes="a_0"/>
            <bidi lanes="-a0_0 -b0_0"
                    deadlockCheck="-c_0 -e_0 e_0 c_0 -b_0 -a_0"/>
            <flank lanes=""/>
            <conflictLinks signals=""/>
        </driveWay>
    </departJunction>
</railsignal-block-output>
