<?xml version="1.0" encoding="UTF-8"?>

<!-- generated on Thu Aug 16 15:51:58 2018 by Eclipse SUMO netconvert Version c310b0a
This data file and the accompanying materials
are made available under the terms of the Eclipse Public License v2.0
which accompanies this distribution, and is available at
http://www.eclipse.org/legal/epl-v20.html
SPDX-License-Identifier: EPL-2.0
<configuration xmlns:xsi="http://www.w3.org/2001/XMLSchema-instance" xsi:noNamespaceSchemaLocation="http://sumo.dlr.de/xsd/netconvertConfiguration.xsd">

    <input>
        <type-files value="input_types.typ.xml"/>
        <osm-files value="osm.xml"/>
    </input>

    <output>
        <write-license value="true"/>
    </output>

    <projection>
        <proj.utm value="true"/>
    </projection>

    <report>
        <xml-validation value="never"/>
    </report>

</configuration>
-->

<net version="1.0" junctionCornerDetail="5" limitTurnSpeed="5.50" xmlns:xsi="http://www.w3.org/2001/XMLSchema-instance" xsi:noNamespaceSchemaLocation="http://sumo.dlr.de/xsd/net_file.xsd">

    <location netOffset="-397025.73,-5809294.06" convBoundary="0.00,0.00,3346.03,890.59" origBoundary="13.485624,52.424153,13.534774,52.432296" projParameter="+proj=utm +zone=33 +ellps=WGS84 +datum=WGS84 +units=m +no_defs"/>

    <type id="cycleway.lane" allow="bicycle" bikeLaneWidth="1.00"/>
    <type id="cycleway.opposite_lane" allow="bicycle" bikeLaneWidth="1.00"/>
    <type id="cycleway.opposite_lane|highway.residential" priority="4" numLanes="1" speed="13.89" disallow="tram rail_urban rail rail_electric ship" oneway="0" bikeLaneWidth="1.00"/>
    <type id="cycleway.opposite_track" allow="bicycle" bikeLaneWidth="1.50"/>
    <type id="cycleway.track" allow="bicycle" bikeLaneWidth="1.50"/>
    <type id="cycleway.track|highway.primary" priority="9" numLanes="2" speed="27.78" disallow="tram rail_urban rail rail_electric ship" oneway="0" bikeLaneWidth="1.50"/>
    <type id="highway.bridleway" priority="1" numLanes="1" speed="2.78" allow="pedestrian" oneway="1"/>
    <type id="highway.cycleway" priority="1" numLanes="1" speed="5.56" allow="bicycle" oneway="0"/>
    <type id="highway.footway" priority="1" numLanes="1" speed="8.33" allow="pedestrian" oneway="1"/>
    <type id="highway.living_street" priority="3" numLanes="1" speed="2.78" disallow="tram rail_urban rail rail_electric ship" oneway="0"/>
    <type id="highway.motorway" priority="13" numLanes="2" speed="44.44" allow="private emergency authority army vip passenger hov taxi bus coach delivery truck trailer motorcycle evehicle custom1 custom2" oneway="1"/>
    <type id="highway.motorway_link" priority="12" numLanes="1" speed="22.22" allow="private emergency authority army vip passenger hov taxi bus coach delivery truck trailer motorcycle evehicle custom1 custom2" oneway="1"/>
    <type id="highway.path" priority="1" numLanes="1" speed="2.78" allow="bicycle pedestrian" oneway="1"/>
    <type id="highway.pedestrian" priority="1" numLanes="1" speed="8.33" allow="pedestrian" oneway="1"/>
    <type id="highway.primary" priority="9" numLanes="2" speed="27.78" disallow="tram rail_urban rail rail_electric ship" oneway="0"/>
    <type id="highway.primary_link" priority="8" numLanes="1" speed="22.22" disallow="tram rail_urban rail rail_electric ship" oneway="0"/>
    <type id="highway.residential" priority="4" numLanes="1" speed="13.89" disallow="tram rail_urban rail rail_electric ship" oneway="0"/>
    <type id="highway.secondary" priority="7" numLanes="2" speed="27.78" disallow="tram rail_urban rail rail_electric ship" oneway="0"/>
    <type id="highway.secondary_link" priority="6" numLanes="1" speed="22.22" disallow="tram rail_urban rail rail_electric ship" oneway="0"/>
    <type id="highway.service" priority="2" numLanes="1" speed="5.56" allow="delivery bicycle pedestrian" oneway="0"/>
    <type id="highway.services" priority="1" numLanes="1" speed="8.33" disallow="tram rail_urban rail rail_electric ship" oneway="0"/>
    <type id="highway.stairs" priority="1" numLanes="1" speed="1.39" allow="pedestrian" oneway="1"/>
    <type id="highway.step" priority="1" numLanes="1" speed="1.39" allow="pedestrian" oneway="1"/>
    <type id="highway.steps" priority="1" numLanes="1" speed="1.39" allow="pedestrian" oneway="1"/>
    <type id="highway.tertiary" priority="6" numLanes="1" speed="22.22" disallow="tram rail_urban rail rail_electric ship" oneway="0"/>
    <type id="highway.tertiary_link" priority="5" numLanes="1" speed="22.22" disallow="tram rail_urban rail rail_electric ship" oneway="0"/>
    <type id="highway.track" priority="1" numLanes="1" speed="5.56" disallow="tram rail_urban rail rail_electric ship" oneway="0"/>
    <type id="highway.trunk" priority="11" numLanes="2" speed="27.78" disallow="tram rail_urban rail rail_electric bicycle pedestrian ship" oneway="0"/>
    <type id="highway.trunk_link" priority="10" numLanes="1" speed="22.22" disallow="tram rail_urban rail rail_electric bicycle pedestrian ship" oneway="0"/>
    <type id="highway.unclassified" priority="5" numLanes="1" speed="13.89" disallow="tram rail_urban rail rail_electric ship" oneway="0"/>
    <type id="highway.unsurfaced" priority="1" numLanes="1" speed="8.33" disallow="tram rail_urban rail rail_electric ship" oneway="0"/>

    <edge id=":1311777490_0" function="internal">
        <lane id=":1311777490_0_0" index="0" allow="bicycle" speed="3.65" length="4.67" shape="3165.50,184.05 3164.83,185.33 3164.08,185.81 3163.24,185.50 3162.32,184.39"/>
    </edge>
    <edge id=":1560223301_0" function="internal">
        <lane id=":1560223301_0_0" index="0" disallow="tram rail_urban rail rail_electric bicycle ship" speed="3.65" length="4.67" shape="3345.85,132.27 3347.13,132.93 3347.62,133.68 3347.31,134.52 3346.20,135.45"/>
    </edge>
    <edge id=":1560223378_0" function="internal">
        <lane id=":1560223378_0_0" index="0" disallow="tram rail_urban rail rail_electric bicycle ship" speed="3.65" length="4.67" shape="2940.26,187.84 2938.99,187.16 2938.51,186.40 2938.83,185.57 2939.95,184.65"/>
    </edge>
    <edge id=":1665723004_0" function="internal">
        <lane id=":1665723004_0_0" index="0" disallow="tram rail_urban rail rail_electric ship" speed="8.10" length="9.76" shape="571.75,675.83 570.81,678.64 570.52,681.13 570.91,683.28 571.95,685.11"/>
    </edge>
    <edge id=":1665723004_1" function="internal">
        <lane id=":1665723004_1_0" index="0" disallow="tram rail_urban rail rail_electric ship" speed="3.21" length="4.67" shape="571.75,675.83 570.54,676.62 569.65,676.67 569.07,675.99 568.81,674.57"/>
    </edge>
    <edge id=":1665723004_2" function="internal">
        <lane id=":1665723004_2_0" index="0" disallow="tram rail_urban rail rail_electric ship" speed="5.71" length="9.19" shape="563.01,675.98 565.01,677.84 566.81,678.30 568.41,677.35 569.82,675.00"/>
    </edge>
    <edge id=":1665723004_3" function="internal">
        <lane id=":1665723004_3_0" index="0" disallow="tram rail_urban rail rail_electric ship" speed="13.89" length="12.73" shape="563.01,675.98 571.10,685.81"/>
        <lane id=":1665723004_3_1" index="1" disallow="tram rail_urban rail rail_electric ship" speed="13.89" length="12.73" shape="560.55,678.02 568.64,687.85"/>
    </edge>
    <edge id=":2627346845_0" function="internal">
        <lane id=":2627346845_0_0" index="0" allow="bicycle" speed="4.75" length="4.34" width="1.50" shape="3160.12,164.08 3159.82,163.13 3159.16,162.49 3158.15,162.18 3156.79,162.19"/>
    </edge>
    <edge id=":2627346845_1" function="internal">
        <lane id=":2627346845_1_0" index="0" allow="bicycle" speed="9.23" length="19.16" width="1.50" shape="3160.12,164.08 3159.72,156.84 3160.33,151.57 3161.94,148.26 3164.54,146.93"/>
    </edge>
    <edge id=":2627346845_2" function="internal">
        <lane id=":2627346845_2_0" index="0" allow="bicycle" speed="3.65" length="4.67" shape="3160.12,164.08 3160.78,162.81 3161.53,162.32 3162.37,162.63 3163.30,163.74"/>
    </edge>
    <edge id=":2627346845_3" function="internal">
        <lane id=":2627346845_3_0" index="0" allow="bicycle" speed="4.51" length="4.35" shape="3166.13,161.14 3164.80,161.43 3163.88,161.96 3163.38,162.73 3163.30,163.74"/>
    </edge>
    <edge id=":2627346845_4" function="internal">
        <lane id=":2627346845_4_0" index="0" allow="bicycle" speed="13.89" length="9.40" width="1.50" shape="3166.13,161.14 3156.79,162.19"/>
        <lane id=":2627346845_4_1" index="1" disallow="tram rail_urban rail rail_electric bicycle ship" speed="13.89" length="9.40" shape="3165.87,158.81 3156.53,159.85"/>
        <lane id=":2627346845_4_2" index="2" disallow="tram rail_urban rail rail_electric bicycle ship" speed="13.89" length="9.40" shape="3165.52,155.63 3156.17,156.67"/>
    </edge>
    <edge id=":2627346845_7" function="internal">
        <lane id=":2627346845_7_0" index="0" disallow="tram rail_urban rail rail_electric bicycle ship" speed="3.65" length="2.34" shape="3165.52,155.63 3164.23,154.97 3163.75,154.22"/>
    </edge>
    <edge id=":2627346845_13" function="internal">
        <lane id=":2627346845_13_0" index="0" speed="3.65" length="2.34" shape="3163.75,154.22 3164.06,153.38 3165.16,152.45"/>
    </edge>
    <edge id=":2627346845_8" function="internal">
        <lane id=":2627346845_8_0" index="0" allow="bicycle" speed="13.89" length="9.40" width="1.50" shape="3155.20,147.98 3164.54,146.93"/>
    </edge>
    <edge id=":2627346845_9" function="internal">
        <lane id=":2627346845_9_0" index="0" allow="bicycle" speed="9.09" length="9.73" shape="3155.20,147.98 3158.07,148.70 3160.38,151.56 3161.39,154.48"/>
    </edge>
    <edge id=":2627346845_10" function="internal">
        <lane id=":2627346845_10_0" index="0" disallow="tram rail_urban rail rail_electric bicycle ship" speed="13.89" length="9.40" shape="3155.46,150.31 3164.81,149.27"/>
        <lane id=":2627346845_10_1" index="1" disallow="tram rail_urban rail rail_electric bicycle ship" speed="13.89" length="9.40" shape="3155.82,153.49 3165.16,152.45"/>
    </edge>
    <edge id=":2627346845_12" function="internal">
        <lane id=":2627346845_12_0" index="0" disallow="tram rail_urban rail rail_electric bicycle ship" speed="3.65" length="2.34" shape="3155.82,153.49 3157.10,154.15 3157.59,154.90"/>
    </edge>
    <edge id=":2627346845_14" function="internal">
        <lane id=":2627346845_14_0" index="0" speed="9.09" length="9.48" shape="3161.39,154.48 3162.12,156.58 3163.30,163.74"/>
    </edge>
    <edge id=":2627346845_15" function="internal">
        <lane id=":2627346845_15_0" index="0" speed="3.65" length="2.34" shape="3157.59,154.90 3157.28,155.74 3156.17,156.67"/>
    </edge>
    <edge id=":35215949_0" function="internal">
        <lane id=":35215949_0_0" index="0" allow="bicycle" speed="2.68" length="1.46" width="1.00" shape="615.85,551.88 616.05,551.47 616.28,551.32 616.55,551.41 616.84,551.76"/>
    </edge>
    <edge id=":937153130_0" function="internal">
        <lane id=":937153130_0_0" index="0" disallow="tram rail_urban rail rail_electric ship" speed="13.89" length="0.25" shape="673.08,805.84 673.29,806.09"/>
        <lane id=":937153130_0_1" index="1" disallow="tram rail_urban rail rail_electric ship" speed="13.89" length="0.25" shape="670.67,807.95 670.78,808.09"/>
    </edge>
    <edge id=":937153169_0" function="internal">
        <lane id=":937153169_0_0" index="0" disallow="tram rail_urban rail rail_electric ship" speed="13.89" length="0.26" shape="685.81,821.79 685.94,821.96"/>
        <lane id=":937153169_0_1" index="1" disallow="tram rail_urban rail rail_electric ship" speed="13.89" length="0.26" shape="683.30,823.79 683.50,824.03"/>
    </edge>

    <edge id="-153959895" from="35215949" to="1665723004" priority="4" type="cycleway.opposite_lane|highway.residential" shape="616.34,551.82 617.67,562.72 616.14,570.59 592.97,624.87 567.65,684.15">
        <lane id="-153959895_0" index="0" allow="bicycle" speed="8.33" length="133.48" width="1.00" shape="616.84,551.76 618.17,562.73 616.62,570.74 593.43,625.07 571.75,675.83"/>
    </edge>
    <edge id="-190083608#0" from="2627346845" to="1560223378" priority="9" type="cycleway.track|highway.primary" shape="3160.69,154.56 3056.66,166.18 2978.59,181.64 2955.79,184.73 2940.11,186.25">
        <lane id="-190083608#0_0" index="0" allow="bicycle" speed="13.89" length="218.37" width="1.50" shape="3156.79,162.19 3057.76,173.26 2979.76,188.69 2956.61,191.83 2940.80,193.36"/>
        <lane id="-190083608#0_1" index="1" disallow="tram rail_urban rail rail_electric bicycle ship" speed="13.89" length="218.37" shape="3156.53,159.85 3057.40,170.93 2979.37,186.37 2956.34,189.49 2940.57,191.02"/>
        <lane id="-190083608#0_2" index="2" disallow="tram rail_urban rail rail_electric bicycle ship" speed="13.89" length="218.37" shape="3156.17,156.67 3056.91,167.77 2978.85,183.21 2955.97,186.32 2940.26,187.84"/>
    </edge>
    <edge id="-190083608#1" from="1560223301" to="2627346845" priority="9" type="cycleway.track|highway.primary" shape="3346.03,133.86 3308.85,138.01 3160.69,154.56">
        <lane id="-190083608#1_0" index="0" allow="bicycle" speed="13.89" length="181.81" width="1.50" shape="3346.82,140.97 3309.64,145.11 3166.13,161.14"/>
        <lane id="-190083608#1_1" index="1" disallow="tram rail_urban rail rail_electric bicycle ship" speed="13.89" length="181.81" shape="3346.56,138.63 3309.38,142.78 3165.87,158.81"/>
        <lane id="-190083608#1_2" index="2" disallow="tram rail_urban rail rail_electric bicycle ship" speed="13.89" length="181.81" shape="3346.20,135.45 3309.03,139.60 3165.52,155.63"/>
    </edge>
    <edge id="-257131025" from="2627346845" to="1311777490" priority="1" type="highway.cycleway">
        <lane id="-257131025_0" index="0" allow="bicycle" speed="5.56" length="20.43" shape="3163.30,163.74 3165.50,184.05"/>
    </edge>
    <edge id="153959895" from="1665723004" to="35215949" priority="4" type="cycleway.opposite_lane|highway.residential" shape="567.65,684.15 592.97,624.87 616.14,570.59 617.67,562.72 616.34,551.82">
        <lane id="153959895_0" index="0" disallow="tram rail_urban rail rail_electric ship" speed="8.33" length="132.37" shape="569.82,675.00 591.50,624.25 614.61,570.12 616.05,562.66 614.76,552.01"/>
    </edge>
    <edge id="190083608#0" from="1560223378" to="2627346845" priority="9" type="cycleway.track|highway.primary" shape="2940.11,186.25 2955.79,184.73 2978.59,181.64 3056.66,166.18 3160.69,154.56">
        <lane id="190083608#0_0" index="0" allow="bicycle" speed="13.89" length="218.24" width="1.50" shape="2939.42,179.13 2954.96,177.62 2977.41,174.58 3055.57,159.11 3155.20,147.98"/>
        <lane id="190083608#0_1" index="1" disallow="tram rail_urban rail rail_electric bicycle ship" speed="13.89" length="218.24" shape="2939.64,181.47 2955.23,179.96 2977.80,176.90 3055.93,161.44 3155.46,150.31"/>
        <lane id="190083608#0_2" index="2" disallow="tram rail_urban rail rail_electric bicycle ship" speed="13.89" length="218.24" shape="2939.95,184.65 2955.60,183.14 2978.32,180.06 3056.42,164.60 3155.82,153.49"/>
    </edge>
    <edge id="190083608#1" from="2627346845" to="1560223301" priority="9" type="cycleway.track|highway.primary" shape="3160.69,154.56 3308.85,138.01 3346.03,133.86">
        <lane id="190083608#1_0" index="0" allow="bicycle" speed="13.89" length="181.81" width="1.50" shape="3164.54,146.93 3308.06,130.90 3345.23,126.75"/>
        <lane id="190083608#1_1" index="1" disallow="tram rail_urban rail rail_electric bicycle ship" speed="13.89" length="181.81" shape="3164.81,149.27 3308.32,133.24 3345.49,129.09"/>
        <lane id="190083608#1_2" index="2" disallow="tram rail_urban rail rail_electric bicycle ship" speed="13.89" length="181.81" shape="3165.16,152.45 3308.67,136.42 3345.85,132.27"/>
    </edge>
    <edge id="22721677#0" from="138559856" to="1665723004" priority="7" type="highway.secondary" spreadType="center" shape="0.00,0.00 30.91,37.83 44.24,53.56 52.50,63.27 146.18,175.39 173.52,209.87 176.02,212.97 180.73,218.90 254.70,307.13 337.99,408.22 347.51,419.52 352.99,426.03 360.93,435.46 364.26,439.32 430.87,520.26 435.71,526.11 457.13,551.98 521.72,628.28 527.01,634.67 539.29,649.51 566.32,682.55 567.65,684.15">
        <lane id="22721677#0_0" index="0" disallow="tram rail_urban rail rail_electric ship" speed="13.89" length="879.76" shape="1.24,-1.01 32.14,36.81 45.46,52.53 53.72,62.24 147.42,174.38 174.78,208.88 177.27,211.97 181.97,217.89 255.93,306.10 339.22,407.20 348.74,418.49 354.22,425.00 362.15,434.42 365.49,438.29 432.10,519.24 436.94,525.09 458.36,550.95 522.94,627.25 528.24,633.65 540.52,648.50 563.01,675.98"/>
        <lane id="22721677#0_1" index="1" disallow="tram rail_urban rail rail_electric ship" speed="13.89" length="879.76" shape="-1.24,1.01 29.68,38.85 43.02,54.60 51.28,64.30 144.94,176.40 172.27,210.87 174.77,213.97 179.49,219.91 253.47,308.15 336.76,409.25 346.29,420.55 351.77,427.06 359.71,436.49 363.04,440.35 429.63,521.27 434.48,527.13 455.90,553.00 520.50,629.32 525.77,635.69 538.05,650.53 560.55,678.02"/>
    </edge>
    <edge id="22721677#1" from="1665723004" to="937153130" priority="7" type="highway.secondary" spreadType="center" shape="567.65,684.15 596.51,718.90 617.09,742.85 623.67,751.59 671.96,806.99">
        <lane id="22721677#1_0" index="0" disallow="tram rail_urban rail rail_electric ship" speed="13.89" length="157.57" shape="571.10,685.81 597.73,717.87 618.34,741.85 624.91,750.59 673.08,805.84"/>
        <lane id="22721677#1_1" index="1" disallow="tram rail_urban rail rail_electric ship" speed="13.89" length="157.57" shape="568.64,687.85 595.29,719.93 615.85,743.85 622.42,752.60 670.67,807.95"/>
    </edge>
    <edge id="22721677#2" from="937153130" to="937153169" priority="7" type="highway.secondary" spreadType="center" shape="671.96,806.99 679.34,816.25 684.64,822.89">
        <lane id="22721677#2_0" index="0" disallow="tram rail_urban rail rail_electric ship" speed="13.89" length="20.08" shape="673.29,806.09 680.59,815.25 685.81,821.79"/>
        <lane id="22721677#2_1" index="1" disallow="tram rail_urban rail rail_electric ship" speed="13.89" length="20.08" shape="670.78,808.09 678.09,817.25 683.30,823.79"/>
    </edge>
    <edge id="22721677#3" from="937153169" to="539758831" priority="7" type="highway.secondary" spreadType="center" shape="684.64,822.89 698.26,839.03 710.14,853.65 725.40,872.49 740.05,890.59">
        <lane id="22721677#3_0" index="0" disallow="tram rail_urban rail rail_electric ship" speed="13.89" length="87.36" shape="685.94,821.96 699.49,838.01 711.38,852.64 726.64,871.49 741.30,889.59"/>
        <lane id="22721677#3_1" index="1" disallow="tram rail_urban rail rail_electric ship" speed="13.89" length="87.36" shape="683.50,824.03 697.02,840.05 708.89,854.66 724.15,873.50 738.81,891.60"/>
    </edge>
    <edge id="257131025" from="1311777490" to="2627346845" priority="1" type="highway.cycleway">
        <lane id="257131025_0" index="0" allow="bicycle" speed="5.56" length="20.43" shape="3162.32,184.39 3160.12,164.08"/>
    </edge>

    <tlLogic id="937153130" type="static" programID="0" offset="0">
        <phase duration="82" state="GG"/>
        <phase duration="3"  state="yy"/>
        <phase duration="5"  state="rr"/>
    </tlLogic>
    <tlLogic id="937153169" type="static" programID="0" offset="0">
        <phase duration="82" state="GG"/>
        <phase duration="3"  state="yy"/>
        <phase duration="5"  state="rr"/>
    </tlLogic>

    <junction id="1311777490" type="priority" x="3163.91" y="184.22" incLanes="-257131025_0" intLanes=":1311777490_0_0" shape="3163.91,184.22 3167.09,183.88 3163.91,184.22">
        <request index="0" response="0" foes="0" cont="0"/>
    </junction>
    <junction id="138559856" type="dead_end" x="0.00" y="0.00" incLanes="" intLanes="" shape="-2.48,2.02 2.48,-2.02"/>
    <junction id="1560223301" type="priority" x="3346.03" y="133.86" incLanes="190083608#1_0 190083608#1_1 190083608#1_2" intLanes=":1560223301_0_0" shape="3346.03,133.86 3345.15,126.01 3346.03,133.86">
        <request index="0" response="0" foes="0" cont="0"/>
    </junction>
    <junction id="1560223378" type="priority" x="2940.11" y="186.25" incLanes="-190083608#0_0 -190083608#0_1 -190083608#0_2" intLanes=":1560223378_0_0" shape="2940.11,186.25 2940.87,194.11 2940.11,186.25">
        <request index="0" response="0" foes="0" cont="0"/>
    </junction>
    <junction id="1665723004" type="priority" x="567.65" y="684.15" incLanes="-153959895_0 22721677#0_0 22721677#0_1" intLanes=":1665723004_0_0 :1665723004_1_0 :1665723004_2_0 :1665723004_3_0 :1665723004_3_1" shape="567.41,688.87 572.34,684.79 571.19,682.44 571.03,681.06 571.14,679.52 571.54,677.85 572.21,676.02 568.35,674.37 567.19,676.07 566.53,676.36 565.82,676.27 565.06,675.80 564.24,674.96 559.32,679.04">
        <request index="0" response="11000" foes="11000" cont="0"/>
        <request index="1" response="00100" foes="00100" cont="0"/>
        <request index="2" response="00000" foes="00010" cont="0"/>
        <request index="3" response="00000" foes="00001" cont="0"/>
        <request index="4" response="00000" foes="00000" cont="0"/>
    </junction>
    <junction id="2627346845" type="priority" x="3160.69" y="154.56" incLanes="257131025_0 -190083608#1_0 -190083608#1_1 -190083608#1_2 190083608#0_0 190083608#0_1 190083608#0_2" intLanes=":2627346845_0_0 :2627346845_1_0 :2627346845_2_0 :2627346845_3_0 :2627346845_4_0 :2627346845_4_1 :2627346845_4_2 :2627346845_13_0 :2627346845_8_0 :2627346845_14_0 :2627346845_10_0 :2627346845_10_1 :2627346845_15_0" shape="3158.53,164.26 3164.89,163.57 3164.96,162.71 3165.14,162.39 3165.40,162.15 3165.76,161.98 3166.21,161.89 3164.46,146.19 3155.12,147.23 3156.87,162.93 3157.72,163.01 3158.03,163.18 3158.27,163.45 3158.43,163.81">
        <request index="0"  response="0000000010000" foes="0000000010000" cont="0"/>
        <request index="1"  response="0111101110000" foes="0111101110000" cont="0"/>
        <request index="2"  response="0001000001000" foes="0001000001000" cont="0"/>
        <request index="3"  response="0000000000000" foes="0001000000100" cont="0"/>
        <request index="4"  response="0000000000000" foes="0001000000011" cont="0"/>
        <request index="5"  response="0000000000000" foes="1001000000010" cont="0"/>
        <request index="6"  response="0000000000000" foes="1001000000010" cont="0"/>
        <request index="7"  response="0110000000000" foes="0110000000000" cont="1"/>
        <request index="8"  response="0000000000000" foes="0000000000010" cont="0"/>
        <request index="9"  response="0110001111000" foes="0110001111110" cont="1"/>
        <request index="10" response="0000000000000" foes="0001010000010" cont="0"/>
        <request index="11" response="0000000000000" foes="0001010000010" cont="0"/>
        <request index="12" response="0000001100000" foes="0000001100000" cont="1"/>
    </junction>
    <junction id="35215949" type="priority" x="616.34" y="551.82" incLanes="153959895_0" intLanes=":35215949_0_0" shape="616.34,551.82 613.17,552.20 616.34,551.82">
        <request index="0" response="0" foes="0" cont="0"/>
    </junction>
    <junction id="539758831" type="dead_end" x="740.05" y="890.59" incLanes="22721677#3_0 22721677#3_1" intLanes="" shape="742.54,888.58 737.57,892.61"/>
    <junction id="937153130" type="traffic_light" x="671.96" y="806.99" incLanes="22721677#1_0 22721677#1_1" intLanes=":937153130_0_0 :937153130_0_1" shape="669.53,809.08 674.54,805.09 674.28,804.79 669.46,809.00">
        <request index="0" response="00" foes="00" cont="0"/>
        <request index="1" response="00" foes="00" cont="0"/>
    </junction>
    <junction id="937153169" type="traffic_light" x="684.64" y="822.89" incLanes="22721677#2_0 22721677#2_1" intLanes=":937153169_0_0 :937153169_0_1" shape="682.28,825.06 687.17,820.93 687.06,820.80 682.05,824.79">
        <request index="0" response="00" foes="00" cont="0"/>
        <request index="1" response="00" foes="00" cont="0"/>
    </junction>

    <junction id=":2627346845_13_0" type="internal" x="3163.75" y="154.22" incLanes=":2627346845_7_0 190083608#0_0 190083608#0_1 190083608#0_2 257131025_0" intLanes=":2627346845_1_0 :2627346845_8_0 :2627346845_10_0 :2627346845_10_1"/>
    <junction id=":2627346845_14_0" type="internal" x="3161.39" y="154.48" incLanes=":2627346845_9_0 -190083608#1_0 -190083608#1_1 -190083608#1_2" intLanes=":2627346845_1_0 :2627346845_2_0 :2627346845_3_0 :2627346845_4_0 :2627346845_4_1 :2627346845_4_2 :2627346845_10_0 :2627346845_10_1"/>
    <junction id=":2627346845_15_0" type="internal" x="3157.59" y="154.90" incLanes=":2627346845_12_0 -190083608#1_0 -190083608#1_1 -190083608#1_2 257131025_0" intLanes=":2627346845_0_0 :2627346845_4_0 :2627346845_4_1 :2627346845_4_2"/>

    <connection from="-153959895" to="22721677#1" fromLane="0" toLane="0" via=":1665723004_0_0" dir="r" state="m"/>
    <connection from="-153959895" to="153959895" fromLane="0" toLane="0" via=":1665723004_1_0" dir="t" state="m"/>
    <connection from="-190083608#0" to="190083608#0" fromLane="2" toLane="2" via=":1560223378_0_0" dir="t" state="M"/>
    <connection from="-190083608#1" to="-257131025" fromLane="0" toLane="0" via=":2627346845_3_0" dir="r" state="M"/>
    <connection from="-190083608#1" to="-190083608#0" fromLane="0" toLane="0" via=":2627346845_4_0" dir="s" state="M"/>
    <connection from="-190083608#1" to="-190083608#0" fromLane="1" toLane="1" via=":2627346845_4_1" dir="s" state="M"/>
    <connection from="-190083608#1" to="-190083608#0" fromLane="2" toLane="2" via=":2627346845_4_2" dir="s" state="M"/>
    <connection from="-190083608#1" to="190083608#1" fromLane="2" toLane="2" via=":2627346845_7_0" dir="t" state="m"/>
    <connection from="-257131025" to="257131025" fromLane="0" toLane="0" via=":1311777490_0_0" dir="t" state="M"/>
    <connection from="153959895" to="-153959895" fromLane="0" toLane="0" via=":35215949_0_0" dir="t" state="M"/>
    <connection from="190083608#0" to="190083608#1" fromLane="0" toLane="0" via=":2627346845_8_0" dir="s" state="M"/>
    <connection from="190083608#0" to="-257131025" fromLane="0" toLane="0" via=":2627346845_9_0" dir="l" state="m"/>
    <connection from="190083608#0" to="190083608#1" fromLane="1" toLane="1" via=":2627346845_10_0" dir="s" state="M"/>
    <connection from="190083608#0" to="190083608#1" fromLane="2" toLane="2" via=":2627346845_10_1" dir="s" state="M"/>
    <connection from="190083608#0" to="-190083608#0" fromLane="2" toLane="2" via=":2627346845_12_0" dir="t" state="m"/>
    <connection from="190083608#1" to="-190083608#1" fromLane="2" toLane="2" via=":1560223301_0_0" dir="t" state="M"/>
    <connection from="22721677#0" to="153959895" fromLane="0" toLane="0" via=":1665723004_2_0" dir="r" state="M"/>
    <connection from="22721677#0" to="22721677#1" fromLane="0" toLane="0" via=":1665723004_3_0" dir="s" state="M"/>
    <connection from="22721677#0" to="22721677#1" fromLane="1" toLane="1" via=":1665723004_3_1" dir="s" state="M"/>
    <connection from="22721677#1" to="22721677#2" fromLane="0" toLane="0" via=":937153130_0_0" tl="937153130" linkIndex="0" dir="s" state="O"/>
    <connection from="22721677#1" to="22721677#2" fromLane="1" toLane="1" via=":937153130_0_1" tl="937153130" linkIndex="1" dir="s" state="O"/>
    <connection from="22721677#2" to="22721677#3" fromLane="0" toLane="0" via=":937153169_0_0" tl="937153169" linkIndex="0" dir="s" state="O"/>
    <connection from="22721677#2" to="22721677#3" fromLane="1" toLane="1" via=":937153169_0_1" tl="937153169" linkIndex="1" dir="s" state="O"/>
    <connection from="257131025" to="-190083608#0" fromLane="0" toLane="0" via=":2627346845_0_0" dir="r" state="m"/>
    <connection from="257131025" to="190083608#1" fromLane="0" toLane="0" via=":2627346845_1_0" dir="l" state="m"/>
    <connection from="257131025" to="-257131025" fromLane="0" toLane="0" via=":2627346845_2_0" dir="t" state="m"/>

    <connection from=":1311777490_0" to="257131025" fromLane="0" toLane="0" dir="t" state="M"/>
    <connection from=":1560223301_0" to="-190083608#1" fromLane="0" toLane="2" dir="t" state="M"/>
    <connection from=":1560223378_0" to="190083608#0" fromLane="0" toLane="2" dir="t" state="M"/>
    <connection from=":1665723004_0" to="22721677#1" fromLane="0" toLane="0" dir="r" state="M"/>
    <connection from=":1665723004_1" to="153959895" fromLane="0" toLane="0" dir="t" state="M"/>
    <connection from=":1665723004_2" to="153959895" fromLane="0" toLane="0" dir="r" state="M"/>
    <connection from=":1665723004_3" to="22721677#1" fromLane="0" toLane="0" dir="s" state="M"/>
    <connection from=":1665723004_3" to="22721677#1" fromLane="1" toLane="1" dir="s" state="M"/>
    <connection from=":2627346845_0" to="-190083608#0" fromLane="0" toLane="0" dir="r" state="M"/>
    <connection from=":2627346845_1" to="190083608#1" fromLane="0" toLane="0" dir="l" state="M"/>
    <connection from=":2627346845_2" to="-257131025" fromLane="0" toLane="0" dir="t" state="M"/>
    <connection from=":2627346845_3" to="-257131025" fromLane="0" toLane="0" dir="r" state="M"/>
    <connection from=":2627346845_4" to="-190083608#0" fromLane="0" toLane="0" dir="s" state="M"/>
    <connection from=":2627346845_4" to="-190083608#0" fromLane="1" toLane="1" dir="s" state="M"/>
    <connection from=":2627346845_4" to="-190083608#0" fromLane="2" toLane="2" dir="s" state="M"/>
    <connection from=":2627346845_7" to="190083608#1" fromLane="0" toLane="2" via=":2627346845_13_0" dir="t" state="m"/>
    <connection from=":2627346845_13" to="190083608#1" fromLane="0" toLane="2" dir="t" state="M"/>
    <connection from=":2627346845_8" to="190083608#1" fromLane="0" toLane="0" dir="s" state="M"/>
    <connection from=":2627346845_9" to="-257131025" fromLane="0" toLane="0" via=":2627346845_14_0" dir="l" state="m"/>
    <connection from=":2627346845_14" to="-257131025" fromLane="0" toLane="0" dir="l" state="M"/>