<?xml version="1.0" encoding="UTF-8"?>

<!-- generated on 2023-01-23 13:41:48 by Eclipse SUMO netedit Version v1_15_0+1802-6c0f80f73ea
-->

<additional xmlns:xsi="http://www.w3.org/2001/XMLSchema-instance" xsi:noNamespaceSchemaLocation="http://sumo.dlr.de/xsd/additional_file.xsd">
    <!-- Detectors -->
    <inductionLoop id="correctID" lane="gneE0_0" pos="17.00" period="300.00" file="e1_0.xml"/>
    <inductionLoop id="e1_1" lane="gneE0_0" pos="38.00" period="300.00" file="e1_1.xml"/>
</additional>
