<?xml version="1.0" encoding="UTF-8"?>

<!-- generated on Thu Apr 12 00:04:04 2018 by SUMO netconvert Version c8481b0
This data file and the accompanying materials
are made available under the terms of the Eclipse Public License v2.0
which accompanies this distribution, and is available at
http://www.eclipse.org/legal/epl-v20.html
SPDX-License-Identifier: EPL-2.0
<configuration xmlns:xsi="http://www.w3.org/2001/XMLSchema-instance" xsi:noNamespaceSchemaLocation="http://sumo.dlr.de/xsd/netconvertConfiguration.xsd">

    <input>
        <node-files value="input_nodes.nod.xml"/>
        <edge-files value="input_edges.edg.xml"/>
    </input>

    <output>
        <write-license value="true"/>
    </output>

    <processing>
        <speed-in-kmh value="true"/>
    </processing>

    <report>
        <xml-validation value="never"/>
    </report>

</configuration>
-->

<net version="0.27" xmlns:xsi="http://www.w3.org/2001/XMLSchema-instance" xsi:noNamespaceSchemaLocation="http://sumo.dlr.de/xsd/net_file.xsd">

    <location netOffset="50.00,50.00" convBoundary="0.00,0.00,100.00,100.00" origBoundary="-50.00,-50.00,50.00,50.00" projParameter="!"/>

    <edge id=":0_0" function="internal">
        <lane id=":0_0_0" index="0" speed="13.89" length="5.00" shape="48.40,54.70 48.21,53.34 47.62,52.38 46.66,51.79 45.30,51.60"/>
    </edge>
    <edge id=":0_1" function="internal">
        <lane id=":0_1_0" index="0" speed="13.89" length="9.40" shape="48.40,54.70 48.40,45.30"/>
    </edge>
    <edge id=":0_2" function="internal">
        <lane id=":0_2_0" index="0" speed="13.89" length="5.08" shape="48.40,54.70 48.79,51.94 49.97,49.97"/>
    </edge>
    <edge id=":0_3" function="internal">
        <lane id=":0_3_0" index="0" speed="13.89" length="2.34" shape="48.40,54.70 49.20,53.50 50.00,53.10"/>
    </edge>
    <edge id=":0_16" function="internal">
        <lane id=":0_16_0" index="0" speed="13.89" length="5.08" shape="49.97,49.97 51.94,48.79 54.70,48.40"/>
    </edge>
    <edge id=":0_17" function="internal">
        <lane id=":0_17_0" index="0" speed="13.89" length="2.34" shape="50.00,53.10 50.80,53.50 51.60,54.70"/>
    </edge>
    <edge id=":0_4" function="internal">
        <lane id=":0_4_0" index="0" speed="13.89" length="5.00" shape="54.70,51.60 53.34,51.79 52.38,52.38 51.79,53.34 51.60,54.70"/>
    </edge>
    <edge id=":0_5" function="internal">
        <lane id=":0_5_0" index="0" speed="13.89" length="9.40" shape="54.70,51.60 45.30,51.60"/>
    </edge>
    <edge id=":0_6" function="internal">
        <lane id=":0_6_0" index="0" speed="13.89" length="10.16" shape="54.70,51.60 51.94,51.21 49.97,50.03 48.79,48.06 48.40,45.30"/>
    </edge>
    <edge id=":0_7" function="internal">
        <lane id=":0_7_0" index="0" speed="13.89" length="4.67" shape="54.70,51.60 53.50,50.80 53.10,50.00 53.50,49.20 54.70,48.40"/>
    </edge>
    <edge id=":0_8" function="internal">
        <lane id=":0_8_0" index="0" speed="13.89" length="5.00" shape="51.60,45.30 51.79,46.66 52.38,47.63 53.34,48.21 54.70,48.40"/>
    </edge>
    <edge id=":0_9" function="internal">
        <lane id=":0_9_0" index="0" speed="13.89" length="9.40" shape="51.60,45.30 51.60,54.70"/>
    </edge>
    <edge id=":0_10" function="internal">
        <lane id=":0_10_0" index="0" speed="13.89" length="5.08" shape="51.60,45.30 51.21,48.06 50.03,50.02"/>
    </edge>
    <edge id=":0_11" function="internal">
        <lane id=":0_11_0" index="0" speed="13.89" length="2.34" shape="51.60,45.30 50.80,46.50 50.00,46.90"/>
    </edge>
    <edge id=":0_18" function="internal">
        <lane id=":0_18_0" index="0" speed="13.89" length="5.08" shape="50.03,50.02 48.06,51.21 45.30,51.60"/>
    </edge>
    <edge id=":0_19" function="internal">
        <lane id=":0_19_0" index="0" speed="13.89" length="2.34" shape="50.00,46.90 49.20,46.50 48.40,45.30"/>
    </edge>
    <edge id=":0_12" function="internal">
        <lane id=":0_12_0" index="0" speed="13.89" length="5.00" shape="45.30,48.40 46.66,48.21 47.63,47.62 48.21,46.66 48.40,45.30"/>
    </edge>
    <edge id=":0_13" function="internal">
        <lane id=":0_13_0" index="0" speed="13.89" length="9.40" shape="45.30,48.40 54.70,48.40"/>
    </edge>
    <edge id=":0_14" function="internal">
        <lane id=":0_14_0" index="0" speed="13.89" length="10.16" shape="45.30,48.40 48.06,48.79 50.02,49.97 51.21,51.94 51.60,54.70"/>
    </edge>
    <edge id=":0_15" function="internal">
        <lane id=":0_15_0" index="0" speed="13.89" length="4.67" shape="45.30,48.40 46.50,49.20 46.90,50.00 46.50,50.80 45.30,51.60"/>
    </edge>
    <edge id=":1_0" function="internal">
        <lane id=":1_0_0" index="0" speed="13.89" length="4.67" shape="0.00,51.60 -1.20,50.80 -1.60,50.00 -1.20,49.20 0.00,48.40"/>
    </edge>
    <edge id=":2_0" function="internal">
        <lane id=":2_0_0" index="0" speed="13.89" length="4.67" shape="100.00,48.40 101.20,49.20 101.60,50.00 101.20,50.80 100.00,51.60"/>
    </edge>
    <edge id=":3_0" function="internal">
        <lane id=":3_0_0" index="0" speed="13.89" length="4.67" shape="48.40,0.00 49.20,-1.20 50.00,-1.60 50.80,-1.20 51.60,0.00"/>
    </edge>
    <edge id=":4_0" function="internal">
        <lane id=":4_0_0" index="0" speed="13.89" length="4.67" shape="51.60,100.00 50.80,101.20 50.00,101.60 49.20,101.20 48.40,100.00"/>
    </edge>

    <edge id="1i" from="1" to="0" priority="-1">
        <lane id="1i_0" index="0" speed="13.89" length="45.30" shape="0.00,48.40 45.30,48.40"/>
    </edge>
    <edge id="1o" from="0" to="1" priority="-1">
        <lane id="1o_0" index="0" speed="13.89" length="45.30" shape="45.30,51.60 0.00,51.60"/>
    </edge>
    <edge id="2i" from="2" to="0" priority="-1">
        <lane id="2i_0" index="0" speed="13.89" length="45.30" shape="100.00,51.60 54.70,51.60"/>
    </edge>
    <edge id="2o" from="0" to="2" priority="-1">
        <lane id="2o_0" index="0" speed="13.89" length="45.30" shape="54.70,48.40 100.00,48.40"/>
    </edge>
    <edge id="3i" from="3" to="0" priority="-1">
        <lane id="3i_0" index="0" speed="13.89" length="45.30" shape="51.60,0.00 51.60,45.30"/>
    </edge>
    <edge id="3o" from="0" to="3" priority="-1">
        <lane id="3o_0" index="0" speed="13.89" length="45.30" shape="48.40,45.30 48.40,0.00"/>
    </edge>
    <edge id="4i" from="4" to="0" priority="-1">
        <lane id="4i_0" index="0" speed="13.89" length="45.30" shape="48.40,100.00 48.40,54.70"/>
    </edge>
    <edge id="4o" from="0" to="4" priority="-1">
        <lane id="4o_0" index="0" speed="13.89" length="45.30" shape="51.60,54.70 51.60,100.00"/>
    </edge>

    <junction id="0" type="priority" x="50.00" y="50.00" incLanes="4i_0 2i_0 3i_0 1i_0" intLanes=":0_0_0 :0_1_0 :0_16_0 :0_17_0 :0_4_0 :0_5_0 :0_6_0 :0_7_0 :0_8_0 :0_9_0 :0_18_0 :0_19_0 :0_12_0 :0_13_0 :0_14_0 :0_15_0" shape="46.80,54.70 53.20,54.70 54.70,53.20 54.70,46.80 53.20,45.30 46.80,45.30 45.30,46.80 45.30,53.20">
        <request index="0"  response="0000000000000000" foes="1000010000100000" cont="0"/>
        <request index="1"  response="0000000000000000" foes="0111110001100000" cont="0"/>
        <request index="2"  response="0000001100000000" foes="0110001111100000" cont="1"/>
        <request index="3"  response="0100001000010000" foes="0100001000010000" cont="1"/>
        <request index="4"  response="0000001000000000" foes="0100001000001000" cont="0"/>
        <request index="5"  response="0000011000000111" foes="1100011000000111" cont="0"/>
        <request index="6"  response="0011011000000110" foes="0011111000000110" cont="0"/>
        <request index="7"  response="0010000100000100" foes="0010000100000100" cont="0"/>
        <request index="8"  response="0000000000000000" foes="0010000010000100" cont="0"/>
        <request index="9"  response="0000000000000000" foes="0110000001111100" cont="0"/>
        <request index="10" response="0000000000000011" foes="1110000001100011" cont="1"/>
        <request index="11" response="0001000001000010" foes="0001000001000010" cont="1"/>
        <request index="12" response="0000000000000010" foes="0000100001000010" cont="0"/>
        <request index="13" response="0000011100000110" foes="0000011111000110" cont="0"/>
        <request index="14" response="0000011000110110" foes="0000011000111110" cont="0"/>
        <request index="15" response="0000010000100001" foes="0000010000100001" cont="0"/>
    </junction>
    <junction id="1" type="priority" x="0.00" y="50.00" incLanes="1o_0" intLanes=":1_0_0" shape="0.00,50.00 0.00,53.20 0.00,50.00">
        <request index="0" response="0" foes="0" cont="0"/>
    </junction>
    <junction id="2" type="priority" x="100.00" y="50.00" incLanes="2o_0" intLanes=":2_0_0" shape="100.00,50.00 100.00,46.80 100.00,50.00">
        <request index="0" response="0" foes="0" cont="0"/>
    </junction>
    <junction id="3" type="priority" x="50.00" y="0.00" incLanes="3o_0" intLanes=":3_0_0" shape="50.00,0.00 46.80,0.00 50.00,0.00">
        <request index="0" response="0" foes="0" cont="0"/>
    </junction>
    <junction id="4" type="priority" x="50.00" y="100.00" incLanes="4o_0" intLanes=":4_0_0" shape="50.00,100.00 53.20,100.00 50.00,100.00">
        <request index="0" response="0" foes="0" cont="0"/>
    </junction>

    <junction id=":0_16_0" type="internal" x="49.97" y="49.97" incLanes=":0_2_0 3i_0" intLanes=":0_5_0 :0_6_0 :0_7_0 :0_8_0 :0_9_0 :0_13_0 :0_14_0"/>
    <junction id=":0_17_0" type="internal" x="50.00" y="53.10" incLanes=":0_3_0 1i_0 2i_0 3i_0" intLanes=":0_4_0 :0_9_0 :0_14_0"/>
    <junction id=":0_18_0" type="internal" x="50.03" y="50.02" incLanes=":0_10_0 4i_0" intLanes=":0_0_0 :0_1_0 :0_5_0 :0_6_0 :0_13_0 :0_14_0 :0_15_0"/>
    <junction id=":0_19_0" type="internal" x="50.00" y="46.90" incLanes=":0_11_0 1i_0 2i_0 4i_0" intLanes=":0_1_0 :0_6_0 :0_12_0"/>

    <connection from="1i" to="3o" fromLane="0" toLane="0" via=":0_12_0" dir="r" state="m"/>
    <connection from="1i" to="2o" fromLane="0" toLane="0" via=":0_13_0" dir="s" state="m"/>
    <connection from="1i" to="4o" fromLane="0" toLane="0" via=":0_14_0" dir="l" state="m"/>
    <connection from="1i" to="1o" fromLane="0" toLane="0" via=":0_15_0" dir="t" state="m"/>
    <connection from="1o" to="1i" fromLane="0" toLane="0" via=":1_0_0" dir="t" state="M"/>
    <connection from="2i" to="4o" fromLane="0" toLane="0" via=":0_4_0" dir="r" state="m"/>
    <connection from="2i" to="1o" fromLane="0" toLane="0" via=":0_5_0" dir="s" state="m"/>
    <connection from="2i" to="3o" fromLane="0" toLane="0" via=":0_6_0" dir="l" state="m"/>
    <connection from="2i" to="2o" fromLane="0" toLane="0" via=":0_7_0" dir="t" state="m"/>
    <connection from="2o" to="2i" fromLane="0" toLane="0" via=":2_0_0" dir="t" state="M"/>
    <connection from="3i" to="2o" fromLane="0" toLane="0" via=":0_8_0" dir="r" state="M"/>
    <connection from="3i" to="4o" fromLane="0" toLane="0" via=":0_9_0" dir="s" state="M"/>
    <connection from="3i" to="1o" fromLane="0" toLane="0" via=":0_10_0" dir="l" state="m"/>
    <connection from="3i" to="3o" fromLane="0" toLane="0" via=":0_11_0" dir="t" state="m"/>
    <connection from="3o" to="3i" fromLane="0" toLane="0" via=":3_0_0" dir="t" state="M"/>
    <connection from="4i" to="1o" fromLane="0" toLane="0" via=":0_0_0" dir="r" state="M"/>
    <connection from="4i" to="3o" fromLane="0" toLane="0" via=":0_1_0" dir="s" state="M"/>
    <connection from="4i" to="2o" fromLane="0" toLane="0" via=":0_2_0" dir="l" state="m"/>
    <connection from="4i" to="4o" fromLane="0" toLane="0" via=":0_3_0" dir="t" state="m"/>
    <connection from="4o" to="4i" fromLane="0" toLane="0" via=":4_0_0" dir="t" state="M"/>

    <connection from=":0_0" to="1o" fromLane="0" toLane="0" dir="r" state="M"/>
    <connection from=":0_1" to="3o" fromLane="0" toLane="0" dir="s" state="M"/>
    <connection from=":0_2" to="2o" fromLane="0" toLane="0" via=":0_16_0" dir="l" state="m"/>
    <connection from=":0_16" to="2o" fromLane="0" toLane="0" dir="l" state="M"/>
    <connection from=":0_3" to="4o" fromLane="0" toLane="0" via=":0_17_0" dir="t" state="m"/>
    <connection from=":0_17" to="4o" fromLane="0" toLane="0" dir="t" state="M"/>
    <connection from=":0_4" to="4o" fromLane="0" toLane="0" dir="r" state="M"/>
    <connection from=":0_5" to="1o" fromLane="0" toLane="0" dir="s" state="M"/>
    <connection from=":0_6" to="3o" fromLane="0" toLane="0" dir="l" state="M"/>
    <connection from=":0_7" to="2o" fromLane="0" toLane="0" dir="t" state="M"/>
    <connection from=":0_8" to="2o" fromLane="0" toLane="0" dir="r" state="M"/>
    <connection from=":0_9" to="4o" fromLane="0" toLane="0" dir="s" state="M"/>
    <connection from=":0_10" to="1o" fromLane="0" toLane="0" via=":0_18_0" dir="l" state="m"/>
    <connection from=":0_18" to="1o" fromLane="0" toLane="0" dir="l" state="M"/>
    <connection from=":0_11" to="3o" fromLane="0" toLane="0" via=":0_19_0" dir="t" state="m"/>
    <connection from=":0_19" to="3o" fromLane="0" toLane="0" dir="t" state="M"/>
    <connection from=":0_12" to="3o" fromLane="0" toLane="0" dir="r" state="M"/>
    <connection from=":0_13" to="2o" fromLane="0" toLane="0" dir="s" state="M"/>
    <connection from=":0_14" to="4o" fromLane="0" toLane="0" dir="l" state="M"/>
    <connection from=":0_15" to="1o" fromLane="0" toLane="0" dir="t" state="M"/>
    <connection from=":1_0" to="1i" fromLane="0" toLane="0" dir="t" state="M"/>
    <connection from=":2_0" to="2i" fromLane="0" toLane="0" dir="t" state="M"/>
    <connection from=":3_0" to="3i" fromLane="0" toLane="0" dir="t" state="M"/>
    <connection from=":4_0" to="4i" fromLane="0" toLane="0" dir="t" state="M"/>

</net>
