<?xml version="1.0" encoding="UTF-8"?>


<tlsStates xmlns:xsi="http://www.w3.org/2001/XMLSchema-instance" xsi:noNamespaceSchemaLocation="http://sumo.dlr.de/xsd/tlsstates_file.xsd">
    <tlsState time="0.00" id="2881" programID="NEMA" phase="0" state="grrrrGGrrGGG" name="2+6"/>
    <tlsState time="11.00" id="2881" programID="NEMA" phase="1" state="yrrrryyrryyy" name="2+6"/>
    <tlsState time="15.00" id="2881" programID="NEMA" phase="0" state="rrrrrrrrrrrr" name="2+6"/>
    <tlsState time="16.00" id="2881" programID="NEMA" phase="1" state="GGGGGrrrrrrr" name="4+4"/>
    <tlsState time="32.00" id="2881" programID="NEMA" phase="0" state="yyyyyrrrrrrr" name="4+4"/>
    <tlsState time="36.00" id="2881" programID="NEMA" phase="1" state="rrrrrrrrrrrr" name="4+4"/>
    <tlsState time="38.00" id="2881" programID="NEMA" phase="0" state="grrrrGGGGrrr" name="1+6"/>
    <tlsState time="53.00" id="2881" programID="NEMA" phase="1" state="grrrrGGyyrrr" name="1+6"/>
    <tlsState time="57.00" id="2881" programID="NEMA" phase="0" state="grrrrGGrrrrr" name="1+6"/>
    <tlsState time="58.00" id="2881" programID="NEMA" phase="1" state="grrrrGGrrGGG" name="2+6"/>
    <tlsState time="131.00" id="2881" programID="NEMA" phase="0" state="yrrrryyrryyy" name="2+6"/>
    <tlsState time="135.00" id="2881" programID="NEMA" phase="1" state="rrrrrrrrrrrr" name="2+6"/>
    <tlsState time="136.00" id="2881" programID="NEMA" phase="0" state="GGGGGrrrrrrr" name="4+4"/>
    <tlsState time="152.00" id="2881" programID="NEMA" phase="1" state="yyyyyrrrrrrr" name="4+4"/>
    <tlsState time="156.00" id="2881" programID="NEMA" phase="0" state="rrrrrrrrrrrr" name="4+4"/>
    <tlsState time="158.00" id="2881" programID="NEMA" phase="1" state="grrrrGGGGrrr" name="1+6"/>
    <tlsState time="173.00" id="2881" programID="NEMA" phase="0" state="grrrrGGyyrrr" name="1+6"/>
    <tlsState time="177.00" id="2881" programID="NEMA" phase="1" state="grrrrGGrrrrr" name="1+6"/>
    <tlsState time="178.00" id="2881" programID="NEMA" phase="0" state="grrrrGGrrGGG" name="2+6"/>
    <tlsState time="251.00" id="2881" programID="NEMA" phase="1" state="yrrrryyrryyy" name="2+6"/>
    <tlsState time="255.00" id="2881" programID="NEMA" phase="0" state="rrrrrrrrrrrr" name="2+6"/>
    <tlsState time="256.00" id="2881" programID="NEMA" phase="1" state="GGGGGrrrrrrr" name="4+4"/>
    <tlsState time="272.00" id="2881" programID="NEMA" phase="0" state="yyyyyrrrrrrr" name="4+4"/>
    <tlsState time="276.00" id="2881" programID="NEMA" phase="1" state="rrrrrrrrrrrr" name="4+4"/>
    <tlsState time="278.00" id="2881" programID="NEMA" phase="0" state="grrrrGGGGrrr" name="1+6"/>
    <tlsState time="293.00" id="2881" programID="NEMA" phase="1" state="grrrrGGyyrrr" name="1+6"/>
    <tlsState time="297.00" id="2881" programID="NEMA" phase="0" state="grrrrGGrrrrr" name="1+6"/>
    <tlsState time="298.00" id="2881" programID="NEMA" phase="1" state="grrrrGGrrGGG" name="2+6"/>
    <tlsState time="371.00" id="2881" programID="NEMA" phase="0" state="yrrrryyrryyy" name="2+6"/>
    <tlsState time="375.00" id="2881" programID="NEMA" phase="1" state="rrrrrrrrrrrr" name="2+6"/>
    <tlsState time="376.00" id="2881" programID="NEMA" phase="0" state="GGGGGrrrrrrr" name="4+4"/>
    <tlsState time="392.00" id="2881" programID="NEMA" phase="1" state="yyyyyrrrrrrr" name="4+4"/>
    <tlsState time="396.00" id="2881" programID="NEMA" phase="0" state="rrrrrrrrrrrr" name="4+4"/>
    <tlsState time="398.00" id="2881" programID="NEMA" phase="1" state="grrrrGGGGrrr" name="1+6"/>
    <tlsState time="413.00" id="2881" programID="NEMA" phase="0" state="grrrrGGyyrrr" name="1+6"/>
    <tlsState time="417.00" id="2881" programID="NEMA" phase="1" state="grrrrGGrrrrr" name="1+6"/>
    <tlsState time="418.00" id="2881" programID="NEMA" phase="0" state="grrrrGGrrGGG" name="2+6"/>
    <tlsState time="491.00" id="2881" programID="NEMA" phase="1" state="yrrrryyrryyy" name="2+6"/>
    <tlsState time="495.00" id="2881" programID="NEMA" phase="0" state="rrrrrrrrrrrr" name="2+6"/>
    <tlsState time="496.00" id="2881" programID="NEMA" phase="1" state="GGGGGrrrrrrr" name="4+4"/>
</tlsStates>
