<additional xmlns:xsi="http://www.w3.org/2001/XMLSchema-instance" xsi:noNamespaceSchemaLocation="http://sumo.dlr.de/xsd/additional_file.xsd">
	<!-- Calibrator with Routes -->
	<calibrator id="calibratorRoutes" lane="gneE0_0" pos="0.00" freq="100.00" output="calibratorRoutes.txt">
	
		<!-- non valid color (missing) -->
		<route id = "route01" edges="gneE1 gneE0"/>
		
		<!-- non valid color (dummy) -->
		<route id = "route02" edges="gneE1 gneE0" color="dummy"/>
		
		<!-- valid color (empty) -->
		<route id = "route03" edges="gneE1 gneE0" color=""/>
		
		<!-- valid color -->
		<route id = "route04" edges="gneE1 gneE0" color="255,255,255"/>
		
	</calibrator>
	
</additional>
