<?xml version="1.0" encoding="UTF-8"?>

<!-- generated on Mon Feb 17 15:31:05 2020 by Eclipse SUMO netconvert Version v1_5_0+0130-ceb0a01
This data file and the accompanying materials
are made available under the terms of the Eclipse Public License v2.0
which accompanies this distribution, and is available at
http://www.eclipse.org/legal/epl-v20.html
SPDX-License-Identifier: EPL-2.0
<configuration xmlns:xsi="http://www.w3.org/2001/XMLSchema-instance" xsi:noNamespaceSchemaLocation="http://sumo.dlr.de/xsd/netconvertConfiguration.xsd">

    <input>
        <node-files value="input_plain.nod.xml"/>
        <edge-files value="input_plain.edg.xml"/>
    </input>

    <output>
        <write-license value="true"/>
        <output-file value="net.net.xml"/>
    </output>

    <processing>
        <geometry.remove value="true"/>
    </processing>

    <tls_building>
        <tls.discard-simple value="true"/>
        <tls.guess value="true"/>
        <tls.guess.threshold value="52"/>
        <tls.guess.joining value="true"/>
        <tls.guess-signals value="true"/>
    </tls_building>

    <junctions>
        <no-internal-links value="true"/>
        <no-turnarounds.tls value="true"/>
    </junctions>

    <report>
        <xml-validation value="never"/>
        <aggregate-warnings value="5"/>
        <ignore-errors.edge-type value="true"/>
    </report>

</configuration>
-->

<net version="1.6" junctionCornerDetail="5" limitTurnSpeed="5.50" xmlns:xsi="http://www.w3.org/2001/XMLSchema-instance" xsi:noNamespaceSchemaLocation="http://sumo.dlr.de/xsd/net_file.xsd">

    <location netOffset="-484614.25,-4283619.89" convBoundary="0.00,0.00,600.90,434.44" origBoundary="-9.176994,38.701066,-9.170003,38.704995" projParameter="+proj=utm +zone=29 +ellps=WGS84 +datum=WGS84 +units=m +no_defs"/>

    <edge id="-104624960#0" from="1144883012" to="850978991" priority="3" type="highway.residential">
        <lane id="-104624960#0_0" index="0" disallow="tram rail_urban rail rail_electric ship" speed="5.55" length="56.28" shape="262.14,64.51 214.31,53.40"/>
    </edge>
    <edge id="-104624960#1" from="850978997" to="1144883012" priority="3" type="highway.residential">
        <lane id="-104624960#1_0" index="0" disallow="tram rail_urban rail rail_electric ship" speed="5.55" length="87.67" shape="354.68,85.32 276.14,67.70"/>
    </edge>
    <edge id="-189758220" from="2003531114" to="2003531108" priority="3" type="highway.residential">
        <lane id="-189758220_0" index="0" disallow="tram rail_urban rail rail_electric ship" speed="5.55" length="87.78" shape="64.73,313.93 -0.79,264.47"/>
    </edge>
    <edge id="-189758222" from="2003531105" to="2003531115" priority="3" type="highway.residential">
        <lane id="-189758222_0" index="0" disallow="tram rail_urban rail rail_electric ship" speed="5.55" length="97.38" shape="108.17,258.81 31.53,208.87"/>
    </edge>
    <edge id="-19789101" from="205335646" to="205335643" priority="11" type="highway.secondary" shape="192.82,369.97 56.30,389.55 28.89,393.55 24.54,394.23 16.42,395.92">
        <lane id="-19789101_0" index="0" disallow="tram rail_urban rail rail_electric ship" speed="8.88" length="178.31" shape="187.48,375.58 56.98,394.30 29.59,398.30 25.43,398.95"/>
        <lane id="-19789101_1" index="1" disallow="tram rail_urban rail rail_electric ship" speed="8.88" length="178.31" shape="187.03,372.42 56.53,391.13 29.12,395.13 24.78,395.81"/>
    </edge>
    <edge id="-22281157" from="205335001" to="1138891317" priority="12" type="highway.primary">
        <lane id="-22281157_0" index="0" disallow="tram rail_urban rail rail_electric ship" speed="10.00" length="59.69" shape="46.98,36.73 -2.64,4.01"/>
        <lane id="-22281157_1" index="1" disallow="tram rail_urban rail rail_electric ship" speed="10.00" length="59.69" shape="48.74,34.06 -0.88,1.34"/>
    </edge>
    <edge id="-23745814#1" from="2547802381" to="cluster_1139455558_1140137806_1140137809_1140137960_1140138004_1140138013_1140138101_257163521" priority="12" type="highway.primary" shape="205.92,4.48 201.90,21.48 197.58,39.59 189.41,52.01">
        <lane id="-23745814#1_0" index="0" disallow="tram rail_urban rail rail_electric ship" speed="10.00" length="64.48" shape="210.59,5.58 206.57,22.59 202.05,41.52 193.42,54.65"/>
        <lane id="-23745814#1_1" index="1" disallow="tram rail_urban rail rail_electric ship" speed="10.00" length="64.48" shape="207.48,4.85 203.46,21.85 199.07,40.23 190.75,52.89"/>
    </edge>
    <edge id="-23745858" from="1139053148" to="257163520" priority="12" type="highway.primary">
        <lane id="-23745858_0" index="0" disallow="tram rail_urban rail rail_electric ship" speed="10.00" length="72.25" shape="91.25,13.30 150.68,47.10"/>
        <lane id="-23745858_1" index="1" disallow="tram rail_urban rail rail_electric ship" speed="10.00" length="72.25" shape="89.67,16.08 149.10,49.88"/>
    </edge>
    <edge id="-238289248" from="4703791861" to="850979032" priority="3" type="highway.residential">
        <lane id="-238289248_0" index="0" disallow="tram rail_urban rail rail_electric ship" speed="5.55" length="94.16" shape="595.89,419.71 504.39,434.35"/>
    </edge>
    <edge id="-238579736" from="205335643" to="3094970822" priority="11" type="highway.secondary" shape="16.42,395.92 6.74,399.29 1.42,402.81">
        <lane id="-238579736_0" index="0" disallow="tram rail_urban rail rail_electric ship" speed="8.88" length="9.33" shape="21.12,399.36 20.94,399.43"/>
        <lane id="-238579736_1" index="1" disallow="tram rail_urban rail rail_electric ship" speed="8.88" length="9.33" shape="19.69,396.47 19.50,396.54"/>
    </edge>
    <edge id="-238713921#0" from="850979029" to="205335648" priority="11" type="highway.secondary">
        <lane id="-238713921#0_0" index="0" disallow="tram rail_urban rail rail_electric ship" speed="8.88" length="117.23" shape="397.62,312.95 295.25,345.79"/>
        <lane id="-238713921#0_1" index="1" disallow="tram rail_urban rail rail_electric ship" speed="8.88" length="117.23" shape="396.64,309.91 294.28,342.75"/>
    </edge>
    <edge id="-238713921#1" from="4320038435" to="850979029" priority="11" type="highway.secondary" shape="447.18,293.75 427.78,298.55 402.37,306.39">
        <lane id="-238713921#1_0" index="0" disallow="tram rail_urban rail rail_electric ship" speed="8.88" length="46.58" shape="447.72,298.56 429.07,303.18 408.35,309.57"/>
        <lane id="-238713921#1_1" index="1" disallow="tram rail_urban rail rail_electric ship" speed="8.88" length="46.58" shape="446.95,295.45 428.21,300.09 407.41,306.51"/>
    </edge>
    <edge id="-238713921#2" from="cluster_205334989_205335651_2431065505_264059960_4291687761_4320038430_4320038433_4377396882_4377396886_988611930" to="4320038435" priority="11" type="highway.secondary" shape="457.90,291.05 447.18,293.75">
        <lane id="-238713921#2_0" index="0" disallow="tram rail_urban rail rail_electric ship" speed="8.88" length="48.46" shape="459.07,295.70 450.45,297.88"/>
        <lane id="-238713921#2_1" index="1" disallow="tram rail_urban rail rail_electric ship" speed="8.88" length="48.46" shape="458.29,292.60 449.02,294.94"/>
    </edge>
    <edge id="-320999912" from="850979031" to="3277015424" priority="3" type="highway.residential" shape="427.54,417.96 481.89,430.40 494.24,434.44">
        <lane id="-320999912_0" index="0" disallow="tram rail_urban rail rail_electric ship" speed="5.55" length="72.08" shape="428.92,416.63 482.32,428.86 495.83,433.28"/>
    </edge>
    <edge id="-360057321#2" from="205335648" to="cluster_205335636_205335647" priority="11" type="highway.secondary" shape="290.74,342.20 271.10,347.97 260.24,351.16 229.59,360.11 220.55,362.67 213.19,364.82">
        <lane id="-360057321#2_0" index="0" disallow="tram rail_urban rail rail_electric ship" speed="8.88" length="85.95" shape="286.15,348.55 272.45,352.58 261.59,355.77 230.93,364.72 223.18,366.91"/>
        <lane id="-360057321#2_1" index="1" disallow="tram rail_urban rail rail_electric ship" speed="8.88" length="85.95" shape="285.24,345.48 271.55,349.51 260.69,352.70 230.04,361.65 222.29,363.84"/>
    </edge>
    <edge id="-402802899#0" from="3094970812" to="850867446" priority="3" type="highway.residential">
        <lane id="-402802899#0_0" index="0" disallow="tram rail_urban rail rail_electric ship" speed="5.55" length="32.08" shape="14.19,384.00 29.65,364.36"/>
    </edge>
    <edge id="-402802899#2" from="3094970822" to="3094970812" priority="3" type="highway.residential" shape="1.42,402.81 5.52,397.61 11.99,389.38">
        <lane id="-402802899#2_0" index="0" disallow="tram rail_urban rail rail_electric ship" speed="5.55" length="8.45" shape="11.01,388.03 11.14,387.88"/>
    </edge>
    <edge id="-429696858" from="5900032107" to="205334993" priority="12" type="highway.primary" shape="407.80,242.67 379.32,234.09 344.87,221.97 327.44,214.89 315.37,209.66 312.89,208.58 311.68,208.05 294.62,199.86 270.91,188.01">
        <lane id="-429696858_0" index="0" disallow="tram rail_urban rail rail_electric ship" speed="10.00" length="160.21" shape="401.28,249.06 376.84,241.70 342.04,229.45 324.34,222.27 312.19,217.00 309.69,215.91 308.34,215.32 291.10,207.04 261.11,192.06"/>
        <lane id="-429696858_1" index="1" disallow="tram rail_urban rail rail_electric ship" speed="10.00" length="160.21" shape="402.20,246.00 377.83,238.65 343.17,226.46 325.58,219.32 313.46,214.06 310.97,212.98 309.68,212.41 292.51,204.17 262.54,189.19"/>
        <lane id="-429696858_2" index="2" disallow="tram rail_urban rail rail_electric ship" speed="10.00" length="160.21" shape="403.12,242.93 378.82,235.61 344.30,223.47 326.82,216.37 314.73,211.13 312.25,210.05 311.01,209.50 293.92,201.30 263.97,186.33"/>
    </edge>
    <edge id="-429696887" from="cluster_1139455558_1140137806_1140137809_1140137960_1140138004_1140138013_1140138101_257163521" to="1139052687" priority="7" type="highway.primary_link" shape="177.88,66.30 171.97,72.71">
        <lane id="-429696887_0" index="0" disallow="tram rail_urban rail rail_electric ship" speed="10.00" length="14.24" shape="178.84,72.34 178.70,72.49"/>
        <lane id="-429696887_1" index="1" disallow="tram rail_urban rail rail_electric ship" speed="10.00" length="14.24" shape="176.48,70.18 176.35,70.32"/>
    </edge>
    <edge id="-429797071" from="850978977" to="1138859784" priority="12" type="highway.primary">
        <lane id="-429797071_0" index="0" disallow="tram rail_urban rail rail_electric ship" speed="10.00" length="57.00" shape="329.97,168.24 287.48,144.32"/>
        <lane id="-429797071_1" index="1" disallow="tram rail_urban rail rail_electric ship" speed="10.00" length="57.00" shape="331.54,165.45 289.05,141.53"/>
    </edge>
    <edge id="-442360586" from="cluster_205335636_205335647" to="205335646" priority="11" type="highway.secondary" shape="203.27,367.70 192.82,369.97">
        <lane id="-442360586_0" index="0" disallow="tram rail_urban rail rail_electric ship" speed="8.88" length="15.85" shape="197.68,373.83 197.48,373.87"/>
        <lane id="-442360586_1" index="1" disallow="tram rail_urban rail rail_electric ship" speed="8.88" length="15.85" shape="197.00,370.70 196.80,370.74"/>
    </edge>
    <edge id="-98427617#1" from="1138859540" to="257163524" priority="12" type="highway.primary" shape="591.92,241.94 552.67,238.63 517.78,233.65 474.84,225.01 426.55,210.91 402.72,200.24">
        <lane id="-98427617#1_0" index="0" disallow="tram rail_urban rail rail_electric ship" speed="10.00" length="194.85" shape="591.52,246.72 552.13,243.40 516.97,238.38 473.69,229.68 424.89,215.43 404.33,206.22"/>
        <lane id="-98427617#1_1" index="1" disallow="tram rail_urban rail rail_electric ship" speed="10.00" length="194.85" shape="591.79,243.53 552.49,240.22 517.51,235.23 474.46,226.57 426.00,212.42 405.64,203.30"/>
    </edge>
    <edge id="-98442375#1" from="257163524" to="850978977" priority="12" type="highway.primary" shape="402.72,200.24 365.43,181.50 346.33,171.66 335.79,166.01">
        <lane id="-98442375#1_0" index="0" disallow="tram rail_urban rail rail_electric ship" speed="10.00" length="75.18" shape="395.60,205.61 361.80,188.63 342.61,178.74 335.53,174.95"/>
        <lane id="-98442375#1_1" index="1" disallow="tram rail_urban rail rail_electric ship" speed="10.00" length="75.18" shape="397.04,202.76 363.25,185.78 344.10,175.91 337.04,172.13"/>
        <lane id="-98442375#1_2" index="2" disallow="tram rail_urban rail rail_electric ship" speed="10.00" length="75.18" shape="398.47,199.90 364.70,182.93 345.59,173.08 338.55,169.30"/>
    </edge>
    <edge id="-98960349" from="1144883012" to="1144883174" priority="3" type="highway.residential">
        <lane id="-98960349_0" index="0" disallow="tram rail_urban rail rail_electric ship" speed="5.55" length="46.04" shape="269.46,71.92 262.05,104.44"/>
    </edge>
    <edge id="104624960#0" from="850978991" to="1144883012" priority="3" type="highway.residential">
        <lane id="104624960#0_0" index="0" disallow="tram rail_urban rail rail_electric ship" speed="5.55" length="56.28" shape="215.03,50.28 262.86,61.39"/>
    </edge>
    <edge id="104624960#1" from="1144883012" to="850978997" priority="3" type="highway.residential">
        <lane id="104624960#1_0" index="0" disallow="tram rail_urban rail rail_electric ship" speed="5.55" length="87.67" shape="276.84,64.58 355.38,82.20"/>
    </edge>
    <edge id="189758220" from="2003531108" to="2003531114" priority="3" type="highway.residential">
        <lane id="189758220_0" index="0" disallow="tram rail_urban rail rail_electric ship" speed="5.55" length="87.78" shape="1.13,261.91 66.65,311.38"/>
    </edge>
    <edge id="189758222" from="2003531115" to="2003531105" priority="3" type="highway.residential">
        <lane id="189758222_0" index="0" disallow="tram rail_urban rail rail_electric ship" speed="5.55" length="97.38" shape="33.27,206.19 109.92,256.13"/>
    </edge>
    <edge id="19745762#0" from="205334999" to="1138891360" priority="7" type="highway.primary_link" spreadType="center" shape="111.29,105.19 113.46,96.47 117.09,88.23 122.06,80.71">
        <lane id="19745762#0_0" index="0" disallow="tram rail_urban rail rail_electric ship" speed="10.00" length="27.00" shape="111.64,97.16 111.94,95.95 115.68,87.46 115.89,87.14"/>
        <lane id="19745762#0_1" index="1" disallow="tram rail_urban rail rail_electric ship" speed="10.00" length="27.00" shape="114.74,97.93 114.98,96.99 118.50,89.00 118.56,88.90"/>
    </edge>
    <edge id="19745765" from="205335031" to="205335158" priority="7" type="highway.primary_link" spreadType="center" shape="166.44,176.42 165.11,169.45 156.22,150.15 133.99,108.18 128.91,94.52 124.87,73.32 124.23,60.90 125.56,42.72 131.25,30.40 133.49,43.16 132.46,53.74 133.76,63.15 137.75,76.61 141.85,86.01 149.01,98.01 159.38,110.76 171.65,123.23 186.40,139.02 189.91,143.50">
        <lane id="19745765_0" index="0" disallow="tram rail_urban rail rail_electric ship" speed="10.00" length="288.77" shape="162.74,168.14 154.79,150.86 132.53,108.84 127.36,94.95 123.28,73.51 122.63,60.88 123.99,42.31 131.94,25.09 135.10,43.10 134.07,53.71 135.33,62.81 139.26,76.06 143.28,85.28 150.32,97.09 160.57,109.69 172.81,122.12 187.62,137.98 189.88,140.87"/>
        <lane id="19745765_1" index="1" disallow="tram rail_urban rail rail_electric ship" speed="10.00" length="288.77" shape="165.98,167.51 157.65,149.44 135.45,107.52 130.46,94.09 126.46,73.13 125.83,60.92 127.13,43.13 130.56,35.71 131.88,43.22 130.85,53.77 132.19,63.49 136.24,77.16 140.42,86.74 147.70,98.93 158.19,111.83 170.49,124.34 185.18,140.06 187.36,142.84"/>
    </edge>
    <edge id="19745775#0" from="205335158" to="239651096" priority="7" type="highway.primary_link" spreadType="center" shape="189.91,143.50 193.49,155.08 192.80,164.39 191.10,171.93 181.46,181.34">
        <lane id="19745775#0_0" index="0" disallow="tram rail_urban rail rail_electric ship" speed="10.00" length="42.66" shape="194.38,152.54 195.11,154.90 194.39,164.63 192.56,172.74 189.88,175.36"/>
        <lane id="19745775#0_1" index="1" disallow="tram rail_urban rail rail_electric ship" speed="10.00" length="42.66" shape="191.32,153.49 191.87,155.26 191.21,164.15 189.64,171.12 187.64,173.07"/>
    </edge>
    <edge id="19789101" from="205335643" to="205335646" priority="11" type="highway.secondary" shape="16.42,395.92 24.54,394.23 28.89,393.55 56.30,389.55 192.82,369.97">
        <lane id="19789101_0" index="0" disallow="tram rail_urban rail rail_electric ship" speed="8.88" length="178.31" shape="23.48,389.55 23.68,389.51 28.17,388.80 55.61,384.80 186.12,366.08"/>
        <lane id="19789101_1" index="1" disallow="tram rail_urban rail rail_electric ship" speed="8.88" length="178.31" shape="24.13,392.68 24.25,392.66 28.65,391.97 56.07,387.97 186.57,369.25"/>
    </edge>
    <edge id="22280596#1" from="205335031" to="1138897815" priority="12" type="highway.primary" spreadType="center" shape="166.44,176.42 157.89,172.42 153.61,170.02">
        <lane id="22280596#1_0" index="0" disallow="tram rail_urban rail rail_electric ship" speed="10.00" length="14.34" shape="158.53,174.48 158.35,174.40"/>
        <lane id="22280596#1_1" index="1" disallow="tram rail_urban rail rail_electric ship" speed="10.00" length="14.34" shape="159.99,171.64 159.81,171.55"/>
    </edge>
    <edge id="22281157" from="1138891317" to="205335001" priority="12" type="highway.primary">
        <lane id="22281157_0" index="0" disallow="tram rail_urban rail rail_electric ship" speed="10.00" length="59.69" shape="2.64,-4.01 52.27,28.71"/>
        <lane id="22281157_1" index="1" disallow="tram rail_urban rail rail_electric ship" speed="10.00" length="59.69" shape="0.88,-1.34 50.51,31.39"/>
    </edge>
    <edge id="23745638" from="3094970812" to="4052180992" priority="3" type="highway.residential" spreadType="center">
        <lane id="23745638_0" index="0" disallow="tram rail_urban rail rail_electric ship" speed="5.55" length="10.95" shape="6.31,384.95 3.36,382.64"/>
    </edge>
    <edge id="23745858" from="257163520" to="1139053148" priority="12" type="highway.primary">
        <lane id="23745858_0" index="0" disallow="tram rail_urban rail rail_electric ship" speed="10.00" length="72.25" shape="145.94,55.45 86.51,21.64"/>
        <lane id="23745858_1" index="1" disallow="tram rail_urban rail rail_electric ship" speed="10.00" length="72.25" shape="147.52,52.67 88.09,18.86"/>
    </edge>
    <edge id="238289248" from="850979032" to="4703791861" priority="3" type="highway.residential">
        <lane id="238289248_0" index="0" disallow="tram rail_urban rail rail_electric ship" speed="5.55" length="94.16" shape="503.89,431.19 595.39,416.55"/>
    </edge>
    <edge id="238579736" from="3094970822" to="205335643" priority="11" type="highway.secondary" shape="1.42,402.81 6.74,399.29 16.42,395.92">
        <lane id="238579736_0" index="0" disallow="tram rail_urban rail rail_electric ship" speed="8.88" length="9.33" shape="16.64,390.76 16.83,390.69"/>
        <lane id="238579736_1" index="1" disallow="tram rail_urban rail rail_electric ship" speed="8.88" length="9.33" shape="18.07,393.65 18.26,393.58"/>
    </edge>
    <edge id="238713921#0" from="205335648" to="850979029" priority="11" type="highway.secondary">
        <lane id="238713921#0_0" index="0" disallow="tram rail_urban rail rail_electric ship" speed="8.88" length="117.23" shape="292.32,336.65 394.69,303.81"/>
        <lane id="238713921#0_1" index="1" disallow="tram rail_urban rail rail_electric ship" speed="8.88" length="117.23" shape="293.30,339.70 395.67,306.86"/>
    </edge>
    <edge id="238713921#1" from="850979029" to="4320038435" priority="11" type="highway.secondary" shape="402.37,306.39 427.78,298.55 447.18,293.75">
        <lane id="238713921#1_0" index="0" disallow="tram rail_urban rail rail_electric ship" speed="8.88" length="46.58" shape="405.52,300.40 426.49,293.92 445.41,289.24"/>
        <lane id="238713921#1_1" index="1" disallow="tram rail_urban rail rail_electric ship" speed="8.88" length="46.58" shape="406.46,303.45 427.35,297.01 446.18,292.35"/>
    </edge>
    <edge id="238713921#2" from="4320038435" to="cluster_205334989_205335651_2431065505_264059960_4291687761_4320038430_4320038433_4377396882_4377396886_988611930" priority="11" type="highway.secondary" shape="447.18,293.75 457.90,291.05">
        <lane id="238713921#2_0" index="0" disallow="tram rail_urban rail rail_electric ship" speed="8.88" length="48.46" shape="446.20,289.05 456.73,286.40"/>
        <lane id="238713921#2_1" index="1" disallow="tram rail_urban rail rail_electric ship" speed="8.88" length="48.46" shape="447.62,291.99 457.51,289.50"/>
    </edge>
    <edge id="238713923#0" from="cluster_205335636_205335647" to="850867470" priority="13" type="highway.trunk" spreadType="center" shape="203.27,367.70 201.93,362.60 175.23,260.99">
        <lane id="238713923#0_0" index="0" disallow="pedestrian bicycle tram rail_urban rail rail_electric ship" speed="16.66" length="106.93" shape="198.98,357.66 175.88,269.74"/>
        <lane id="238713923#0_1" index="1" disallow="pedestrian bicycle tram rail_urban rail rail_electric ship" speed="16.66" length="106.93" shape="202.07,356.85 178.97,268.93"/>
    </edge>
    <edge id="238713923#2" from="850867470" to="205329856" priority="13" type="highway.trunk" spreadType="center" shape="175.23,260.99 171.09,240.33 166.94,219.66">
        <lane id="238713923#2_0" index="0" disallow="pedestrian bicycle tram rail_urban rail rail_electric ship" speed="16.66" length="48.76" shape="173.77,261.83 169.52,240.64 166.46,225.39"/>
        <lane id="238713923#2_1" index="1" disallow="pedestrian bicycle tram rail_urban rail rail_electric ship" speed="16.66" length="48.76" shape="176.90,261.20 172.66,240.02 169.60,224.76"/>
    </edge>
    <edge id="238713924" from="cluster_205335636_205335647" to="4377397121" priority="13" type="highway.trunk" spreadType="center" shape="213.19,364.82 214.26,369.31">
        <lane id="238713924_0" index="0" disallow="pedestrian bicycle tram rail_urban rail rail_electric ship" speed="16.66" length="12.38" shape="218.07,371.48 218.11,371.68"/>
        <lane id="238713924_1" index="1" disallow="pedestrian bicycle tram rail_urban rail rail_electric ship" speed="16.66" length="12.38" shape="214.95,372.22 215.00,372.42"/>
        <lane id="238713924_2" index="2" disallow="pedestrian bicycle tram rail_urban rail rail_electric ship" speed="16.66" length="12.38" shape="211.84,372.97 211.89,373.16"/>
    </edge>
    <edge id="238713925#0" from="205335022" to="205335031" priority="13" type="highway.trunk" spreadType="center" shape="166.22,215.76 165.76,200.02 166.15,186.75 166.44,176.42">
        <lane id="238713925#0_0" index="0" disallow="pedestrian bicycle tram rail_urban rail rail_electric ship" speed="16.66" length="39.36" shape="164.18,200.89 164.16,200.02 164.55,186.70 164.64,183.44"/>
        <lane id="238713925#0_1" index="1" disallow="pedestrian bicycle tram rail_urban rail rail_electric ship" speed="16.66" length="39.36" shape="167.38,200.79 167.36,200.02 167.75,186.80 167.84,183.53"/>
    </edge>
    <edge id="238713931#0" from="205335168" to="196175998" priority="13" type="highway.trunk" spreadType="center">
        <lane id="238713931#0_0" index="0" disallow="pedestrian bicycle tram rail_urban rail rail_electric ship" speed="16.66" length="15.87" shape="182.29,193.79 182.24,194.19"/>
        <lane id="238713931#0_1" index="1" disallow="pedestrian bicycle tram rail_urban rail rail_electric ship" speed="16.66" length="15.87" shape="179.11,193.38 179.06,193.77"/>
        <lane id="238713931#0_2" index="2" disallow="pedestrian bicycle tram rail_urban rail rail_electric ship" speed="16.66" length="15.87" shape="175.94,192.97 175.89,193.36"/>
    </edge>
    <edge id="238713931#1" from="196175998" to="cluster_205335636_205335647" priority="13" type="highway.trunk" spreadType="center" shape="177.56,205.36 177.97,227.90 181.86,244.04 212.15,360.77 213.19,364.82">
        <lane id="238713931#1_0" index="0" disallow="pedestrian bicycle tram rail_urban rail rail_electric ship" speed="16.66" length="165.26" shape="180.80,207.54 181.16,227.49 184.96,243.26 213.65,353.81"/>
        <lane id="238713931#1_1" index="1" disallow="pedestrian bicycle tram rail_urban rail rail_electric ship" speed="16.66" length="165.26" shape="177.60,207.60 177.97,227.90 181.86,244.04 210.55,354.62"/>
        <lane id="238713931#1_2" index="2" disallow="pedestrian bicycle tram rail_urban rail rail_electric ship" speed="16.66" length="165.26" shape="174.40,207.65 174.78,228.31 178.76,244.82 207.46,355.43"/>
    </edge>
    <edge id="238713932" from="205335158" to="25726347" priority="7" type="highway.primary_link" spreadType="center" shape="189.91,143.50 208.74,154.99 222.13,162.09 235.99,167.84 255.99,174.20">
        <lane id="238713932_0" index="0" disallow="tram rail_urban rail rail_electric ship" speed="10.00" length="73.19" shape="199.25,147.32 209.53,153.60 222.81,160.64 232.72,164.75"/>
        <lane id="238713932_1" index="1" disallow="tram rail_urban rail rail_electric ship" speed="10.00" length="73.19" shape="197.58,150.05 207.95,156.38 221.45,163.54 231.75,167.81"/>
    </edge>
    <edge id="26580101#0" from="205334995" to="196175998" priority="7" type="highway.primary_link" spreadType="center" shape="208.84,184.72 191.70,193.81 183.24,200.72 177.56,205.36">
        <lane id="26580101#0_0" index="0" disallow="tram rail_urban rail rail_electric ship" speed="10.00" length="30.34" shape="198.80,191.86 192.59,195.15 188.11,198.81"/>
        <lane id="26580101#0_1" index="1" disallow="tram rail_urban rail rail_electric ship" speed="10.00" length="30.34" shape="197.30,189.03 190.81,192.47 186.09,196.33"/>
    </edge>
    <edge id="26580102" from="236040731" to="239651096" priority="7" type="highway.primary_link" spreadType="center" shape="124.97,82.46 142.00,98.79 160.24,128.71 172.87,147.04 178.03,160.61 180.11,170.60 181.46,181.34">
        <lane id="26580102_0" index="0" disallow="tram rail_urban rail rail_electric ship" speed="10.00" length="103.36" shape="142.46,97.01 143.26,97.78 161.58,127.84 174.30,146.29 179.57,160.16 181.69,170.34 181.77,171.02"/>
        <lane id="26580102_1" index="1" disallow="tram rail_urban rail rail_electric ship" speed="10.00" length="103.36" shape="140.24,99.32 140.74,99.80 158.90,129.58 171.44,147.79 176.49,161.06 178.53,170.86 178.60,171.42"/>
    </edge>
    <edge id="309858055" from="4377397122" to="cluster_205335636_205335647" priority="13" type="highway.trunk" spreadType="center" shape="204.31,371.91 203.27,367.70">
        <lane id="309858055_0" index="0" disallow="pedestrian bicycle tram rail_urban rail rail_electric ship" speed="16.66" length="12.33" shape="201.94,375.66 201.89,375.47"/>
        <lane id="309858055_1" index="1" disallow="pedestrian bicycle tram rail_urban rail rail_electric ship" speed="16.66" length="12.33" shape="205.05,374.90 205.00,374.71"/>
        <lane id="309858055_2" index="2" disallow="pedestrian bicycle tram rail_urban rail rail_electric ship" speed="16.66" length="12.33" shape="208.16,374.15 208.11,373.96"/>
    </edge>
    <edge id="320999912" from="3277015424" to="850979031" priority="3" type="highway.residential" shape="494.24,434.44 481.89,430.40 427.54,417.96">
        <lane id="320999912_0" index="0" disallow="tram rail_urban rail rail_electric ship" speed="5.55" length="72.08" shape="494.83,436.32 481.46,431.94 428.21,419.75"/>
    </edge>
    <edge id="320999913#0" from="850979031" to="850979026" priority="3" type="highway.residential" spreadType="center" shape="427.54,417.96 404.21,413.05 398.28,413.06 389.55,413.06 337.45,405.56 294.79,404.98">
        <lane id="320999913#0_0" index="0" disallow="tram rail_urban rail rail_electric ship" speed="5.55" length="133.80" shape="422.95,416.99 404.21,413.05 398.28,413.06 389.55,413.06 337.45,405.56 300.28,405.05"/>
    </edge>
    <edge id="360057321#0" from="cluster_205335636_205335647" to="205335648" priority="11" type="highway.secondary" shape="213.19,364.82 220.55,362.67 229.59,360.11 260.24,351.16 271.10,347.97 290.74,342.20">
        <lane id="360057321#0_0" index="0" disallow="tram rail_urban rail rail_electric ship" speed="8.88" length="85.95" shape="220.49,357.70 228.26,355.50 258.89,346.55 269.75,343.36 283.44,339.34"/>
        <lane id="360057321#0_1" index="1" disallow="tram rail_urban rail rail_electric ship" speed="8.88" length="85.95" shape="221.39,360.77 229.15,358.57 259.79,349.62 270.65,346.43 284.34,342.41"/>
    </edge>
    <edge id="36607506#0" from="205335648" to="850979026" priority="3" type="highway.residential" spreadType="center" shape="290.74,342.20 291.04,346.79 294.79,404.98">
        <lane id="36607506#0_0" index="0" disallow="tram rail_urban rail rail_electric ship" speed="5.55" length="62.91" shape="291.39,352.22 294.44,399.59"/>
    </edge>
    <edge id="36607506#2" from="850979026" to="426012504" priority="3" type="highway.residential" spreadType="center">
        <lane id="36607506#2_0" index="0" disallow="tram rail_urban rail rail_electric ship" speed="5.55" length="28.70" shape="294.61,410.47 293.85,433.66"/>
    </edge>
    <edge id="38001348#0" from="1144883174" to="593889385" priority="3" type="highway.residential" spreadType="center" shape="259.27,109.46 344.25,129.84 364.60,135.09 489.75,163.44">
        <lane id="38001348#0_0" index="0" disallow="tram rail_urban rail rail_electric ship" speed="5.55" length="236.73" shape="266.21,111.12 344.25,129.84 364.60,135.09 489.75,163.44"/>
    </edge>
    <edge id="402802899#0" from="850867446" to="3094970812" priority="3" type="highway.residential">
        <lane id="402802899#0_0" index="0" disallow="tram rail_urban rail rail_electric ship" speed="5.55" length="32.08" shape="32.16,366.34 16.70,385.98"/>
    </edge>
    <edge id="402802899#1" from="3094970812" to="3094970822" priority="3" type="highway.residential" shape="11.99,389.38 5.52,397.61 1.42,402.81">