<?xml version="1.0" encoding="UTF-8"?>

<!-- generated on 2021-09-08 22:41:08 by Eclipse SUMO marouter Version v1_10_0+0595-3ff6633
This data file and the accompanying materials
are made available under the terms of the Eclipse Public License v2.0
which accompanies this distribution, and is available at
http://www.eclipse.org/legal/epl-v20.html
SPDX-License-Identifier: EPL-2.0
<configuration xmlns:xsi="http://www.w3.org/2001/XMLSchema-instance" xsi:noNamespaceSchemaLocation="http://sumo.dlr.de/xsd/marouterConfiguration.xsd">

    <input>
        <net-file value="input_net.net.xml"/>
        <additional-files value="input_taz.taz.xml"/>
        <tazrelation-files value="input_od.xml"/>
    </input>

    <output>
        <output-file value="routes.rou.xml"/>
        <netload-output value="aggregated.xml"/>
        <write-license value="true"/>
    </output>

    <report>
        <xml-validation value="never"/>
        <xml-validation.routes value="never"/>
    </report>

</configuration>
-->

<routes xmlns:xsi="http://www.w3.org/2001/XMLSchema-instance" xsi:noNamespaceSchemaLocation="http://sumo.dlr.de/xsd/routes_file.xsd">
    <flow id="0" begin="0.00" end="3600.00" number="10" type="car" fromTaz="1" toTaz="2" departLane="free" departSpeed="max">
        <routeDistribution>
            <route cost="90.50" probability="9.00000000" edges="middle end"/>
            <route cost="90.50" probability="1.00000000" edges="beg2left left left2end end"/>
        </routeDistribution>
    </flow>
</routes>
