<?xml version="1.0" encoding="UTF-8"?>

<!-- generated on 2021-11-18 11:08:15 by Eclipse SUMO netedit Version v1_10_0+2392-e12c4deaa57
-->

<additional xmlns:xsi="http://www.w3.org/2001/XMLSchema-instance" xsi:noNamespaceSchemaLocation="http://sumo.dlr.de/xsd/additional_file.xsd">
    <busStop id="busStop1" lane="gneE0_0" startPos="23.78" endPos="30.38" friendlyPos="true"/>
    <busStop id="busStop2" lane="gneE1_0" startPos="20.63" endPos="30.63" friendlyPos="true"/>
    <busStop id="busStop3" lane="gneE2_0" startPos="39.59" endPos="46.19" friendlyPos="true"/>
    <busStop id="busStop_-gneE2_0_3" lane="-gneE2_0" startPos="38.60" endPos="48.60" friendlyPos="true"/>
</additional>
