<?xml version="1.0"?>

<!-- generated on 03/18/10 14:23:41 by SUMO duarouter Version dev-SVN-r8460
<configuration>

    <input>
        <net-file value="input_net.net.xml"/>
        <flow-definition value="input_flows.flows.xml"/>
    </input>

    <output>
        <output-file value="routes.rou.xml"/>
    </output>

</configuration>
-->

<route-alternatives>
   <vtype id="0" length="7.00" maxspeed="30.00" color="1.00,0.00,0.00">
      <carFollowing-Krauss accel="1.60" decel="5.50" sigma="0.90"/>
   </vtype>
    <vehicle id="0_0" type="0" depart="0.00">
        <routeDistribution last="0">
            <route cost="125.11" probability="1.00000000" edges="beg middle end rend"/>
        </routeDistribution>
    </vehicle>
    <vehicle id="0_1" type="0" depart="10.00">
        <routeDistribution last="0">
            <route cost="125.11" probability="1.00000000" edges="beg middle end rend"/>
        </routeDistribution>
    </vehicle>
    <vehicle id="0_2" type="0" depart="20.00">
        <routeDistribution last="0">
            <route cost="125.11" probability="1.00000000" edges="beg middle end rend"/>
        </routeDistribution>
    </vehicle>
    <vehicle id="0_3" type="0" depart="30.00">
        <routeDistribution last="0">
            <route cost="125.11" probability="1.00000000" edges="beg middle end rend"/>
        </routeDistribution>
    </vehicle>
    <vehicle id="0_4" type="0" depart="40.00">
        <routeDistribution last="0">
            <route cost="125.11" probability="1.00000000" edges="beg middle end rend"/>
        </routeDistribution>
    </vehicle>
    <vehicle id="0_5" type="0" depart="50.00">
        <routeDistribution last="0">
            <route cost="125.11" probability="1.00000000" edges="beg middle end rend"/>
        </routeDistribution>
    </vehicle>
    <vehicle id="0_6" type="0" depart="60.00">
        <routeDistribution last="0">
            <route cost="125.11" probability="1.00000000" edges="beg middle end rend"/>
        </routeDistribution>
    </vehicle>
    <vehicle id="0_7" type="0" depart="70.00">
        <routeDistribution last="0">
            <route cost="125.11" probability="1.00000000" edges="beg middle end rend"/>
        </routeDistribution>
    </vehicle>
    <vehicle id="0_8" type="0" depart="80.00">
        <routeDistribution last="0">
            <route cost="125.11" probability="1.00000000" edges="beg middle end rend"/>
        </routeDistribution>
    </vehicle>
    <vehicle id="0_9" type="0" depart="90.00">
        <routeDistribution last="0">
            <route cost="125.11" probability="1.00000000" edges="beg middle end rend"/>
        </routeDistribution>
    </vehicle>
</route-alternatives>
