<?xml version="1.0"?>

<!-- generated on Tue Jul 12 17:11:34 2011 by SUMO duarouter Version dev-SVN-r10960
<?xml version="1.0" encoding="iso-8859-1"?>

<configuration xmlns:xsi="http://www.w3.org/2001/XMLSchema-instance" xsi:noNamespaceSchemaLocation="http://sumo.sf.net/xsd/duarouterConfiguration.xsd">

    <input>
        <net-file value="input_net.net.xml"/>
        <flow-files value="input_flows.flows.xml"/>
    </input>

    <output>
        <output-file value="routes.rou.xml"/>
    </output>

</configuration>
-->

<routes xmlns:xsi="http://www.w3.org/2001/XMLSchema-instance" xsi:noNamespaceSchemaLocation="http://sumo.sf.net/xsd/routes_file.xsd">
    <vType id="0" length="5.00" minGap="2.00" maxSpeed="30.00" color="1.00,0.00,0.00">
        <carFollowing-Krauss accel="1.60" decel="5.50" sigma="0.90"/>
    </vType>
    <vehicle id="0_0" type="0" depart="0.00">
        <routeDistribution last="0">
            <route cost="125.11" probability="1.00000000" edges="beg middle end rend"/>
        </routeDistribution>
    </vehicle>
    <vehicle id="0_1" type="0" depart="10.00">
        <routeDistribution last="0">
            <route cost="125.11" probability="1.00000000" edges="beg middle end rend"/>
        </routeDistribution>
    </vehicle>
    <vehicle id="0_2" type="0" depart="20.00">
        <routeDistribution last="0">
            <route cost="125.11" probability="1.00000000" edges="beg middle end rend"/>
        </routeDistribution>
    </vehicle>
    <vehicle id="0_3" type="0" depart="30.00">
        <routeDistribution last="0">
            <route cost="125.11" probability="1.00000000" edges="beg middle end rend"/>
        </routeDistribution>
    </vehicle>
    <vehicle id="0_4" type="0" depart="40.00">
        <routeDistribution last="0">
            <route cost="125.11" probability="1.00000000" edges="beg middle end rend"/>
        </routeDistribution>
    </vehicle>
    <vehicle id="0_5" type="0" depart="50.00">
        <routeDistribution last="0">
            <route cost="125.11" probability="1.00000000" edges="beg middle end rend"/>
        </routeDistribution>
    </vehicle>
    <vehicle id="0_6" type="0" depart="60.00">
        <routeDistribution last="0">
            <route cost="125.11" probability="1.00000000" edges="beg middle end rend"/>
        </routeDistribution>
    </vehicle>
    <vehicle id="0_7" type="0" depart="70.00">
        <routeDistribution last="0">
            <route cost="125.11" probability="1.00000000" edges="beg middle end rend"/>
        </routeDistribution>
    </vehicle>
    <vehicle id="0_8" type="0" depart="80.00">
        <routeDistribution last="0">
            <route cost="125.11" probability="1.00000000" edges="beg middle end rend"/>
        </routeDistribution>
    </vehicle>
    <vehicle id="0_9" type="0" depart="90.00">
        <routeDistribution last="0">
            <route cost="125.11" probability="1.00000000" edges="beg middle end rend"/>
        </routeDistribution>
    </vehicle>
</routes>
