<?xml version="1.0" encoding="UTF-8"?>

<!-- generated on Fri 26 Apr 2019 12:47:31 PM CEST by Eclipse SUMO netedit Version v1_2_0+0026-b74d136
<configuration xmlns:xsi="http://www.w3.org/2001/XMLSchema-instance" xsi:noNamespaceSchemaLocation="http://sumo.dlr.de/xsd/netconvertConfiguration.xsd">

    <input>
        <sumo-net-file value="/scr2/debug/_import_OSM_bugs_ticket5513/nojoin_patched.net.xml"/>
    </input>

    <output>
        <output-file value="/scr2/debug/_import_OSM_bugs_ticket5513/nojoin_patched.net.xml"/>
        <plain-output-prefix value="/scr2/debug/_import_OSM_bugs_ticket5513/input_plain"/>
    </output>

    <processing>
        <geometry.max-grade.fix value="false"/>
        <offset.disable-normalization value="true"/>
        <lefthand value="false"/>
    </processing>

    <junctions>
        <no-internal-links value="true"/>
        <no-turnarounds value="true"/>
        <junctions.corner-detail value="5"/>
        <junctions.limit-turn-speed value="5.5"/>
        <rectangular-lane-cut value="false"/>
    </junctions>

    <pedestrian>
        <walkingareas value="false"/>
    </pedestrian>

    <visualisation>
        <registry-viewport value="true"/>
    </visualisation>

</configuration>
-->

<edges version="1.1" xmlns:xsi="http://www.w3.org/2001/XMLSchema-instance" xsi:noNamespaceSchemaLocation="http://sumo.dlr.de/xsd/edges_file.xsd">
    <edge id="-132174699" from="3646961143" to="cluster_201484298_3646958907" priority="10" type="highway.tertiary" numLanes="1" speed="7.77" shape="159.45,1451.11 159.74,1460.30 160.69,1469.74 162.04,1479.84 163.66,1489.46 180.70,1576.40 182.97,1588.62 184.59,1600.10 186.15,1611.29" disallow="tram rail_urban rail rail_electric ship"/>
    <edge id="-19354946" from="3649519965" to="201169348" priority="7" type="highway.primary_link" numLanes="2" speed="10.00" disallow="tram rail_urban rail rail_electric ship"/>
    <edge id="-19390809" from="201648374" to="201583483" priority="3" type="highway.residential" numLanes="1" speed="5.55" disallow="tram rail_urban rail rail_electric ship"/>
    <edge id="-359891757" from="201579267" to="201484338" priority="12" type="highway.primary" numLanes="2" speed="10.00" shape="222.72,1863.87 227.06,1861.99 231.78,1859.55 236.32,1856.67 241.45,1852.36 261.81,1832.99 268.57,1825.58" disallow="tram rail_urban rail rail_electric ship"/>
    <edge id="-360431542" from="201158163" to="3649770499" priority="4" type="highway.unclassified" numLanes="1" speed="5.55" shape="538.00,1751.16 539.91,1749.02 541.88,1746.49 543.56,1743.23 550.47,1724.07 552.65,1717.00 558.74,1694.30" disallow="tram rail_urban rail rail_electric ship"/>
    <edge id="-47795739" from="3645211939" to="201649895" priority="12" type="highway.primary" numLanes="2" speed="10.00" disallow="tram rail_urban rail rail_electric ship"/>
    <edge id="-47795742" from="201579267" to="201579305" priority="11" type="highway.secondary" numLanes="1" speed="8.88" shape="222.72,1863.87 220.13,1858.87 216.97,1853.10 138.98,1733.76 114.67,1696.82 106.26,1684.41 99.89,1676.25 94.96,1669.99 90.32,1664.77 84.70,1659.12 79.90,1655.12 75.59,1652.18 70.17,1649.82 64.39,1648.20 58.56,1647.48 52.96,1647.07 46.39,1647.25 39.44,1647.81 0.00,1651.84" disallow="tram rail_urban rail rail_electric ship"/>
    <edge id="-47795933#0" from="201314888" to="201364790" priority="12" type="highway.primary" numLanes="2" speed="10.00" disallow="tram rail_urban rail rail_electric ship"/>
    <edge id="-47795933#1" from="201364781" to="201314888" priority="12" type="highway.primary" numLanes="2" speed="10.00" disallow="tram rail_urban rail rail_electric ship"/>
    <edge id="-47795958" from="cluster_201220801_201589322_3645231524_3645231555_5819001482" to="201146870" priority="12" type="highway.primary" numLanes="1" speed="10.00" shape="446.79,1800.76 499.03,1826.44 507.10,1830.82 514.85,1835.31 521.75,1839.70 527.68,1844.33 532.44,1849.35 536.85,1855.19 601.18,1953.59" disallow="tram rail_urban rail rail_electric ship"/>
    <edge id="-480176669" from="1802287943" to="3646961143" priority="10" type="highway.tertiary" numLanes="1" speed="7.77" disallow="tram rail_urban rail rail_electric ship"/>
    <edge id="-547275315" from="201484338" to="3645211939" priority="12" type="highway.primary" numLanes="2" speed="10.00" shape="268.57,1825.58 274.53,1818.53 288.36,1799.16" disallow="tram rail_urban rail rail_electric ship"/>
    <edge id="-547275318" from="201484338" to="2428450057" priority="11" type="highway.secondary" numLanes="2" speed="8.88" shape="268.57,1825.58 275.49,1832.21 279.33,1836.52 282.67,1841.19 298.82,1874.37" disallow="tram rail_urban rail rail_electric ship"/>
    <edge id="-615359718#0" from="5819001425" to="3649758013" priority="4" type="highway.unclassified" numLanes="1" speed="5.55" disallow="tram rail_urban rail rail_electric ship"/>
    <edge id="-615359718#1" from="5819001431" to="5819001425" priority="4" type="highway.unclassified" numLanes="1" speed="5.55" disallow="tram rail_urban rail rail_electric ship"/>
    <edge id="-615359718#2" from="5819001429" to="5819001431" priority="4" type="highway.unclassified" numLanes="1" speed="5.55" disallow="tram rail_urban rail rail_electric ship"/>
    <edge id="-615359718#3" from="5819001426" to="5819001429" priority="4" type="highway.unclassified" numLanes="1" speed="5.55" disallow="tram rail_urban rail rail_electric ship"/>
    <edge id="-615359718#4" from="5819001413" to="5819001426" priority="4" type="highway.unclassified" numLanes="1" speed="5.55" disallow="tram rail_urban rail rail_electric ship"/>
    <edge id="-615359718#5" from="5819001391" to="5819001413" priority="4" type="highway.unclassified" numLanes="1" speed="5.55" shape="319.59,1518.59 325.80,1523.15 330.17,1528.68 331.85,1532.19 335.92,1546.22" disallow="tram rail_urban rail rail_electric ship"/>
    <edge id="-615359718#6" from="5819001407" to="5819001391" priority="4" type="highway.unclassified" numLanes="1" speed="5.55" shape="295.65,1519.44 307.91,1516.41 313.88,1517.30 319.59,1518.59" disallow="tram rail_urban rail rail_electric ship"/>
    <edge id="-615359718#7" from="5819001399" to="5819001407" priority="4" type="highway.unclassified" numLanes="1" speed="5.55" disallow="tram rail_urban rail rail_electric ship"/>
    <edge id="-615359718#8" from="5819001404" to="5819001399" priority="4" type="highway.unclassified" numLanes="1" speed="5.55" shape="268.42,1526.93 270.70,1525.58 281.75,1522.86" disallow="tram rail_urban rail rail_electric ship"/>
    <edge id="-615359718#9" from="5819001398" to="5819001404" priority="4" type="highway.unclassified" numLanes="1" speed="5.55" shape="297.60,1706.98 262.42,1600.44 262.91,1533.43 264.70,1529.12 268.42,1526.93" disallow="tram rail_urban rail rail_electric ship"/>
    <edge id="-615359720#0" from="5819001405" to="5819001399" priority="4" type="highway.unclassified" numLanes="1" speed="5.55" shape="269.07,1502.68 269.44,1491.00 279.62,1491.33 279.95,1517.00 281.75,1522.86" disallow="tram rail_urban rail rail_electric ship"/>
    <edge id="-615359720#1" from="5819001404" to="5819001405" priority="4" type="highway.unclassified" numLanes="1" speed="5.55" shape="268.42,1526.93 268.50,1519.89 269.07,1502.68" disallow="tram rail_urban rail rail_electric ship"/>
    <edge id="-615359721" from="5819001406" to="5819001405" priority="4" type="highway.unclassified" numLanes="1" speed="5.55" disallow="tram rail_urban rail rail_electric ship"/>
    <edge id="-615359723" from="5819001408" to="5819001407" priority="4" type="highway.unclassified" numLanes="1" speed="5.55" disallow="tram rail_urban rail rail_electric ship"/>
    <edge id="-615359724#0" from="5819001412" to="5819001391" priority="4" type="highway.unclassified" numLanes="1" speed="5.55" shape="365.59,1537.21 361.76,1525.00 359.08,1523.87 337.09,1523.96 319.59,1518.59" disallow="tram rail_urban rail rail_electric ship"/>
    <edge id="-615359724#1" from="5819001413" to="5819001412" priority="4" type="highway.unclassified" numLanes="1" speed="5.55" disallow="tram rail_urban rail rail_electric ship"/>
    <edge id="-615359726#0" from="5819001427" to="5819001412" priority="4" type="highway.unclassified" numLanes="1" speed="5.55" shape="407.79,1544.58 403.96,1536.01 386.52,1533.53 374.27,1534.47 365.59,1537.21" disallow="tram rail_urban rail rail_electric ship"/>
    <edge id="-615359726#1" from="5819001417" to="5819001427" priority="4" type="highway.unclassified" numLanes="1" speed="5.55" disallow="tram rail_urban rail rail_electric ship"/>
    <edge id="-615359726#2" from="cluster_5819001430_5819001435" to="5819001417" priority="4" type="highway.unclassified" numLanes="1" speed="5.55" shape="426.79,1622.01 443.11,1624.05 444.49,1611.97 444.62,1602.42 440.50,1589.58 434.37,1573.38 429.26,1567.40 413.96,1558.36" disallow="tram rail_urban rail rail_electric ship"/>
    <edge id="-615359726#4" from="5819001424" to="cluster_5819001430_5819001435" priority="4" type="highway.unclassified" numLanes="1" speed="5.55" shape="377.00,1615.81 419.75,1621.14" disallow="tram rail_urban rail rail_electric ship"/>
    <edge id="-615359726#5" from="5819001425" to="5819001424" priority="4" type="highway.unclassified" numLanes="1" speed="5.55" disallow="tram rail_urban rail rail_electric ship"/>
    <edge id="-615359727" from="5819001427" to="5819001426" priority="4" type="highway.unclassified" numLanes="1" speed="5.55" disallow="tram rail_urban rail rail_electric ship"/>
    <edge id="-615359729#0" from="5819001428" to="5819001417" priority="4" type="highway.unclassified" numLanes="1" speed="5.55" disallow="tram rail_urban rail rail_electric ship"/>
    <edge id="-615359729#1" from="5819001429" to="5819001428" priority="4" type="highway.unclassified" numLanes="1" speed="5.55" disallow="tram rail_urban rail rail_electric ship"/>
    <edge id="-615359730#0" from="5819001432" to="5819001428" priority="4" type="highway.unclassified" numLanes="1" speed="5.55" disallow="tram rail_urban rail rail_electric ship"/>
    <edge id="-615359730#1" from="5819001672" to="5819001432" priority="4" type="highway.unclassified" numLanes="1" speed="5.55" disallow="tram rail_urban rail rail_electric ship"/>
    <edge id="-615359730#2" from="cluster_5819001430_5819001435" to="5819001672" priority="4" type="highway.unclassified" numLanes="1" speed="5.55" shape="419.75,1621.14 414.17,1605.20" disallow="tram rail_urban rail rail_electric ship"/>
    <edge id="-615359732" from="5819001432" to="5819001431" priority="4" type="highway.unclassified" numLanes="1" speed="5.55" disallow="tram rail_urban rail rail_electric ship"/>
    <edge id="-615359733" from="201221373" to="5819001427" priority="4" type="highway.unclassified" numLanes="1" speed="5.55" shape="419.23,1537.14 416.28,1538.38 411.59,1542.40 407.79,1544.58" disallow="tram rail_urban rail rail_electric ship"/>
    <edge id="-615359735#0" from="3649758010" to="cluster_5819001430_5819001435" priority="4" type="highway.unclassified" numLanes="1" speed="5.55" shape="425.52,1637.51 426.79,1622.01" disallow="tram rail_urban rail rail_electric ship"/>
    <edge id="-615359735#1" from="5819001436" to="3649758010" priority="4" type="highway.unclassified" numLanes="1" speed="5.55" disallow="tram rail_urban rail rail_electric ship"/>
    <edge id="-615359735#2" from="5819001453" to="5819001436" priority="4" type="highway.unclassified" numLanes="1" speed="5.55" shape="422.15,1672.31 421.77,1678.19 421.80,1679.39 421.74,1680.78 421.90,1682.77 421.94,1684.46 423.30,1686.22 425.61,1686.75 428.52,1687.27 431.13,1687.40 434.22,1686.81 436.77,1685.25 440.67,1663.61 440.13,1658.54 439.19,1656.77 436.88,1656.53 423.24,1655.52" disallow="tram rail_urban rail rail_electric ship"/>
    <edge id="-615359735#3" from="5819001436" to="5819001453" priority="4" type="highway.unclassified" numLanes="1" speed="5.55" disallow="tram rail_urban rail rail_electric ship"/>
    <edge id="-615359735#4" from="5819001452" to="5819001436" priority="4" type="highway.unclassified" numLanes="1" speed="5.55" disallow="tram rail_urban rail rail_electric ship"/>
    <edge id="-615359735#5" from="3649758013" to="5819001452" priority="4" type="highway.unclassified" numLanes="1" speed="5.55" disallow="tram rail_urban rail rail_electric ship"/>
    <edge id="-615359737#0" from="5819001454" to="5819001453" priority="4" type="highway.unclassified" numLanes="1" speed="5.55" disallow="tram rail_urban rail rail_electric ship"/>
    <edge id="-615359737#1" from="5819001452" to="5819001454" priority="4" type="highway.unclassified" numLanes="1" speed="5.55" disallow="tram rail_urban rail rail_electric ship"/>
    <edge id="-615359738" from="5819001455" to="5819001454" priority="4" type="highway.unclassified" numLanes="1" speed="5.55" disallow="tram rail_urban rail rail_electric ship"/>
    <edge id="-615359739#0" from="cluster_5819001456_5819001459" to="3645200026" priority="4" type="highway.unclassified" numLanes="1" speed="5.55" shape="401.24,1718.17 404.76,1698.18" disallow="tram rail_urban rail rail_electric ship"/>
    <edge id="-615359739#1" from="5819001457" to="cluster_5819001456_5819001459" priority="4" type="highway.unclassified" numLanes="1" speed="5.55" shape="379.05,1713.01 401.24,1718.17" disallow="tram rail_urban rail rail_electric ship"/>
    <edge id="-615359741#1" from="5819001458" to="cluster_5819001456_5819001459" priority="4" type="highway.unclassified" numLanes="1" speed="5.55" shape="430.32,1728.94 415.76,1723.55" disallow="tram rail_urban rail rail_electric ship"/>
    <edge id="-615359742#0" from="5819001460" to="cluster_5819001456_5819001459" priority="4" type="highway.unclassified" numLanes="1" speed="5.55" shape="406.77,1755.51 415.76,1723.55" disallow="tram rail_urban rail rail_electric ship"/>
    <edge id="-615359742#1" from="5819001461" to="5819001460" priority="4" type="highway.unclassified" numLanes="1" speed="5.55" disallow="tram rail_urban rail rail_electric ship"/>
    <edge id="-615359744" from="5819001462" to="5819001460" priority="4" type="highway.unclassified" numLanes="1" speed="5.55" disallow="tram rail_urban rail rail_electric ship"/>
    <edge id="-615359745#0" from="5819001465" to="3649760625" priority="4" type="highway.unclassified" numLanes="1" speed="5.55" shape="505.98,1610.24 500.61,1657.11 482.39,1654.53 483.74,1644.66" disallow="tram rail_urban rail rail_electric ship"/>
    <edge id="-615359745#1" from="3649760625" to="5819001465" priority="4" type="highway.unclassified" numLanes="1" speed="5.55" shape="483.74,1644.66 488.22,1607.87 505.98,1610.24" disallow="tram rail_urban rail rail_electric ship"/>
    <edge id="-615359747#0" from="5819001471" to="3645231518" priority="4" type="highway.unclassified" numLanes="1" speed="5.55" shape="537.67,1672.63 534.93,1674.61 531.32,1682.35 524.36,1707.97 517.94,1718.21 508.29,1727.44" disallow="tram rail_urban rail rail_electric ship"/>
    <edge id="-615359747#1" from="3649770499" to="5819001471" priority="4" type="highway.unclassified" numLanes="1" speed="5.55" shape="558.74,1694.30 557.23,1687.01 554.80,1680.92 552.88,1677.85 545.44,1673.37 541.05,1672.10 537.67,1672.63" disallow="tram rail_urban rail rail_electric ship"/>
    <edge id="-615359749#0" from="5819001481" to="5819001471" priority="4" type="highway.unclassified" numLanes="1" speed="5.55" disallow="tram rail_urban rail rail_electric ship"/>
    <edge id="-615359749#1" from="5819001479" to="5819001481" priority="4" type="highway.unclassified" numLanes="1" speed="5.55" shape="525.76,1638.03 528.70,1643.87 535.52,1661.17 536.15,1664.53" disallow="tram rail_urban rail rail_electric ship"/>
    <edge id="-615359749#2" from="5819001481" to="5819001479" priority="4" type="highway.unclassified" numLanes="1" speed="5.55" shape="536.15,1664.53 522.98,1661.25 525.76,1638.03" disallow="tram rail_urban rail rail_electric ship"/>
    <edge id="-615359751#0" from="5819001490" to="cluster_201220801_201589322_3645231524_3645231555_5819001482" priority="4" type="highway.unclassified" numLanes="1" speed="5.55" shape="460.65,1741.98 450.83,1766.98 453.03,1767.78 457.25,1769.23 460.63,1771.56 462.95,1773.84 464.00,1777.11 464.06,1782.46" disallow="tram rail_urban rail rail_electric ship"/>
    <edge id="-615359751#1" from="5819001489" to="5819001490" priority="4" type="highway.unclassified" numLanes="1" speed="5.55" disallow="tram rail_urban rail rail_electric ship"/>
    <edge id="-615359752#0" from="5819001491" to="5819001490" priority="4" type="highway.unclassified" numLanes="1" speed="5.55" disallow="tram rail_urban rail rail_electric ship"/>
    <edge id="-615359752#1" from="5819001492" to="5819001491" priority="4" type="highway.unclassified" numLanes="1" speed="5.55" disallow="tram rail_urban rail rail_electric ship"/>
    <edge id="-615359754" from="5819001493" to="5819001491" priority="4" type="highway.unclassified" numLanes="1" speed="5.55" disallow="tram rail_urban rail rail_electric ship"/>
    <edge id="-615359755" from="5819001497" to="5819001494" priority="4" type="highway.unclassified" numLanes="1" speed="5.55" shape="573.42,1861.34 569.20,1853.49 569.85,1844.50 569.75,1787.51" disallow="tram rail_urban rail rail_electric ship"/>
    <edge id="-615359761" from="5819001672" to="5819001424" priority="4" type="highway.unclassified" numLanes="1" speed="5.55" disallow="tram rail_urban rail rail_electric ship"/>
    <edge id="-635791722#0" from="201229452" to="cluster_201221409_3645240254_5996484329" priority="11" type="highway.secondary" numLanes="2" speed="8.88" shape="321.99,1372.05 330.89,1372.97 393.05,1381.95" disallow="tram rail_urban rail rail_electric ship"/>
    <edge id="-635791722#1" from="201364925" to="201229452" priority="11" type="highway.secondary" numLanes="2" speed="8.88" disallow="tram rail_urban rail rail_electric ship"/>
    <edge id="-94669148#0" from="cluster_201484298_3646958907" to="201484338" priority="11" type="highway.secondary" numLanes="2" speed="8.88" shape="187.06,1618.94 200.21,1714.35 201.85,1723.23 204.48,1732.95 207.73,1741.41 211.66,1749.53 216.66,1757.63 258.84,1815.12 263.71,1820.58 268.57,1825.58" disallow="tram rail_urban rail rail_electric ship"/>
    <edge id="-94669168#0" from="3649579543" to="201314878" priority="11" type="highway.secondary" numLanes="2" speed="8.88" disallow="tram rail_urban rail rail_electric ship"/>
    <edge id="-94669168#1" from="201725091" to="3649579543" priority="11" type="highway.secondary" numLanes="2" speed="8.88" disallow="tram rail_urban rail rail_electric ship"/>
    <edge id="-94669168#2" from="201374185" to="201725091" priority="11" type="highway.secondary" numLanes="2" speed="8.88" shape="677.79,1573.09 621.64,1563.15 614.40,1562.28" disallow="tram rail_urban rail rail_electric ship"/>
    <edge id="121787445" from="2846367222" to="201374158" priority="12" type="highway.primary" numLanes="2" speed="10.00" shape="600.98,1785.47 620.54,1790.01 626.15,1791.72 632.30,1794.16 639.35,1798.16" spreadType="center" disallow="tram rail_urban rail rail_electric ship"/>
    <edge id="132174699" from="cluster_201484298_3646958907" to="3646961143" priority="10" type="highway.tertiary" numLanes="1" speed="7.77" shape="186.15,1611.29 184.59,1600.10 182.97,1588.62 180.70,1576.40 163.66,1489.46 162.04,1479.84 160.69,1469.74 159.74,1460.30 159.45,1451.11" disallow="tram rail_urban rail rail_electric ship"/>
    <edge id="169055291" from="1802287943" to="3646957805" priority="10" type="highway.tertiary" numLanes="1" speed="7.77" shape="160.27,1400.07 160.17,1392.40 159.05,1385.71 158.44,1377.62 158.68,1368.25 160.58,1346.36 162.13,1335.80 167.43,1307.28 169.10,1298.99 170.70,1292.76 172.50,1282.81" spreadType="center" disallow="tram rail_urban rail rail_electric ship"/>
    <edge id="19354215" from="201158137" to="201158128" priority="7" type="highway.primary_link" numLanes="2" speed="10.00" shape="551.76,1762.39 554.00,1766.26 555.25,1770.32 555.17,1773.90 554.01,1777.53 551.91,1780.53 549.28,1782.64 546.25,1784.24 542.45,1785.79" spreadType="center" disallow="tram rail_urban rail rail_electric ship"/>
    <edge id="19354946" from="201169348" to="3649519965" priority="7" type="highway.primary_link" numLanes="2" speed="10.00" disallow="tram rail_urban rail rail_electric ship"/>
    <edge id="19355567" from="201178374" to="201178387" priority="7" type="highway.primary_link" numLanes="2" speed="10.00" shape="348.18,1770.69 343.49,1768.06 338.89,1766.01 335.76,1764.21 333.07,1762.49 330.51,1761.10 328.70,1759.08 326.94,1755.72 325.85,1751.99 326.14,1746.88 326.46,1739.99" spreadType="center" disallow="tram rail_urban rail rail_electric ship"/>
    <edge id="19358290#0" from="cluster_201221330_201588819" to="3649758008" priority="11" type="highway.secondary" numLanes="2" speed="8.88" shape="423.28,1701.54 429.66,1701.09 433.91,1700.44 437.73,1699.54 441.66,1697.78 444.80,1695.76 447.14,1692.94 448.78,1689.01 449.79,1684.93 455.70,1641.22" spreadType="center" disallow="tram rail_urban rail rail_electric ship"/>
    <edge id="19358290#1" from="3649758008" to="201221373" priority="11" type="highway.secondary" numLanes="2" speed="8.88" shape="455.70,1641.22 463.22,1585.56 463.54,1580.82 463.07,1576.09 461.63,1572.32 459.34,1569.51 456.18,1566.75 426.66,1546.51 423.42,1544.09 420.79,1540.97 419.23,1537.14" spreadType="center" disallow="tram rail_urban rail rail_electric ship"/>
    <edge id="19358290#2" from="201221373" to="cluster_201221409_3645240254_5996484329" priority="11" type="highway.secondary" numLanes="2" speed="8.88" shape="419.23,1537.14 418.56,1532.87 418.81,1527.83 435.92,1388.14" spreadType="center" disallow="tram rail_urban rail rail_electric ship"/>
    <edge id="19358290#4" from="cluster_201221409_3645240254_5996484329" to="201221451" priority="11" type="highway.secondary" numLanes="2" speed="8.88" shape="440.53,1350.37 444.19,1322.47 445.75,1315.04 448.24,1306.73 451.46,1299.01 455.44,1290.71 460.90,1281.84 469.45,1270.58 479.33,1261.41 489.89,1252.68 497.95,1246.90 506.59,1238.21 514.54,1228.21 536.00,1199.78" spreadType="center" disallow="tram rail_urban rail rail_electric ship"/>
    <edge id="19364590#0" from="201314878" to="201314886" priority="3" type="highway.residential" numLanes="1" speed="5.55" shape="596.56,1561.48 599.67,1549.13 601.31,1543.11 616.09,1504.01" spreadType="center" disallow="tram rail_urban rail rail_electric ship"/>
    <edge id="19364590#1" from="201314886" to="201314888" priority="3" type="highway.residential" numLanes="1" speed="5.55" spreadType="center" disallow="tram rail_urban rail rail_electric ship"/>
    <edge id="19364590#2" from="201314888" to="201235308" priority="3" type="highway.residential" numLanes="1" speed="5.55" spreadType="center" disallow="tram rail_urban rail rail_electric ship"/>
    <edge id="19368141#0" from="201364781" to="cluster_201364772_201364906" priority="12" type="highway.primary" numLanes="2" speed="10.00" shape="587.59,1415.74 547.92,1410.98 538.60,1410.07" spreadType="center" disallow="tram rail_urban rail rail_electric ship"/>
    <edge id="19368141#1" from="cluster_201364772_201364906" to="cluster_201364769_201364910" priority="12" type="highway.primary" numLanes="2" speed="10.00" shape="538.60,1410.07 528.42,1408.81 498.62,1403.84" spreadType="center" disallow="tram rail_urban rail rail_electric ship"/>
    <edge id="19377705" from="201266889" to="cluster_201484298_3646958907" priority="11" type="highway.secondary" numLanes="2" speed="8.88" shape="126.73,1617.99 186.15,1611.29" spreadType="center" disallow="tram rail_urban rail rail_electric ship"/>
    <edge id="19385774#0" from="201314886" to="201583483" priority="3" type="highway.residential" numLanes="1" speed="5.55" spreadType="center" disallow="tram rail_urban rail rail_electric ship"/>
    <edge id="19385774#1" from="201583483" to="201583479" priority="3" type="highway.residential" numLanes="1" speed="5.55" spreadType="center" disallow="tram rail_urban rail rail_electric ship"/>
    <edge id="19386227#0" from="201588809" to="cluster_201220801_201589322_3645231524_3645231555_5819001482" priority="7" type="highway.primary_link" numLanes="2" speed="10.00" shape="430.40,1765.11 430.18,1770.08 430.36,1773.96 431.03,1777.53 431.84,1780.99 433.13,1784.43" spreadType="center" disallow="tram rail_urban rail rail_electric ship"/>
    <edge id="19390809" from="201583483" to="201648374" priority="3" type="highway.residential" numLanes="1" speed="5.55" disallow="tram rail_urban rail rail_electric ship"/>
    <edge id="19396804#0" from="201166130" to="201166128" priority="11" type="highway.secondary" numLanes="2" speed="8.88" shape="493.60,1490.25 494.13,1494.86 495.02,1499.97 496.08,1504.24 497.85,1507.85 500.57,1511.49 504.23,1514.94 508.95,1518.37 516.81,1523.60" spreadType="center" disallow="tram rail_urban rail rail_electric ship"/>
    <edge id="19396804#1" from="201166128" to="201314878" priority="11" type="highway.secondary" numLanes="2" speed="8.88" shape="516.81,1523.60 556.11,1550.94 559.82,1553.33 563.49,1555.41 568.00,1557.40 572.62,1559.16 577.38,1560.39 581.81,1561.12 586.56,1561.46 596.56,1561.48" spreadType="center" disallow="tram rail_urban rail rail_electric ship"/>
    <edge id="19397167" from="201579267" to="201389065" priority="12" type="highway.primary" numLanes="2" speed="10.00" shape="222.72,1863.87 224.97,1869.26 227.23,1875.39 244.88,1932.78 246.21,1938.74 247.64,1946.03" spreadType="center" disallow="tram rail_urban rail rail_electric ship"/>
    <edge id="19397237#0" from="2846367224" to="3649732278" priority="11" type="highway.secondary" numLanes="2" speed="8.88" spreadType="center" disallow="tram rail_urban rail rail_electric ship"/>
    <edge id="19397237#1" from="3649732278" to="5819001494" priority="11" type="highway.secondary" numLanes="2" speed="8.88" shape="602.84,1794.26 581.29,1789.39 574.38,1788.15 569.75,1787.51" spreadType="center" disallow="tram rail_urban rail rail_electric ship"/>
    <edge id="19397237#2" from="5819001494" to="201158128" priority="11" type="highway.secondary" numLanes="2" speed="8.88" shape="569.75,1787.51 567.58,1787.21 559.28,1786.56 542.45,1785.79" spreadType="center" disallow="tram rail_urban rail rail_electric ship"/>
    <edge id="19397237#3" from="201158128" to="cluster_201220801_201589322_3645231524_3645231555_5819001482" priority="11" type="highway.secondary" numLanes="2" speed="8.88" shape="542.45,1785.79 464.06,1782.46" spreadType="center" disallow="tram rail_urban rail rail_electric ship"/>
    <edge id="280535301" from="201374158" to="2846367224" priority="11" type="highway.secondary" numLanes="1" speed="8.88" shape="639.35,1798.16 631.94,1798.88 625.16,1798.62 618.48,1797.63 603.74,1794.47" spreadType="center" disallow="tram rail_urban rail rail_electric ship"/>
    <edge id="359891757" from="201484338" to="201579267" priority="12" type="highway.primary" numLanes="2" speed="10.00" shape="268.57,1825.58 261.81,1832.99 241.45,1852.36 236.32,1856.67 231.78,1859.55 227.06,1861.99 222.72,1863.87" disallow="tram rail_urban rail rail_electric ship"/>
    <edge id="359893830" from="201588809" to="201220797" priority="11" type="highway.secondary" numLanes="2" speed="8.88" shape="430.40,1765.11 428.20,1769.13 425.46,1772.61 422.54,1774.95 418.84,1776.52 414.99,1777.31 410.68,1777.62 406.48,1777.31 378.80,1773.68" spreadType="center" disallow="tram rail_urban rail rail_electric ship"/>
    <edge id="359894536" from="cluster_201221409_3645240254_5996484329" to="cluster_201364769_201364910" priority="11" type="highway.secondary" numLanes="2" speed="8.88" shape="435.92,1388.14 446.25,1386.08 499.57,1395.08" spreadType="center" disallow="tram rail_urban rail rail_electric ship"/>
    <edge id="360094882" from="3646957805" to="1802287943" priority="10" type="highway.tertiary" numLanes="1" speed="7.77" shape="175.58,1283.04 175.39,1290.50 175.94,1296.83 176.01,1305.06 175.52,1312.75 169.02,1368.94 167.72,1380.13 166.22,1386.85 164.38,1392.56 163.34,1400.25" spreadType="center" disallow="tram rail_urban rail rail_electric ship"/>
    <edge id="360095183" from="cluster_201484298_3646958907" to="3646958910" priority="11" type="highway.secondary" numLanes="2" speed="8.88" shape="187.06,1618.94 127.39,1625.71" spreadType="center" disallow="tram rail_urban rail rail_electric ship"/>
    <edge id="360431542" from="3649770499" to="201158163" priority="4" type="highway.unclassified" numLanes="1" speed="5.55" shape="558.74,1694.30 552.65,1717.00 550.47,1724.07 543.56,1743.23 541.88,1746.49 539.91,1749.02 538.00,1751.16" disallow="tram rail_urban rail rail_electric ship"/>
    <edge id="360587414" from="201575609" to="201579267" priority="10" type="highway.tertiary" numLanes="1" speed="7.77" shape="88.74,1947.29 108.89,1930.31 143.10,1901.46 148.14,1897.60 154.27,1893.43 165.94,1886.31 170.88,1883.78 176.20,1881.38 182.79,1878.70 222.72,1863.87" spreadType="center" disallow="tram rail_urban rail rail_electric ship"/>
    <edge id="47795739" from="201649895" to="3645211939" priority="12" type="highway.primary" numLanes="2" speed="10.00" disallow="tram rail_urban rail rail_electric ship"/>
    <edge id="47795742" from="201579305" to="201579267" priority="11" type="highway.secondary" numLanes="1" speed="8.88" shape="0.00,1651.84 39.44,1647.81 46.39,1647.25 52.96,1647.07 58.56,1647.48 64.39,1648.20 70.17,1649.82 75.59,1652.18 79.90,1655.12 84.70,1659.12 90.32,1664.77 94.96,1669.99 99.89,1676.25 106.26,1684.41 114.67,1696.82 138.98,1733.76 216.97,1853.10 220.13,1858.87 222.72,1863.87" disallow="tram rail_urban rail rail_electric ship"/>
    <edge id="47795933#0" from="201364790" to="201314888" priority="12" type="highway.primary" numLanes="2" speed="10.00" disallow="tram rail_urban rail rail_electric ship"/>
    <edge id="47795933#1" from="201314888" to="201364781" priority="12" type="highway.primary" numLanes="2" speed="10.00" disallow="tram rail_urban rail rail_electric ship"/>