<?xml version="1.0" encoding="UTF-8"?>

<!-- generated on 11.03.2019 14:32:43 by Eclipse SUMO netedit Version v1_1_0+1177-ae4e665b46
-->

<additional xmlns:xsi="http://www.w3.org/2001/XMLSchema-instance" xsi:noNamespaceSchemaLocation="http://sumo.dlr.de/xsd/additional_file.xsd">
    <vaporizer id="1" begin="5.00" end="15.00"/>
    <vaporizer id="2" begin="5.00" end="15.00"/>
</additional>
