<?xml version="1.0" encoding="UTF-8"?>

<!-- generated on 2021-12-06 13:41:44 by Eclipse SUMO netconvert Version v1_11_0+0325-5284e00
This data file and the accompanying materials
are made available under the terms of the Eclipse Public License v2.0
which accompanies this distribution, and is available at
http://www.eclipse.org/legal/epl-v20.html
SPDX-License-Identifier: EPL-2.0
<configuration xmlns:xsi="http://www.w3.org/2001/XMLSchema-instance" xsi:noNamespaceSchemaLocation="http://sumo.dlr.de/xsd/netconvertConfiguration.xsd">

    <input>
        <node-files value="input_plain.nod.xml"/>
        <edge-files value="input_plain.edg.xml"/>
    </input>

    <output>
        <write-license value="true"/>
        <output-file value="net.net.xml"/>
        <plain-output-prefix value="plain"/>
    </output>

    <junctions>
        <no-turnarounds value="true"/>
    </junctions>

    <pedestrian>
        <crossings.guess value="true"/>
    </pedestrian>

    <report>
        <xml-validation value="never"/>
        <aggregate-warnings value="5"/>
    </report>

</configuration>
-->

<net version="1.9" junctionCornerDetail="5" walkingareas="true" limitTurnSpeed="5.50" xmlns:xsi="http://www.w3.org/2001/XMLSchema-instance" xsi:noNamespaceSchemaLocation="http://sumo.dlr.de/xsd/net_file.xsd">

    <location netOffset="100.00,100.00" convBoundary="0.00,0.00,200.00,200.00" origBoundary="-10000000000.00,-10000000000.00,10000000000.00,10000000000.00" projParameter="!"/>

    <edge id=":C_0" function="internal">
        <lane id=":C_0_0" index="0" allow="passenger" speed="7.48" length="8.11" shape="104.80,87.60 105.28,90.93 106.70,93.30 108.40,94.32"/>
    </edge>
    <edge id=":C_1" function="internal">
        <lane id=":C_1_0" index="0" allow="passenger" speed="13.89" length="13.90" shape="104.80,87.60 104.80,101.50"/>
        <lane id=":C_1_1" index="1" allow="passenger" speed="13.89" length="13.90" shape="101.60,87.60 101.60,101.50"/>
    </edge>
    <edge id=":C_6" function="internal">
        <lane id=":C_6_0" index="0" allow="passenger" speed="7.48" length="4.15" shape="108.40,94.32 109.07,94.73 112.40,95.20"/>
    </edge>
    <edge id=":C_3" function="internal">
        <lane id=":C_3_0" index="0" allow="passenger" speed="13.89" length="13.90" shape="98.50,95.20 112.40,95.20"/>
        <lane id=":C_3_1" index="1" allow="passenger" speed="13.89" length="13.90" shape="98.50,98.40 112.40,98.40"/>
    </edge>
    <edge id=":C_5" function="internal">
        <lane id=":C_5_0" index="0" allow="passenger" speed="5.04" length="5.00" shape="98.50,98.40 99.86,98.59 100.82,99.18 101.41,100.14 101.60,101.50"/>
    </edge>
    <edge id=":C_c0" function="crossing" crossingEdges="CE">
        <lane id=":C_c0_0" index="0" allow="pedestrian" speed="1.00" length="6.40" width="4.00" shape="110.40,93.60 110.40,100.00"/>
    </edge>
    <edge id=":C_c1" function="crossing" crossingEdges="SC">
        <lane id=":C_c1_0" index="0" allow="pedestrian" speed="1.00" length="6.40" width="4.00" shape="100.00,89.60 106.40,89.60"/>
    </edge>
    <edge id=":C_w0" function="walkingarea">
        <lane id=":C_w0_0" index="0" allow="pedestrian" speed="1.00" length="1.80" width="4.00" shape="107.90,101.50 110.90,101.50 112.40,100.00 111.03,100.04 109.90,100.17 109.03,100.38 108.40,100.67 108.03,101.04"/>
    </edge>
    <edge id=":C_w1" function="walkingarea">
        <lane id=":C_w1_0" index="0" allow="pedestrian" speed="1.00" length="4.88" width="4.00" shape="112.40,93.60 112.40,92.10 112.40,89.10 110.90,87.60 107.90,87.60 106.40,87.60 106.57,89.43 107.07,90.93 107.90,92.10 109.07,92.93 110.57,93.43"/>
    </edge>
    <edge id=":C_w2" function="walkingarea">
        <lane id=":C_w2_0" index="0" allow="pedestrian" speed="1.00" length="1.80" width="4.00" shape="100.00,87.60 98.50,89.10 98.50,92.10 98.96,91.98 99.33,91.60 99.62,90.97 99.83,90.10 99.96,88.98"/>
    </edge>

    <edge id="CE" from="C" to="E" priority="2">
        <lane id="CE_0" index="0" allow="pedestrian" speed="13.89" length="87.60" width="3.00" shape="112.40,90.60 200.00,90.60"/>
        <lane id="CE_1" index="1" disallow="all" speed="13.89" length="87.60" width="1.50" shape="112.40,92.85 200.00,92.85"/>
        <lane id="CE_2" index="2" allow="passenger" speed="13.89" length="87.60" shape="112.40,95.20 200.00,95.20"/>
        <lane id="CE_3" index="3" allow="passenger" speed="13.89" length="87.60" shape="112.40,98.40 200.00,98.40"/>
    </edge>
    <edge id="CN" from="C" to="N" priority="2">
        <lane id="CN_0" index="0" allow="pedestrian" speed="13.89" length="98.50" width="3.00" shape="109.40,101.50 109.40,200.00"/>
        <lane id="CN_1" index="1" disallow="all" speed="13.89" length="98.50" width="1.50" shape="107.15,101.50 107.15,200.00"/>
        <lane id="CN_2" index="2" allow="passenger" speed="13.89" length="98.50" shape="104.80,101.50 104.80,200.00"/>
        <lane id="CN_3" index="3" allow="passenger" speed="13.89" length="98.50" shape="101.60,101.50 101.60,200.00"/>
    </edge>
    <edge id="SC" from="S" to="C" priority="2">
        <lane id="SC_0" index="0" allow="pedestrian" speed="13.89" length="87.60" width="3.00" shape="109.40,0.00 109.40,87.60"/>
        <lane id="SC_1" index="1" disallow="all" speed="13.89" length="87.60" width="1.50" shape="107.15,0.00 107.15,87.60"/>
        <lane id="SC_2" index="2" allow="passenger" speed="13.89" length="87.60" shape="104.80,0.00 104.80,87.60"/>
        <lane id="SC_3" index="3" allow="passenger" speed="13.89" length="87.60" shape="101.60,0.00 101.60,87.60"/>
    </edge>
    <edge id="WC" from="W" to="C" priority="2">
        <lane id="WC_0" index="0" allow="pedestrian" speed="13.89" length="98.50" width="3.00" shape="0.00,90.60 98.50,90.60"/>
        <lane id="WC_1" index="1" disallow="all" speed="13.89" length="98.50" width="1.50" shape="0.00,92.85 98.50,92.85"/>
        <lane id="WC_2" index="2" allow="passenger" speed="13.89" length="98.50" shape="0.00,95.20 98.50,95.20"/>
        <lane id="WC_3" index="3" allow="passenger" speed="13.89" length="98.50" shape="0.00,98.40 98.50,98.40"/>
    </edge>

    <tlLogic id="C" type="static" programID="0" offset="0">
        <phase duration="37" state="gGGrrrGr"/>
        <phase duration="5"  state="gGGrrrrr"/>
        <phase duration="3"  state="yyyrrrrr"/>
        <phase duration="37" state="rrrGGGrG"/>
        <phase duration="5"  state="rrrGGGrr"/>
        <phase duration="3"  state="rrryyyrr"/>
    </tlLogic>

    <junction id="C" type="traffic_light" x="100.00" y="100.00" incLanes="SC_0 SC_1 SC_2 SC_3 WC_0 WC_1 WC_2 WC_3 :C_w1_0 :C_w2_0" intLanes=":C_6_0 :C_1_0 :C_1_1 :C_3_0 :C_3_1 :C_5_0 :C_c0_0 :C_c1_0" shape="100.00,101.50 110.90,101.50 111.07,100.67 111.28,100.38 111.57,100.17 111.94,100.04 112.40,100.00 112.40,89.10 111.57,88.93 111.28,88.72 111.07,88.43 110.94,88.06 110.90,87.60 100.00,87.60 99.83,88.43 99.62,88.72 99.33,88.93 98.96,89.06 98.50,89.10 98.50,100.00 99.33,100.17 99.62,100.38 99.83,100.67 99.96,101.04">
        <request index="0" response="11000000" foes="11011000" cont="1"/>
        <request index="1" response="10000000" foes="10111000" cont="0"/>
        <request index="2" response="10000000" foes="10111000" cont="0"/>
        <request index="3" response="01000111" foes="01000111" cont="0"/>
        <request index="4" response="01000111" foes="01000111" cont="0"/>
        <request index="5" response="00000110" foes="00000110" cont="0"/>
        <request index="6" response="00000000" foes="00011001" cont="0"/>
        <request index="7" response="00000000" foes="00000111" cont="0"/>
    </junction>
    <junction id="E" type="dead_end" x="200.00" y="100.00" incLanes="CE_0 CE_1 CE_2 CE_3" intLanes="" shape="200.00,89.10 200.00,100.00"/>
    <junction id="N" type="dead_end" x="100.00" y="200.00" incLanes="CN_0 CN_1 CN_2 CN_3" intLanes="" shape="110.90,200.00 100.00,200.00"/>
    <junction id="S" type="dead_end" x="100.00" y="0.00" incLanes="" intLanes="" shape="100.00,0.00 110.90,0.00"/>
    <junction id="W" type="dead_end" x="0.00" y="100.00" incLanes="" intLanes="" shape="0.00,100.00 0.00,89.10"/>

    <junction id=":C_6_0" type="internal" x="108.40" y="94.32" incLanes=":C_0_0" intLanes=":C_3_0 :C_3_1 :C_c0_0 :C_c1_0"/>

    <connection from="SC" to="CE" fromLane="2" toLane="2" via=":C_0_0" tl="C" linkIndex="0" dir="r" state="o"/>
    <connection from="SC" to="CN" fromLane="2" toLane="2" via=":C_1_0" tl="C" linkIndex="1" dir="s" state="o"/>
    <connection from="SC" to="CN" fromLane="3" toLane="3" via=":C_1_1" tl="C" linkIndex="2" dir="s" state="o"/>
    <connection from="WC" to="CE" fromLane="2" toLane="2" via=":C_3_0" tl="C" linkIndex="3" dir="s" state="o"/>
    <connection from="WC" to="CE" fromLane="3" toLane="3" via=":C_3_1" tl="C" linkIndex="4" dir="s" state="o"/>
    <connection from="WC" to="CN" fromLane="3" toLane="3" via=":C_5_0" tl="C" linkIndex="5" dir="l" state="o"/>

    <connection from=":C_0" to="CE" fromLane="0" toLane="2" via=":C_6_0" dir="r" state="m"/>
    <connection from=":C_6" to="CE" fromLane="0" toLane="2" dir="r" state="m"/>
    <connection from=":C_1" to="CN" fromLane="0" toLane="2" dir="s" state="M"/>
    <connection from=":C_1" to="CN" fromLane="1" toLane="3" dir="s" state="M"/>
    <connection from=":C_3" to="CE" fromLane="0" toLane="2" dir="s" state="M"/>
    <connection from=":C_3" to="CE" fromLane="1" toLane="3" dir="s" state="M"/>
    <connection from=":C_5" to="CN" fromLane="0" toLane="3" dir="l" state="M"/>

    <connection from=":C_c0" to=":C_w0" fromLane="0" toLane="0" dir="s" state="M"/>
    <connection from=":C_c1" to=":C_w1" fromLane="0" toLane="0" dir="s" state="M"/>
    <connection from=":C_w0" to="CN" fromLane="0" toLane="0" dir="s" state="M"/>
    <connection from=":C_w1" to=":C_c0" fromLane="0" toLane="0" tl="C" linkIndex="6" dir="s" state="M"/>
    <connection from=":C_w1" to="CE" fromLane="0" toLane="0" dir="s" state="M"/>
    <connection from="SC" to=":C_w1" fromLane="0" toLane="0" dir="s" state="M"/>
    <connection from=":C_w2" to=":C_c1" fromLane="0" toLane="0" tl="C" linkIndex="7" dir="s" state="M"/>
    <connection from="WC" to=":C_w2" fromLane="0" toLane="0" dir="s" state="M"/>
</net>
