<nodes>
    <node id="node_C" type="traffic_light_right_on_red"/>
</nodes>
