<additional xmlns:xsi="http://www.w3.org/2001/XMLSchema-instance" xsi:noNamespaceSchemaLocation="https://sumo.dlr.de/xsd/additional_file.xsd">

   <e1Detector id="filter" lane="3/1to2/1_0" vTypes="dist1" pos="200" file="detector.xml" freq="3600"/>
   <e1Detector id="noFilter" lane="3/1to2/1_0" pos="200" file="detector.xml" freq="3600"/>

</additional>
