<?xml version="1.0" encoding="UTF-8"?>

<!-- generated on Wed Apr 20 15:44:38 2016 by SUMO netconvert Version dev-SVN-r20491
<?xml version="1.0" encoding="UTF-8"?>

<configuration xmlns:xsi="http://www.w3.org/2001/XMLSchema-instance" xsi:noNamespaceSchemaLocation="http://sumo.dlr.de/xsd/netconvertConfiguration.xsd">

    <input>
        <node-files value="input_plain.nod.xml"/>
        <edge-files value="input_plain.edg.xml"/>
    </input>

    <output>
        <plain-output-prefix value="plain"/>
    </output>

    <processing>
        <no-turnarounds value="true"/>
        <crossings.guess value="true"/>
    </processing>

    <report>
        <xml-validation value="never"/>
    </report>

</configuration>
-->

<nodes version="0.27" xmlns:xsi="http://www.w3.org/2001/XMLSchema-instance" xsi:noNamespaceSchemaLocation="http://sumo.dlr.de/xsd/nodes_file.xsd">
    <location netOffset="-390451.17,-5820063.05" convBoundary="0.00,0.00,193.44,34.87" origBoundary="13.354338,52.488705,13.527397,52.569279" projParameter="+proj=utm +zone=33 +ellps=WGS84 +datum=WGS84 +units=m +no_defs"/>

    <node id="1387903273" x="138.09" y="11.07" type="priority"/>
    <node id="1864428537" x="193.44" y="13.99" type="unregulated"/>
    <node id="2071378250" x="69.67" y="33.94" type="unregulated"/>
    <node id="2454091577" x="0.00" y="1.00" type="unregulated"/>
</nodes>
