<?xml version="1.0" encoding="UTF-8"?>

<!-- generated on Wed Apr 20 15:44:38 2016 by SUMO netconvert Version dev-SVN-r20491
<?xml version="1.0" encoding="UTF-8"?>

<configuration xmlns:xsi="http://www.w3.org/2001/XMLSchema-instance" xsi:noNamespaceSchemaLocation="http://sumo.dlr.de/xsd/netconvertConfiguration.xsd">

    <input>
        <node-files value="input_plain.nod.xml"/>
        <edge-files value="input_plain.edg.xml"/>
    </input>

    <output>
        <plain-output-prefix value="plain"/>
    </output>

    <processing>
        <no-turnarounds value="true"/>
        <crossings.guess value="true"/>
    </processing>

    <report>
        <xml-validation value="never"/>
    </report>

</configuration>
-->

<edges version="0.27" xmlns:xsi="http://www.w3.org/2001/XMLSchema-instance" xsi:noNamespaceSchemaLocation="http://sumo.dlr.de/xsd/edges_file.xsd">
    <edge id="24243052#1" from="2454091577" to="1387903273" priority="4" numLanes="2" speed="8.33" shape="0.07,0.00 138.28,8.38" spreadType="center">
        <lane index="0" allow="pedestrian" width="2.00"/>
        <lane index="1" disallow="rail_urban rail rail_electric pedestrian"/>
    </edge>
    <edge id="24243052#2" from="1387903273" to="1864428537" priority="4" numLanes="2" speed="8.33" shape="138.16,10.08 150.45,11.01 182.32,13.32 193.41,12.99" spreadType="center">
        <lane index="0" allow="pedestrian" width="2.00"/>
        <lane index="1" disallow="rail_urban rail rail_electric pedestrian"/>
    </edge>
    <edge id="24243056#0" from="1387903273" to="2071378250" priority="4" numLanes="2" speed="8.33" shape="138.76,13.69 116.28,17.74 103.90,20.95 70.05,34.87" spreadType="center">
        <lane index="0" allow="pedestrian" width="2.00"/>
        <lane index="1" disallow="rail_urban rail rail_electric pedestrian"/>
    </edge>
</edges>
