<?xml version="1.0" encoding="UTF-8"?>

<!-- generated on 07.08.2019 11:18:23 by Eclipse SUMO netedit Version v1_2_0+1449-4e81e5b6f5
<configuration xmlns:xsi="http://www.w3.org/2001/XMLSchema-instance" xsi:noNamespaceSchemaLocation="http://sumo.dlr.de/xsd/netconvertConfiguration.xsd">

    <input>
        <sumo-net-file value="C:/Users/SUMO-Test/.texttest/tmp/netedit.gui.07Aug081821.3780/netedit.gui/additionalElements/e3detector/inspect_selection/blockmove\input_net.net.xml"/>
    </input>

    <output>
        <output-file value="C:/Users/SUMO-Test/.texttest/tmp/netedit.gui.07Aug081821.3780/netedit.gui/additionalElements/e3detector/inspect_selection/blockmove\net.net.xml"/>
    </output>

    <processing>
        <geometry.max-grade.fix value="false"/>
        <offset.disable-normalization value="true"/>
        <lefthand value="false"/>
    </processing>

    <junctions>
        <no-turnarounds value="true"/>
        <junctions.corner-detail value="5"/>
        <junctions.limit-turn-speed value="5.5"/>
        <rectangular-lane-cut value="false"/>
    </junctions>

    <pedestrian>
        <walkingareas value="false"/>
    </pedestrian>

    <netedit>
        <additional-files value="C:/Users/SUMO-Test/.texttest/tmp/netedit.gui.07Aug081821.3780/netedit.gui/additionalElements/e3detector/inspect_selection/blockmove\additionals.xml"/>
        <additionals-output value="C:/Users/SUMO-Test/.texttest/tmp/netedit.gui.07Aug081821.3780/netedit.gui/additionalElements/e3detector/inspect_selection/blockmove\additionals.xml"/>
        <route-files value="C:/Users/SUMO-Test/.texttest/tmp/netedit.gui.07Aug081821.3780/netedit.gui/additionalElements/e3detector/inspect_selection/blockmove\routes.xml"/>
        <demandelements-output value="C:/Users/SUMO-Test/.texttest/tmp/netedit.gui.07Aug081821.3780/netedit.gui/additionalElements/e3detector/inspect_selection/blockmove\routes.xml"/>
    </netedit>

    <visualisation>
        <gui-settings-file value="C:/Users/SUMO-Test/.texttest/tmp/netedit.gui.07Aug081821.3780/netedit.gui/additionalElements/e3detector/inspect_selection/blockmove\gui-settings.xml"/>
        <window-size value="700,500"/>
        <window-pos value="50,50"/>
        <gui-testing value="true"/>
        <gui-testing-debug value="true"/>
    </visualisation>

    <report>
        <no-warnings value="true"/>
        <error-log value="C:/Users/SUMO-Test/.texttest/tmp/netedit.gui.07Aug081821.3780/netedit.gui/additionalElements/e3detector/inspect_selection/blockmove\log.txt"/>
    </report>

</configuration>
-->

<additional xmlns:xsi="http://www.w3.org/2001/XMLSchema-instance" xsi:noNamespaceSchemaLocation="http://sumo.dlr.de/xsd/additional_file.xsd">
    <e3Detector id="e3Detector_A" pos="7.50,-2.00" freq="100.00" name="A" file="fileA.txt">
        <detEntry lane="gneE1_0" pos="5.00"/>
        <detExit lane="gneE1_0" pos="25.00"/>
        <param key="KeyA1" value="valueA1"/>
        <param key="KeyA2" value="valueA3"/>
        <param key="KeyA3" value="valueA2"/>
    </e3Detector>
    <e3Detector id="e3Detector_B" pos="17.50,-2.00" freq="120.00" name="B" file="fileB.txt" timeThreshold="2.00" speedThreshold="3.39">
        <detEntry lane="gneE1_0" pos="10.00"/>
        <detExit lane="gneE1_0" pos="30.00"/>
        <param key="KeyB1" value="valueB1"/>
        <param key="KeyB2" value="valueB3"/>
        <param key="KeyB3" value="valueB2"/>
    </e3Detector>
</additional>
