<additional xmlns:xsi="http://www.w3.org/2001/XMLSchema-instance" xsi:noNamespaceSchemaLocation="http://sumo.dlr.de/xsd/additional_file.xsd">

    <!-- missing lane -->
    <busStop id="busStop_01" startPos="15" endPos="20"/>

    <!-- non valid lane -->
    <busStop id="busStop_02" lane="dummyLane" startPos="15" endPos="20"/>

    <!-- valid lane -->
    <busStop id="busStop_03" lane="EdgeCenter1_1" startPos="15" endPos="20"/>

</additional>
