<routes>
    <vType id="left" latAlignment="left" sigma="0"/>
    <vType id="right" latAlignment="right" sigma="0"/>
    <vType id="rescue" latAlignment="arbitrary" sigma="0" guiShape="emergency" vClass="emergency" speedFactor="2"/>

    <route id="r0" edges="SC CN"/>
    <vehicle id="left"   type="left"   route="r0" depart="45" departLane="1" departPos="-5.5"  departPosLat="left"/>
    <vehicle id="right"  type="right"  route="r0" depart="45" departLane="0" departPos="-5.5"  departPosLat="right"/>
    <vehicle id="rescue" type="rescue" route="r0" depart="45" departLane="1" departPos="-20.5" departPosLat="center"/>

</routes>
