<?xml version="1.0" encoding="UTF-8"?>

<!-- generated on 07.08.2019 10:24:22 by Eclipse SUMO netedit Version v1_2_0+1449-4e81e5b6f5
-->

<additional xmlns:xsi="http://www.w3.org/2001/XMLSchema-instance" xsi:noNamespaceSchemaLocation="http://sumo.dlr.de/xsd/additional_file.xsd">
    <e2Detector id="E2_05" lane="gneE0_0" pos="10.00" length="10.00" freq="100.00" file="fileA.txt"/>
</additional>
