<additional xmlns:xsi="http://www.w3.org/2001/XMLSchema-instance" xsi:noNamespaceSchemaLocation="http://sumo.dlr.de/xsd/additional_file.xsd">

    <!-- non valid position (missing) -->
    <e2Detector id="E2_01" lane="gneE0_0" length="10.00" freq="100.00" file="fileA.txt" timeThreshold="1.00" speedThreshold="1.39" jamThreshold="10.00" friendlyPos="0"/>
    
    <!-- non valid position (dummy) -->
    <e2Detector id="E2_02" lane="gneE0_0" pos="dummyPosition" length="10.00" freq="100.00" file="fileA.txt" timeThreshold="1.00" speedThreshold="1.39" jamThreshold="10.00" friendlyPos="0"/>
    
    <!-- non valid position (negative) -->
    <e2Detector id="E2_03" lane="gneE0_0" pos="-5" length="10.00" freq="100.00" file="fileA.txt" timeThreshold="1.00" speedThreshold="1.39" jamThreshold="10.00" friendlyPos="0"/>
    
    <!-- non valid position (overpassing lane lenght) -->
    <e2Detector id="E2_04" lane="gneE0_0" pos="3000" length="10.00" freq="100.00" file="fileA.txt" timeThreshold="1.00" speedThreshold="1.39" jamThreshold="10.00" friendlyPos="0"/>
    
	<!-- valid position -->
    <e2Detector id="E2_05" lane="gneE0_0" pos="10" length="10.00" freq="100.00" file="fileA.txt" timeThreshold="1.00" speedThreshold="1.39" jamThreshold="10.00" friendlyPos="0"/>

</additional>
