<tazs>
    <taz id="1">
        <tazSource id="a1" weight="1">
        </tazSource>
        <tazSink id="a2" weight="1">
        </tazSink>
    </taz>
    <taz id="2">
    </taz>
</tazs>

