<?xml version="1.0"?>

<!-- generated on 09/24/09 13:19:19 by SUMO duarouter Version dev-SVN-r7781
<configuration>

    <input>
        <net-file value="input_net.net.xml"/>
        <alternatives value="input_alts.rou.alt.xml"/>
    </input>

    <output>
        <output-file value="routes.rou.xml"/>
    </output>

</configuration>
-->

<route-alternatives>
   <vtype id="0" length="5.00" maxspeed="70.00" vclass="passenger">
      <carFollowing-Krauss accel="2.60" decel="4.50" sigma="0.50" tau="1.00"/>
   </vtype>
   <vehicle id="0_0" type="0" depart="0">
      <routeDistribution last="0">
         <route cost="125.11" probability="1.00000000" edges="absBeg middle end absEnd"/>
      </routeDistribution>
   </vehicle>
</route-alternatives>
