<?xml version="1.0" encoding="UTF-8"?>

<!-- generated on Wed Oct 18 15:19:15 2017 by SUMO Version dev-SVN-r26551
<?xml version="1.0" encoding="UTF-8"?>

<configuration xmlns:xsi="http://www.w3.org/2001/XMLSchema-instance" xsi:noNamespaceSchemaLocation="http://sumo.dlr.de/xsd/sumoConfiguration.xsd">

    <input>
        <net-file value="net.net.xml"/>
        <route-files value="input_routes.rou.xml"/>
    </input>

    <output>
        <tripinfo-output value="tripinfos.xml"/>
        <lanechange-output value="lanechanges.xml"/>
    </output>

    <processing>
        <lateral-resolution value="0.4"/>
    </processing>

    <report>
        <verbose value="true"/>
        <xml-validation value="never"/>
        <duration-log.statistics value="true"/>
        <no-step-log value="true"/>
    </report>

</configuration>
-->

<lanechanges>
    <change id="A" type="t0" time="3.00" from="beg_0" to="beg_1" dir="1" speed="33.33" pos="105.09" reason="strategic|urgent" leaderGap="None" leaderSecureGap="None" followerGap="6.66" followerSecureGap="8.17" origLeaderGap="None" origLeaderSecureGap="None" latGap="None"/>
</lanechanges>
