<additional xmlns:xsi="http://www.w3.org/2001/XMLSchema-instance" xsi:noNamespaceSchemaLocation="http://sumo.dlr.de/xsd/additional_file.xsd">

   <instantInductionLoop id="end3" lane="end3_0" pos="180" file="detector.xml"/>

</additional>
