<?xml version="1.0" encoding="UTF-8"?>

<!-- generated on 2024-02-21 11:09:21 by Eclipse SUMO netconvert Version v1_19_0+0931-b4cf38940af
This data file and the accompanying materials
are made available under the terms of the Eclipse Public License v2.0
which accompanies this distribution, and is available at
http://www.eclipse.org/legal/epl-v20.html
This file may also be made available under the following Secondary
Licenses when the conditions for such availability set forth in the Eclipse
Public License 2.0 are satisfied: GNU General Public License, version 2
or later which is available at
https://www.gnu.org/licenses/old-licenses/gpl-2.0-standalone.html
SPDX-License-Identifier: EPL-2.0 OR GPL-2.0-or-later
<configuration xmlns:xsi="http://www.w3.org/2001/XMLSchema-instance" xsi:noNamespaceSchemaLocation="http://sumo.dlr.de/xsd/netconvertConfiguration.xsd">

    <input>
        <osm-files value="osm.xml"/>
    </input>

    <output>
        <write-license value="true"/>
    </output>

    <projection>
        <proj.utm value="true"/>
    </projection>

    <junctions>
        <junctions.join value="true"/>
    </junctions>

    <formats>
        <osm.sidewalks value="true"/>
    </formats>

    <report>
        <xml-validation value="never"/>
    </report>

</configuration>
-->

<net version="1.16" junctionCornerDetail="5" limitTurnSpeed="5.50" xmlns:xsi="http://www.w3.org/2001/XMLSchema-instance" xsi:noNamespaceSchemaLocation="http://sumo.dlr.de/xsd/net_file.xsd">

    <location netOffset="-516616.82,-5043246.23" convBoundary="0.00,0.00,5.71,31.24" origBoundary="9.212851,45.542554,9.212925,45.542835" projParameter="+proj=utm +zone=32 +ellps=WGS84 +datum=WGS84 +units=m +no_defs"/>

    <type id="highway.secondary" priority="11" numLanes="1" speed="27.78" disallow="tram rail_urban rail rail_electric rail_fast ship" oneway="0"/>

    <edge id=":-137728_0" function="internal">
        <lane id=":-137728_0_0" index="0" disallow="pedestrian tram rail_urban rail rail_electric rail_fast ship" speed="3.63" length="4.75" width="3.50" shape="4.01,-0.53 5.20,-1.38 6.10,-1.48 6.72,-0.81 7.05,0.62"/>
    </edge>
    <edge id=":-137732_0" function="internal">
        <lane id=":-137732_0_0" index="0" disallow="pedestrian tram rail_urban rail rail_electric rail_fast ship" speed="3.73" length="4.75" width="3.00" shape="7.27,30.44 7.10,31.90 6.56,32.63 5.65,32.63 4.38,31.92"/>
    </edge>

    <edge id="--103312" from="-137732" to="-137728" priority="11" type="highway.secondary" shape="5.71,31.24 1.13,22.27 0.00,15.77 1.71,9.82 5.41,0.00">
        <lane id="--103312_0" index="0" allow="pedestrian" speed="27.78" length="37.25" shape="-1.24,34.78 -6.35,24.77 -7.99,15.34 -5.69,7.36 -1.89,-2.75"/>
        <lane id="--103312_1" index="1" disallow="pedestrian tram rail_urban rail rail_electric rail_fast ship" speed="27.78" length="37.25" shape="1.61,33.33 -3.28,23.74 -4.71,15.51 -2.66,8.37 1.11,-1.62"/>
        <lane id="--103312_2" index="2" disallow="pedestrian tram rail_urban rail rail_electric rail_fast ship" speed="27.78" length="37.25" width="3.00" shape="4.38,31.92 -0.31,22.75 -1.54,15.68 0.29,9.35 4.01,-0.53"/>
    </edge>
    <edge id="-103312" from="-137728" to="-137732" priority="11" type="highway.secondary" shape="5.41,0.00 1.71,9.82 0.00,15.77 1.13,22.27 5.71,31.24">
        <lane id="-103312_0" index="0" allow="pedestrian" speed="27.78" length="29.21" width="1.50" shape="12.66,2.73 9.08,12.26 7.94,16.20 8.57,19.79 12.61,27.71"/>
        <lane id="-103312_1" index="1" disallow="pedestrian tram rail_urban rail rail_electric rail_fast ship" speed="27.78" length="29.21" width="3.50" shape="10.32,1.85 6.70,11.47 5.38,16.06 6.17,20.59 10.39,28.85"/>
        <lane id="-103312_2" index="2" disallow="pedestrian tram rail_urban rail rail_electric rail_fast ship" speed="27.78" length="29.21" width="3.50" shape="7.05,0.62 3.38,10.37 1.79,15.86 2.81,21.71 7.27,30.44"/>
    </edge>

    <junction id="-137728" type="priority" x="5.41" y="0.00" incLanes="--103312_0 --103312_1 --103312_2" intLanes=":-137728_0_0" shape="5.41,0.00 -3.39,-3.31 5.41,0.00">
        <request index="0" response="0" foes="0" cont="0"/>
    </junction>
    <junction id="-137732" type="priority" x="5.71" y="31.24" incLanes="-103312_0 -103312_1 -103312_2" intLanes=":-137732_0_0" shape="5.71,31.24 13.28,27.37 5.71,31.24">
        <request index="0" response="0" foes="0" cont="0"/>
    </junction>

    <connection from="--103312" to="-103312" fromLane="2" toLane="2" via=":-137728_0_0" dir="t" state="M"/>
    <connection from="-103312" to="--103312" fromLane="2" toLane="2" via=":-137732_0_0" dir="t" state="M"/>

    <connection from=":-137728_0" to="-103312" fromLane="0" toLane="2" dir="t" state="M"/>
    <connection from=":-137732_0" to="--103312" fromLane="0" toLane="2" dir="t" state="M"/>

</net>
