<?xml version="1.0" encoding="UTF-8"?>

<!-- generated on 2025-05-16 08:14:35.063028 by ptlines2flows.py v1_23_1+0056-1d7495c659c
<configuration>
    <net-file value="osm.net.xml.gz"/>
    <ptlines-file value="osm_ptlines.xml"/>
    <ptstops-file value="osm_stops.add.xml"/>
    <output-file value="osm_pt.rou.xml"/>
    <min-stops value="0"/>
    <extend-to-fringe value="True"/>
    <random-begin value="True"/>
    <seed value="42"/>
    <ignore-errors value="True"/>
    <vtype-prefix value="pt_"/>
    <verbose value="True"/>
</configuration>
-->

<routes xmlns:xsi="http://www.w3.org/2001/XMLSchema-instance" xsi:noNamespaceSchemaLocation="http://sumo.dlr.de/xsd/routes_file.xsd">
    <vType id="pt_bus" vClass="bus"/>
    <vType id="pt_tram" vClass="tram"/>
    <vType id="pt_train" vClass="rail"/>
    <vType id="pt_subway" vClass="subway"/>
    <vType id="pt_light_rail" vClass="rail_urban"/>
    <vType id="pt_monorail" vClass="rail_urban"/>
    <vType id="pt_trolleybus" vClass="bus"/>
    <vType id="pt_minibus" vClass="bus"/>
    <vType id="pt_share_taxi" vClass="taxi"/>
    <vType id="pt_aerialway" vClass="cable_car" length="2.5" width="2" personCapacity="4"/>
    <vType id="pt_ferry" vClass="ship"/>
    <route id="pt_light_rail_S1:0" color="212,116,174" edges="23085181#0 23085181#1 23085181#2 23085181#3 107824634#1 107824634#2 107824634#3 1236950979#0 1236950979#1 30712996#0 30712996#1 30712996#2 44699860#0 44699860#1 942372145 116355015#0 116355015#1 116355015#2 237947348 291342456#0 291342456#1 291342456#2 23087691#1 23087691#2 23087691#3 1252158663#0 1252158663#1 230977079#0 230977079#1 777688873#0 777688873#1 24031007#1 4603315#0 4603315#1 230957292#1 230957292#2 230957297#1 109444375#0 -201178327 -230976794#1 -201178326 109444375#2 230976793#1 463462759 465376248 394320752#0 394320752#1 459344270#0 459344270#1 465161747 1348263192 237751547#0 237751547#1 237751546#1 238192696#0 238192696#1 238192696#2 238192693#0 238192693#1 1348263190 199340313 1295392730 26477249 1295392729 1236950984#1 1236950984#2 1236950984#3 26477248 4525884#0 4525884#1 4525885 717853025#0 717853025#1 276205110#1 276205110#2 276219537#0 276219537#1 276219537#2 276219538#1 276219538#2 737984698 4463529#0 4463529#1 4439736#1 4439736#2" >
        <stop busStop="1127966995" duration="20" until="96.0"/> <!-- Bornholmer Straße -->
        <stop busStop="1127966939" duration="20" until="194.0"/> <!-- Gesundbrunnen -->
        <stop busStop="249189069" duration="20" until="282.0"/> <!-- Humboldthain -->
        <stop busStop="2393814847" duration="20" until="432.0"/> <!-- Nordbahnhof -->
        <stop busStop="30353449" duration="20" until="536.0"/> <!-- Oranienburger Straße -->
        <stop busStop="474368351" duration="20" until="632.0"/> <!-- Friedrichstraße -->
        <stop busStop="4946539237" duration="20" until="718.0"/> <!-- Brandenburger Tor -->
        <stop busStop="30353079" duration="20" until="829.0"/> <!-- Potsdamer Platz -->
        <stop busStop="2093326267" duration="20" until="940.0"/> <!-- Anhalter Bahnhof -->
        <stop busStop="2118668062" duration="20" until="1093.0"/> <!-- Yorckstraße (Großgörschenstraße) -->
        <stop busStop="300259347" duration="20" until="1171.0"/> <!-- Julius-Leber-Brücke -->
        <stop busStop="27186919" duration="20" until="1263.0"/> <!-- Schöneberg -->
        <stop busStop="26908540" duration="20" until="1354.0"/> <!-- Friedenau -->
        <stop busStop="30019971" duration="20" until="1434.0"/> <!-- Feuerbachstraße -->
        <stop busStop="26906574" duration="20" until="1527.0"/> <!-- Rathaus Steglitz -->
    </route>
    <route id="pt_light_rail_S1:1" color="212,116,174" edges="27853064#0 27853064#1 27853060#0 27853060#1 28826751 238563879#0 238563879#1 276219536#0 276219536#1 27853253#1 276205112 25982729 25982730#1 1295392716 505167442#1 1295392717 1295392727 1236950983#0 1236950983#1 43943744 -1236950984#1 43943745 1236950983#3 4525882 13860451 4756360 4756357#1 273174488 494022018#1 494022024 238192694#0 238192694#1 238192694#2 29326643 1236950985 465161746#0 465161746#1 1348263187 459344271#0 459344271#1 459344269 237751551 394320751 394320750 465376249 463462760 230976795#1 230976794#1 230976794#2 29343804#1 230957293#1 230957295#0 230957295#1 230957295#2 464700828 23075534#1 23075534#2 155187890#0 155187890#1 155187890#2 230977081#0 230977081#1 386821327#0 386821327#1 230977080#1 155187888#1 155187885#1 291342460 155187889 44908524#1 237947343 44908527#1 423001851 44699861 82937705#0 82937705#1 82937705#2 4432923#1 107824637#0 107824637#1 107824637#2 1236950980#0 1236950980#1 24700885#1 24700885#2 24700885#3 24700885#4" >
        <stop busStop="3761260322" duration="20" until="73.0"/> <!-- Rathaus Steglitz -->
        <stop busStop="305801671" duration="20" until="164.0"/> <!-- Feuerbachstraße -->
        <stop busStop="1797290853" duration="20" until="246.0"/> <!-- Friedenau -->
        <stop busStop="1797290858" duration="20" until="337.0"/> <!-- Schöneberg -->
        <stop busStop="3761260321" duration="20" until="427.0"/> <!-- Julius-Leber-Brücke -->
        <stop busStop="28092581" duration="20" until="511.0"/> <!-- Yorckstraße (Großgörschenstraße) -->
        <stop busStop="322633812" duration="20" until="657.0"/> <!-- Anhalter Bahnhof -->
        <stop busStop="322796203" duration="20" until="766.0"/> <!-- Potsdamer Platz -->
        <stop busStop="322796388" duration="20" until="880.0"/> <!-- Brandenburger Tor -->
        <stop busStop="1930939368" duration="20" until="966.0"/> <!-- Friedrichstraße -->
        <stop busStop="1769645503" duration="20" until="1055.0"/> <!-- Oranienburger Straße -->
        <stop busStop="322799089" duration="20" until="1164.0"/> <!-- Nordbahnhof -->
        <stop busStop="1676057413" duration="20" until="1311.0"/> <!-- Humboldthain -->
        <stop busStop="1127966949" duration="20" until="1396.0"/> <!-- Gesundbrunnen -->
        <stop busStop="1127967030" duration="20" until="1497.0"/> <!-- Bornholmer Straße -->
    </route>
    <route id="pt_light_rail_S25:0" color="1,138,71" edges="23085181#0 23085181#1 23085181#2 23085181#3 107824634#1 107824634#2 107824634#3 1236950979#0 1236950979#1 30712996#0 30712996#1 30712996#2 44699860#0 44699860#1 942372145 116355015#0 116355015#1 116355015#2 237947348 291342456#0 291342456#1 291342456#2 23087691#1 23087691#2 23087691#3 1252158663#0 1252158663#1 230977079#0 230977079#1 777688873#0 777688873#1 24031007#1 4603315#0 4603315#1 230957292#1 230957292#2 230957297#1 109444375#0 -201178327 -230976794#1 -201178326 109444375#2 230976793#1 463462759 465376248 394320752#0 394320752#1 459344270#0 459344270#1 465161747 1348263192 237751547#0 237751547#1 237751546#1 238192696#0 238192696#1 238192696#2 238192693#0 238192693#1 1348263191 199325265 29326645#1 12702393#0 12702393#1 12702392 4756286#1 4756286#2 4756286#3 238452718#1 1348263188#0 1348263188#1 1348263188#2 1348263188#3 114688119#1 136703826#0 136703826#1 136703826#2 136703826#3 136703826#4 10360537#0 10360537#1 10360537#2 10360537#3 10360537#4 10360537#5 29327005#0 29327005#1 718121902 368769076 4617306#1" >
        <stop busStop="1127966995" duration="20" until="96.0"/> <!-- Bornholmer Straße -->
        <stop busStop="1127966939" duration="20" until="194.0"/> <!-- Gesundbrunnen -->
        <stop busStop="249189069" duration="20" until="282.0"/> <!-- Humboldthain -->
        <stop busStop="2393814847" duration="20" until="432.0"/> <!-- Nordbahnhof -->
        <stop busStop="30353449" duration="20" until="536.0"/> <!-- Oranienburger Straße -->
        <stop busStop="474368351" duration="20" until="632.0"/> <!-- Friedrichstraße -->
        <stop busStop="4946539237" duration="20" until="718.0"/> <!-- Brandenburger Tor -->
        <stop busStop="30353079" duration="20" until="829.0"/> <!-- Potsdamer Platz -->
        <stop busStop="2093326267" duration="20" until="940.0"/> <!-- Anhalter Bahnhof -->
        <stop busStop="30353065" duration="20" until="1086.0"/> <!-- Yorckstraße -->
        <stop busStop="604676232" duration="20" until="1211.0"/> <!-- Südkreuz -->
        <stop busStop="27429866" duration="20" until="1326.0"/> <!-- Priesterweg -->
    </route>
    <route id="pt_light_rail_S25:1" color="1,138,71" edges="257731631#0 257731631#1 5087062 718121904 368769081 29327006#0 29327006#1 29327006#2 29327006#3 29327006#4 29327006#5 29327006#6 27681620#1 27681621#0 27681621#1 27681621#2 27681621#3 136703812#1 136703812#2 136703812#3 136703812#4 136703812#5 136703812#6 1348263189#0 1348263189#1 1348263189#2 238452719#0 238452719#1 238452719#2 26477120#1 26477120#2 503475928 494022014#1 494022020#0 494022020#1 238192692 238192690#0 238192690#1 29326643 1236950985 465161746#0 465161746#1 1348263187 459344271#0 459344271#1 459344269 237751551 394320751 394320750 465376249 463462760 230976795#1 230976794#1 230976794#2 29343804#1 230957293#1 230957295#0 230957295#1 230957295#2 464700828 23075534#1 23075534#2 155187890#0 155187890#1 155187890#2 230977081#0 230977081#1 386821327#0 386821327#1 230977080#1 155187888#1 155187885#1 291342460 155187889 44908524#1 237947343 44908527#1 423001851 44699861 82937705#0 82937705#1 82937705#2 4432923#1 107824637#0 107824637#1 107824637#2 1236950980#0 1236950980#1 24700885#1 24700885#2 24700885#3 24700885#4" >
        <stop busStop="34663477" duration="20" until="93.0"/> <!-- Priesterweg -->
        <stop busStop="1095078257" duration="20" until="209.0"/> <!-- Südkreuz -->
        <stop busStop="290175314" duration="20" until="337.0"/> <!-- Yorckstraße -->
        <stop busStop="322633851" duration="20" until="478.0"/> <!-- Anhalter Bahnhof -->
        <stop busStop="322796203" duration="20" until="642.0"/> <!-- Potsdamer Platz -->
        <stop busStop="322796388" duration="20" until="756.0"/> <!-- Brandenburger Tor -->
        <stop busStop="1930939368" duration="20" until="842.0"/> <!-- Friedrichstraße -->
        <stop busStop="1769645503" duration="20" until="931.0"/> <!-- Oranienburger Straße -->
        <stop busStop="322799089" duration="20" until="1040.0"/> <!-- Nordbahnhof -->
        <stop busStop="1676057413" duration="20" until="1187.0"/> <!-- Humboldthain -->
        <stop busStop="1127966949" duration="20" until="1272.0"/> <!-- Gesundbrunnen -->
        <stop busStop="1127967030" duration="20" until="1373.0"/> <!-- Bornholmer Straße -->
    </route>
    <route id="pt_light_rail_S26:0" color="1,138,71" edges="257731631#0 257731631#1 5087062 718121904 368769081 29327006#0 29327006#1 29327006#2 29327006#3 29327006#4 29327006#5 29327006#6 27681620#1 27681621#0 27681621#1 27681621#2 27681621#3 136703812#1 136703812#2 136703812#3 136703812#4 136703812#5 136703812#6 1348263189#0 1348263189#1 1348263189#2 238452719#0 238452719#1 238452719#2 26477120#1 26477120#2 503475928 494022014#1 494022020#0 494022020#1 238192692 238192690#0 238192690#1 29326643 1236950985 465161746#0 465161746#1 1348263187 459344271#0 459344271#1 459344269 237751551 394320751 394320750 465376249 463462760 230976795#1 230976794#1 230976794#2 29343804#1 230957293#1 230957295#0 230957295#1 230957295#2 464700828 23075534#1 23075534#2 155187890#0 155187890#1 155187890#2 230977081#0 230977081#1 386821327#0 386821327#1 230977080#1 155187888#1 155187885#1 291342460 155187889 44908524#1 237947343 44908527#1 82937680 4631622 275929272 1156003279 29385328#0 29385328#1 29385328#2 1201360716 29120494#0 29120494#1 29120494#2 1201360714 4740808#1 4569936#1 4569936#2 4569936#3 26416582#1" >
        <stop busStop="34663477" duration="20" until="93.0"/> <!-- Priesterweg -->
        <stop busStop="1095078257" duration="20" until="249.0"/> <!-- Südkreuz -->
        <stop busStop="290175314" duration="20" until="377.0"/> <!-- Yorckstraße -->
        <stop busStop="322633851" duration="20" until="605.0"/> <!-- Anhalter Bahnhof -->
        <stop busStop="322796203" duration="20" until="771.0"/> <!-- Potsdamer Platz -->
        <stop busStop="322796388" duration="20" until="885.0"/> <!-- Brandenburger Tor -->
        <stop busStop="1930939368" duration="20" until="971.0"/> <!-- Friedrichstraße -->
        <stop busStop="1769645503" duration="20" until="1060.0"/> <!-- Oranienburger Straße -->
        <stop busStop="322799089" duration="20" until="1169.0"/> <!-- Nordbahnhof -->
        <stop busStop="1676057413" duration="20" until="1316.0"/> <!-- Humboldthain -->
        <stop busStop="1127966949" duration="20" until="1401.0"/> <!-- Gesundbrunnen -->
        <stop busStop="1127966988" duration="20" until="1543.0"/> <!-- Bornholmer Straße -->
    </route>
    <route id="pt_light_rail_S26:1" color="1,138,71" edges="29120371#0 29120371#1 29120369#1 29120369#2 29120369#3 1201360715#1 1201360715#2 23085231#0 23085231#1 23085231#2 30712997 29385430#1 1358328878 4740797 275933877 275933873 116355015#0 116355015#1 116355015#2 237947348 291342456#0 291342456#1 291342456#2 23087691#1 23087691#2 23087691#3 1252158663#0 1252158663#1 230977079#0 230977079#1 777688873#0 777688873#1 24031007#1 4603315#0 4603315#1 230957292#1 230957292#2 230957297#1 109444375#0 -201178327 -230976794#1 -201178326 109444375#2 230976793#1 463462759 465376248 394320752#0 394320752#1 459344270#0 459344270#1 465161747 1348263192 237751547#0 237751547#1 237751546#1 238192696#0 238192696#1 238192696#2 238192693#0 238192693#1 1348263191 199325265 29326645#1 12702393#0 12702393#1 12702392 4756286#1 4756286#2 4756286#3 238452718#1 1348263188#0 1348263188#1 1348263188#2 1348263188#3 114688119#1 136703826#0 136703826#1 136703826#2 136703826#3 136703826#4 10360537#0 10360537#1 10360537#2 10360537#3 10360537#4 10360537#5 29327005#0 29327005#1 718121902 368769076 4617306#1" >
        <stop busStop="1127967045" duration="20" until="180.0"/> <!-- Bornholmer Straße -->
        <stop busStop="1127966939" duration="20" until="281.0"/> <!-- Gesundbrunnen -->
        <stop busStop="249189069" duration="20" until="369.0"/> <!-- Humboldthain -->
        <stop busStop="2393814847" duration="20" until="569.0"/> <!-- Nordbahnhof -->
        <stop busStop="30353449" duration="20" until="673.0"/> <!-- Oranienburger Straße -->
        <stop busStop="474368351" duration="20" until="769.0"/> <!-- Friedrichstraße -->
        <stop busStop="4946539237" duration="20" until="855.0"/> <!-- Brandenburger Tor -->
        <stop busStop="30353079" duration="20" until="966.0"/> <!-- Potsdamer Platz -->
        <stop busStop="2093326267" duration="20" until="1077.0"/> <!-- Anhalter Bahnhof -->
        <stop busStop="30353065" duration="20" until="1223.0"/> <!-- Yorckstraße -->
        <stop busStop="604676232" duration="20" until="1348.0"/> <!-- Südkreuz -->
        <stop busStop="27429866" duration="20" until="1463.0"/> <!-- Priesterweg -->
    </route>
    <route id="pt_light_rail_S2:0" color="1,138,71" edges="29120371#0 29120371#1 29120369#1 29120369#2 29120369#3 1201360715#1 1201360715#2 23085231#0 23085231#1 23085231#2 30712997 29385430#1 1358328878 4740797 275933877 275933873 116355015#0 116355015#1 116355015#2 237947348 291342456#0 291342456#1 291342456#2 23087691#1 23087691#2 23087691#3 1252158663#0 1252158663#1 230977079#0 230977079#1 777688873#0 777688873#1 24031007#1 4603315#0 4603315#1 230957292#1 230957292#2 230957297#1 109444375#0 -201178327 -230976794#1 -201178326 109444375#2 230976793#1 463462759 465376248 394320752#0 394320752#1 459344270#0 459344270#1 465161747 1348263192 237751547#0 237751547#1 237751546#1 238192696#0 238192696#1 238192696#2 238192693#0 238192693#1 1348263191 199325265 29326645#1 12702393#0 12702393#1 12702392 4756286#1 4756286#2 4756286#3 238452718#1 1348263188#0 1348263188#1 1348263188#2 1348263188#3 114688119#1 136703826#0 136703826#1 136703826#2 136703826#3 136703826#4 10360537#0 10360537#1 10360537#2 10360537#3 10360537#4 10360537#5 5087058 368769080 718121901 368769077 4753113#1 4752796#1 4752796#2" >
        <stop busStop="1127967045" duration="20" until="101.0"/> <!-- Bornholmer Straße -->
        <stop busStop="1127966939" duration="20" until="202.0"/> <!-- Gesundbrunnen -->
        <stop busStop="249189069" duration="20" until="290.0"/> <!-- Humboldthain -->
        <stop busStop="2393814847" duration="20" until="440.0"/> <!-- Nordbahnhof -->
        <stop busStop="30353449" duration="20" until="544.0"/> <!-- Oranienburger Straße -->
        <stop busStop="474368351" duration="20" until="640.0"/> <!-- Friedrichstraße -->
        <stop busStop="4946539237" duration="20" until="726.0"/> <!-- Brandenburger Tor -->
        <stop busStop="30353079" duration="20" until="837.0"/> <!-- Potsdamer Platz -->
        <stop busStop="2093326267" duration="20" until="948.0"/> <!-- Anhalter Bahnhof -->
        <stop busStop="30353065" duration="20" until="1094.0"/> <!-- Yorckstraße -->
        <stop busStop="604676232" duration="20" until="1219.0"/> <!-- Südkreuz -->
        <stop busStop="34663482" duration="20" until="1334.0"/> <!-- Priesterweg -->
    </route>
    <route id="pt_light_rail_S2:1" color="1,138,71" edges="255994301#0 255994301#1 5087068#1 5087060 718121903 368769083 29327006#0 29327006#1 29327006#2 29327006#3 29327006#4 29327006#5 29327006#6 27681620#1 27681621#0 27681621#1 27681621#2 27681621#3 136703812#1 136703812#2 136703812#3 136703812#4 136703812#5 136703812#6 1348263189#0 1348263189#1 1348263189#2 238452719#0 238452719#1 238452719#2 26477120#1 26477120#2 503475928 494022014#1 494022020#0 494022020#1 238192692 238192690#0 238192690#1 29326643 1236950985 465161746#0 465161746#1 1348263187 459344271#0 459344271#1 459344269 237751551 394320751 394320750 465376249 463462760 230976795#1 230976794#1 230976794#2 29343804#1 230957293#1 230957295#0 230957295#1 230957295#2 464700828 23075534#1 23075534#2 155187890#0 155187890#1 155187890#2 230977081#0 230977081#1 386821327#0 386821327#1 230977080#1 155187888#1 155187885#1 291342460 155187889 44908524#1 237947343 44908527#1 82937680 4631622 275929272 1156003279 29385328#0 29385328#1 29385328#2 1201360716 29120494#0 29120494#1 29120494#2 1201360714 4740808#1 4569936#1 4569936#2 4569936#3 26416582#1" >
        <stop busStop="34663472" duration="20" until="91.0"/> <!-- Priesterweg -->
        <stop busStop="1095078257" duration="20" until="207.0"/> <!-- Südkreuz -->
        <stop busStop="290175314" duration="20" until="335.0"/> <!-- Yorckstraße -->
        <stop busStop="322633851" duration="20" until="476.0"/> <!-- Anhalter Bahnhof -->
        <stop busStop="322796203" duration="20" until="706.0"/> <!-- Potsdamer Platz -->
        <stop busStop="322796388" duration="20" until="820.0"/> <!-- Brandenburger Tor -->
        <stop busStop="1930939368" duration="20" until="906.0"/> <!-- Friedrichstraße -->
        <stop busStop="1769645503" duration="20" until="995.0"/> <!-- Oranienburger Straße -->
        <stop busStop="322799089" duration="20" until="1104.0"/> <!-- Nordbahnhof -->
        <stop busStop="1676057413" duration="20" until="1251.0"/> <!-- Humboldthain -->
        <stop busStop="1127966949" duration="20" until="1336.0"/> <!-- Gesundbrunnen -->
        <stop busStop="1127966988" duration="20" until="1437.0"/> <!-- Bornholmer Straße -->
    </route>
    <route id="pt_light_rail_S2:2" color="1,138,71" edges="29120371#0 29120371#1 29120369#1 29120369#2 29120369#3 1201360715#1 1201360715#2 23085231#0 23085231#1 23085231#2 30712997 29385430#1 1358328878 4740797 275933877 275933873 116355015#0 116355015#1 116355015#2 237947348 291342456#0 291342456#1 291342456#2 23087691#1 23087691#2 23087691#3 1252158663#0 1252158663#1 230977079#0 230977079#1 777688873#0 777688873#1 24031007#1 4603315#0 4603315#1 230957292#1 230957292#2 230957297#1 109444375#0 -201178327 -230976794#1 -201178326 109444375#2 230976793#1 463462759 465376248 394320752#0 394320752#1 459344270#0 459344270#1 465161747 1348263192 237751547#0 237751547#1 237751546#1 238192696#0 238192696#1 238192696#2 238192693#0 238192693#1 1348263191 199325265 29326645#1 12702393#0 12702393#1 12702392 4756286#1 4756286#2 4756286#3 238452718#1 1348263188#0 1348263188#1 1348263188#2 1348263188#3 114688119#1 136703826#0 136703826#1 136703826#2 136703826#3 136703826#4 10360537#0 10360537#1 10360537#2 10360537#3 10360537#4 10360537#5 5087058 368769080 718121901 368769077 4753113#1 4752796#1 4752796#2" >
        <stop busStop="1127967045" duration="20" until="166.0"/> <!-- Bornholmer Straße -->
        <stop busStop="1127966939" duration="20" until="267.0"/> <!-- Gesundbrunnen -->
        <stop busStop="249189069" duration="20" until="355.0"/> <!-- Humboldthain -->
        <stop busStop="2393814847" duration="20" until="505.0"/> <!-- Nordbahnhof -->
        <stop busStop="30353449" duration="20" until="609.0"/> <!-- Oranienburger Straße -->
        <stop busStop="474368351" duration="20" until="705.0"/> <!-- Friedrichstraße -->
        <stop busStop="4946539237" duration="20" until="791.0"/> <!-- Brandenburger Tor -->
        <stop busStop="30353079" duration="20" until="902.0"/> <!-- Potsdamer Platz -->
        <stop busStop="2093326267" duration="20" until="1013.0"/> <!-- Anhalter Bahnhof -->
        <stop busStop="30353065" duration="20" until="1159.0"/> <!-- Yorckstraße -->
        <stop busStop="604676232" duration="20" until="1284.0"/> <!-- Südkreuz -->
        <stop busStop="34663482" duration="20" until="1399.0"/> <!-- Priesterweg -->
    </route>
    <route id="pt_light_rail_S2:3" color="1,138,71" edges="255994301#0 255994301#1 5087068#1 5087060 718121903 368769083 29327006#0 29327006#1 29327006#2 29327006#3 29327006#4 29327006#5 29327006#6 27681620#1 27681621#0 27681621#1 27681621#2 27681621#3 136703812#1 136703812#2 136703812#3 136703812#4 136703812#5 136703812#6 1348263189#0 1348263189#1 1348263189#2 238452719#0 238452719#1 238452719#2 26477120#1 26477120#2 503475928 494022014#1 494022020#0 494022020#1 238192692 238192690#0 238192690#1 29326643 1236950985 465161746#0 465161746#1 1348263187 459344271#0 459344271#1 459344269 237751551 394320751 394320750 465376249 463462760 230976795#1 230976794#1 230976794#2 29343804#1 230957293#1 230957295#0 230957295#1 230957295#2 464700828 23075534#1 23075534#2 155187890#0 155187890#1 155187890#2 230977081#0 230977081#1 386821327#0 386821327#1 230977080#1 155187888#1 155187885#1 291342460 155187889 44908524#1 237947343 44908527#1 82937680 4631622 275929272 1156003279 29385328#0 29385328#1 29385328#2 1201360716 29120494#0 29120494#1 29120494#2 1201360714 4740808#1 4569936#1 4569936#2 4569936#3 26416582#1" >
        <stop busStop="34663472" duration="20" until="91.0"/> <!-- Priesterweg -->
        <stop busStop="1095078257" duration="20" until="207.0"/> <!-- Südkreuz -->
        <stop busStop="290175314" duration="20" until="335.0"/> <!-- Yorckstraße -->
        <stop busStop="322633851" duration="20" until="505.0"/> <!-- Anhalter Bahnhof -->
        <stop busStop="322796203" duration="20" until="671.0"/> <!-- Potsdamer Platz -->
        <stop busStop="322796388" duration="20" until="785.0"/> <!-- Brandenburger Tor -->
        <stop busStop="1930939368" duration="20" until="871.0"/> <!-- Friedrichstraße -->
        <stop busStop="1769645503" duration="20" until="960.0"/> <!-- Oranienburger Straße -->
        <stop busStop="322799089" duration="20" until="1069.0"/> <!-- Nordbahnhof -->
        <stop busStop="1676057413" duration="20" until="1216.0"/> <!-- Humboldthain -->
        <stop busStop="1127966949" duration="20" until="1301.0"/> <!-- Gesundbrunnen -->
        <stop busStop="1127966988" duration="20" until="1402.0"/> <!-- Bornholmer Straße -->
    </route>
    <route id="pt_light_rail_S3:0" color="5,90,153" edges="74859242#0 74859242#1 4742451#1 292306138#0 292306138#1 174512813#0 174512813#1 174512808 4689021#0 4689021#1 4689021#2 4689021#3 4689021#4 4689021#5 42126312#0 42126312#1 385258473 719295166#0 719295166#1 385258471#0 385258471#1 385258471#2 174528749#0 174528749#1 174528752 854659038 407544832#1 520764267#0 520764267#1 446682262 -653881643#2 -653881643#1 -653881643#0 -520764261#1 -520764261#0 678992907 346444754#1 346444754#2 346444754#3 222917863#0 222917863#1 222917861#1 222917861#2 222917861#3 222917861#4 222917861#5 4741937#0 4741937#1 588080171#0 588080171#1 136697964 281692033 363038684 898205017#0 32572183 281692024#2 898205013 -273296440 -31912616#1 -31912616#0 -345095780 345095784#1 345095784#2 345095784#3 32572698#1 32572698#2 377474960#1 377474960#2 377474960#3 32590425#1 32590429#1 32590429#2 32590429#3 32590433#1 32590433#2 32590433#3 32590436 25946659#1 25946659#2 25946659#3 32590498#1 32590501#1 32590648 32590649#0 32590649#1 32590649#2 32590640#0 32590640#1 32590640#2 32590653#1 32590904#1 25946685#1 25946685#2 25946678 25946662#1 25946662#2 29384521#0 29384521#1 -196844844 -4471823#3 -4471823#2 -4471823#1 -196844847 29384522#3 29384522#4 31025768#1 31025768#2 32591069#1 32591076#1 32591076#2 32591076#3 85258728#1 24757714#1 24757728#1 219922209 219922213#0 219922213#1 24757712#1 24988542#1 24988543#1 24988543#2 24757445 437578299#1 24757446#1 24757439#1 -273291364 -377118649#1 -273291363 32515021#3 377118650#1 377118650#2 51268883 422692537 51268880#1 51268880#2 51268880#3 51268880#4 51268880#5 51268880#6 273275700 273275698#0 273275698#1 273275698#2 273275698#3 273275698#4 273275698#5 438400101#1 377124041#1 377124041#2 37427016 275724840#0 275724840#1 275722376#0 275722376#1 275722376#2 275716890 37427031#1 37427032#0 37427032#1 37427032#2 37427052 37427053#1 275711863 26258565#1 26258565#2 4405237#1 4405237#2 4405237#3 4405237#4 28861240#0 28861240#1 28861240#2 28861240#3 802255093#0 802255093#1 31028601 1253059978 403614738#0 403614738#1 403614738#2 403614738#3 403614738#4" >
        <stop busStop="29809225" duration="20" until="104.0"/> <!-- Karlshorst -->
        <stop busStop="1106283890" duration="20" until="244.0"/> <!-- Betriebsbahnhof Rummelsburg -->
        <stop busStop="1106283718" duration="20" until="347.0"/> <!-- Rummelsburg -->
        <stop busStop="-5316085166" duration="20" until="428.0"/> <!-- Ostkreuz -->
        <stop busStop="6127606967" duration="20" until="529.0"/> <!-- Warschauer Straße -->
        <stop busStop="2837556545" duration="20" until="631.0"/> <!-- Ostbahnhof -->
        <stop busStop="1745157972" duration="20" until="739.0"/> <!-- Jannowitzbrücke -->
        <stop busStop="574265352" duration="20" until="841.0"/> <!-- Alexanderplatz -->
        <stop busStop="1745157971" duration="20" until="925.0"/> <!-- Hackescher Markt -->
        <stop busStop="2603331695" duration="20" until="1029.0"/> <!-- Friedrichstraße -->
        <stop busStop="2813070486" duration="20" until="1155.0"/> <!-- Hauptbahnhof -->
        <stop busStop="1745174995" duration="20" until="1293.0"/> <!-- Bellevue -->
        <stop busStop="1745174999" duration="20" until="1402.0"/> <!-- Tiergarten -->
        <stop busStop="1745221448" duration="20" until="1498.0"/> <!-- Zoologischer Garten -->
        <stop busStop="1745221431" duration="20" until="1595.0"/> <!-- Savignyplatz -->
        <stop busStop="1920671945" duration="20" until="1683.0"/> <!-- Charlottenburg -->
        <stop busStop="1745221443" duration="20" until="1792.0"/> <!-- Westkreuz -->
    </route>
    <route id="pt_light_rail_S3:1" color="5,90,153" edges="401050611 9828297#1 9828297#2 9828297#3 9828297#4 -17505898#1 -17505898#0 290877870 31028606#0 31028606#1 31028606#2 31028606#3 290872962 24867662#0 24867662#1 24867662#2 24867662#3 24867662#4 25369057#1 275714489 275713980#0 275713980#1 275714516 275712154 721032806 275712155#0 275712155#1 275712155#2 37427058 4475818#1 4475819 275716889#0 275716889#1 4490165 4490169#1 275724841 4490239#1 57728648#1 57728648#2 4490242 4490243#1 4490245#1 4490249#0 4490249#1 4434429#1 4490252#1 273275699#1 273275699#2 273275701#0 273275701#1 1236722199 4490256#1 4490256#2 4490256#3 4448412#1 8094157#0 8094157#1 4448413#1 31027672 25834481#1 377118649#1 377118649#2 377118649#3 4490257#1 4490257#2 4490257#3 437578300#1 4490323 24757444#1 157388729#1 4490333#1 219922208 219922205#0 219922205#1 4315430#1 114919150#1 114919150#2 114919150#3 85258732 32591077#1 32591071#1 4471824#1 4471823#1 4471823#2 4471823#3 4471823#4 25946658#0 25946658#1 25946658#2 4471820#0 4471820#1 196844848 -25946685#1 -195397542 25946681 25946682#1 25946682#2 32590902#1 32590894#1 32590894#2 23809673 4471817#1 4471817#2 4471817#3 32590638#1 32590645 32590647#0 32590647#1 32590494#1 32590496#0 32590496#1 72984377#1 72984377#2 32590438#1 32590435#1 32590435#2 32590435#3 32590435#4 32590431#1 32590423#1 32590419#0 32590419#1 32590419#2 32590419#3 32572700#1 32590373#1 31912616#1 273296440 -1209200158 898205014 898205011#1 898205011#2 898204980 371846332#1 505939991 136697960#0 136697960#1 653874274 440405446#1 440405446#2 440405446#3 440405446#4 440405446#5 440405446#6 654481300#0 654481300#1 678992906#0 678992906#1 407544848#0 407544848#1 407544848#2 407544848#3 446682260#0 446682260#1 446682260#2 446682255#0 446682255#1 446682255#2 446682255#3 854659039 385250925 719295168#0 719295168#1 385258472#1 385258472#2 719295167#0 719295167#1 719295165#0 719295165#1 385258470 42126338#1 42126338#2 42126338#3 42126338#4 42126338#5 719295163 175440860#0 175440860#1 174512811#0 174512811#1 1251391859 292306132 29028561#1" >
        <stop busStop="2108146652" duration="20" until="93.0"/> <!-- Westkreuz -->
        <stop busStop="1920671950" duration="20" until="207.0"/> <!-- Charlottenburg -->
        <stop busStop="3998225896" duration="20" until="294.0"/> <!-- Savignyplatz -->
        <stop busStop="2781518430" duration="20" until="388.0"/> <!-- Zoologischer Garten -->
        <stop busStop="4946539227" duration="20" until="483.0"/> <!-- Tiergarten -->
        <stop busStop="4946539242" duration="20" until="593.0"/> <!-- Bellevue -->
        <stop busStop="27412648" duration="20" until="734.0"/> <!-- Hauptbahnhof -->
        <stop busStop="27412232" duration="20" until="871.0"/> <!-- Friedrichstraße -->
        <stop busStop="27411240" duration="20" until="977.0"/> <!-- Hackescher Markt -->