<trips>

	<trip depart="0" from="beg" to="end"/>
	<trip depart="0" from="beg" to="end"/>
	<trip depart="0" from="beg" to="end"/>
	<trip depart="0" from="beg" to="end"/>
	<trip depart="0" from="beg" to="end"/>
	<trip depart="0" from="beg" to="end"/>
	<trip depart="0" from="beg" to="end"/>
	<trip depart="0" from="beg" to="end"/>
	<trip depart="0" from="beg" to="end"/>
	<trip depart="0" from="beg" to="end"/>
	<trip depart="0" from="beg" to="end"/>
	<trip depart="0" from="beg" to="end"/>
	<trip depart="0" from="beg" to="end"/>
	<trip depart="0" from="beg" to="end"/>
	<trip depart="0" from="beg" to="end"/>
	<trip depart="0" from="beg" to="end"/>
	<trip depart="0" from="beg" to="end"/>
	<trip depart="0" from="beg" to="end"/>
	<trip depart="0" from="beg" to="end"/>
	<trip depart="0" from="beg" to="end"/>
	<trip depart="0" from="beg" to="end"/>
	<trip depart="0" from="beg" to="end"/>
	<trip depart="0" from="beg" to="end"/>
	<trip depart="0" from="beg" to="end"/>
	<trip depart="0" from="beg" to="end"/>
	<trip depart="0" from="beg" to="end"/>
	<trip depart="0" from="beg" to="end"/>
	<trip depart="0" from="beg" to="end"/>
	<trip depart="0" from="beg" to="end"/>
	<trip depart="0" from="beg" to="end"/>
	<trip depart="0" from="beg" to="end"/>
	<trip depart="0" from="beg" to="end"/>
	<trip depart="0" from="beg" to="end"/>
	<trip depart="0" from="beg" to="end"/>
	<trip depart="0" from="beg" to="end"/>
	<trip depart="0" from="beg" to="end"/>
	<trip depart="0" from="beg" to="end"/>
	<trip depart="0" from="beg" to="end"/>
	<trip depart="0" from="beg" to="end"/>
	<trip depart="0" from="beg" to="end"/>
	<trip depart="0" from="beg" to="end"/>
	<trip depart="0" from="beg" to="end"/>
	<trip depart="0" from="beg" to="end"/>
	<trip depart="0" from="beg" to="end"/>
	<trip depart="0" from="beg" to="end"/>
	<trip depart="0" from="beg" to="end"/>
	<trip depart="0" from="beg" to="end"/>
	<trip depart="0" from="beg" to="end"/>
	<trip depart="0" from="beg" to="end"/>
	<trip depart="0" from="beg" to="end"/>
	<trip depart="0" from="beg" to="end"/>
	<trip depart="0" from="beg" to="end"/>
	<trip depart="0" from="beg" to="end"/>
	<trip depart="0" from="beg" to="end"/>
	<trip depart="0" from="beg" to="end"/>
	<trip depart="0" from="beg" to="end"/>
	<trip depart="0" from="beg" to="end"/>
	<trip depart="0" from="beg" to="end"/>
	<trip depart="0" from="beg" to="end"/>
	<trip depart="0" from="beg" to="end"/>
	<trip depart="0" from="beg" to="end"/>
	<trip depart="0" from="beg" to="end"/>
	<trip depart="0" from="beg" to="end"/>
	<trip depart="0" from="beg" to="end"/>
	<trip depart="0" from="beg" to="end"/>
	<trip depart="0" from="beg" to="end"/>
	<trip depart="0" from="beg" to="end"/>
	<trip depart="0" from="beg" to="end"/>
	<trip depart="0" from="beg" to="end"/>
	<trip depart="0" from="beg" to="end"/>
	<trip depart="0" from="beg" to="end"/>
	<trip depart="0" from="beg" to="end"/>
	<trip depart="0" from="beg" to="end"/>
	<trip depart="0" from="beg" to="end"/>
	<trip depart="0" from="beg" to="end"/>
	<trip depart="0" from="beg" to="end"/>
	<trip depart="0" from="beg" to="end"/>
	<trip depart="0" from="beg" to="end"/>
	<trip depart="0" from="beg" to="end"/>
	<trip depart="0" from="beg" to="end"/>
	<trip depart="0" from="beg" to="end"/>
	<trip depart="0" from="beg" to="end"/>
	<trip depart="0" from="beg" to="end"/>
	<trip depart="0" from="beg" to="end"/>
	<trip depart="0" from="beg" to="end"/>
	<trip depart="0" from="beg" to="end"/>
	<trip depart="0" from="beg" to="end"/>
	<trip depart="0" from="beg" to="end"/>
	<trip depart="0" from="beg" to="end"/>
	<trip depart="0" from="beg" to="end"/>
	<trip depart="0" from="beg" to="end"/>
	<trip depart="0" from="beg" to="end"/>
	<trip depart="0" from="beg" to="end"/>
	<trip depart="0" from="beg" to="end"/>
	<trip depart="0" from="beg" to="end"/>
	<trip depart="0" from="beg" to="end"/>
	<trip depart="0" from="beg" to="end"/>
	<trip depart="0" from="beg" to="end"/>
	<trip depart="0" from="beg" to="end"/>
	<trip depart="0" from="beg" to="end"/>

</trips>
