<edges>
	<edge id="1">
		<split lanes="0 1 2" pos="50"/>
	</edge>
</edges>
