<?xml version="1.0" encoding="UTF-8"?>

<!-- generated on 05/02/13 14:02:48 by SUMO duarouter Version 0.17.0
<?xml version="1.0" encoding="UTF-8"?>

<configuration xmlns:xsi="http://www.w3.org/2001/XMLSchema-instance" xsi:noNamespaceSchemaLocation="http://sumo.dlr.de/xsd/duarouterConfiguration.xsd">

    <input>
        <net-file value="input_net.net.xml"/>
        <alternative-files value="input_alts.rou.alt.xml"/>
    </input>

    <output>
        <output-file value="routes.rou.xml"/>
    </output>

    <report>
        <no-step-log value="true"/>
    </report>

</configuration>
-->

<routes xmlns:xsi="http://www.w3.org/2001/XMLSchema-instance" xsi:noNamespaceSchemaLocation="http://sumo.dlr.de/xsd/routes_file.xsd">
    <vType id="0" length="3.00" minGap="2.00" maxSpeed="70.00" vClass="private" color="yellow">
        <carFollowing-Krauss accel="2.60" decel="4.50" sigma="0.50"/>
    </vType>
    <vehicle id="0" type="0" depart="0.00" color="black">
        <route edges="beg middle end rend"/>
    </vehicle>
    <vehicle id="1" type="0" depart="0.00" color="black">
        <route edges="beg middle end rend"/>
    </vehicle>
    <vehicle id="2" type="0" depart="0.00" color="black">
        <route edges="beg middle end rend"/>
    </vehicle>
    <vehicle id="3" type="0" depart="0.00" color="black">
        <route edges="beg middle end rend"/>
    </vehicle>
    <vehicle id="4" type="0" depart="0.00" color="black">
        <route edges="beg middle end rend"/>
    </vehicle>
    <vehicle id="5" type="0" depart="0.00" color="black">
        <route edges="beg middle end rend"/>
    </vehicle>
    <vehicle id="6" type="0" depart="0.00" color="black">
        <route edges="beg middle end rend"/>
    </vehicle>
    <vehicle id="7" type="0" depart="0.00" color="black">
        <route edges="beg middle end rend"/>
    </vehicle>
    <vehicle id="8" type="0" depart="0.00" color="black">
        <route edges="beg middle end rend"/>
    </vehicle>
    <vehicle id="9" type="0" depart="0.00" color="black">
        <route edges="beg middle end rend"/>
    </vehicle>
</routes>
