<?xml version="1.0" encoding="UTF-8"?>

<!-- generated on Wed Jun 14 08:28:14 2017 by SUMO Version dev-SVN-r24667
<?xml version="1.0" encoding="UTF-8"?>

<configuration xmlns:xsi="http://www.w3.org/2001/XMLSchema-instance" xsi:noNamespaceSchemaLocation="http://sumo.dlr.de/xsd/sumoConfiguration.xsd">

    <input>
        <net-file value="net.net.xml"/>
        <route-files value="input_routes.rou.xml"/>
    </input>

    <output>
        <fcd-output value="fcd.xml"/>
        <tripinfo-output value="tripinfos.xml"/>
        <lanechange-output value="lanechanges.xml"/>
    </output>

    <processing>
        <lateral-resolution value="0.4"/>
    </processing>

    <report>
        <xml-validation value="never"/>
        <no-step-log value="true"/>
    </report>

</configuration>
-->

<lanechanges>
    <change id="A" time="15.00" from="beg_0" to="beg_1" dir="1" speed="6.48" reason="strategic|urgent" leaderGap="8.33" leaderSecureGap="0.00" followerGap="None" followerSecureGap="None" latGap="None"/>
</lanechanges>
