<?xml version="1.0" encoding="UTF-8"?>

<!-- generated on Mon Sep  9 14:22:01 2013 by SUMO sumo Version dev-SVN-r14631
<?xml version="1.0" encoding="UTF-8"?>

<configuration xmlns:xsi="http://www.w3.org/2001/XMLSchema-instance" xsi:noNamespaceSchemaLocation="http://sumo.dlr.de/xsd/sumoConfiguration.xsd">

    <input>
        <net-file value="three_split.net.xml"/>
        <route-files value="input_routes.rou.xml"/>
        <additional-files value="input_additional.add.xml,input_additional2.add.xml"/>
    </input>

    <time>
        <step-length value="0.5"/>
    </time>

    <report>
        <no-duration-log value="true"/>
        <no-step-log value="true"/>
    </report>

</configuration>
-->

<instantE1>
    <instantOut id="beg_end" time="23.84" state="enter" vehID="leader" speed="20.00" length="5.00" type="leader"/>
    <instantOut id="beg_end" time="24.00" state="stay" vehID="leader" speed="20.00" length="5.00" type="leader"/>
    <instantOut id="beg_end" time="24.09" state="leave" vehID="leader" speed="20.00" length="5.00" type="leader" occupancy="0.25"/>
    <instantOut id="beg_end" time="24.67" state="enter" vehID="follower" speed="20.30" length="5.00" type="follower" gap="0.57"/>
    <instantOut id="beg_end" time="24.91" state="leave" vehID="follower" speed="20.30" length="5.00" type="follower" occupancy="0.25"/>
</instantE1>
