<?xml version="1.0" encoding="UTF-8"?>

<!-- generated on Mon Feb 13 12:02:54 2017 by SUMO duarouter Version dev-SVN-r22919
This data file and the accompanying materials
are made available under the terms of the Eclipse Public License v2.0
which accompanies this distribution, and is available at
http://www.eclipse.org/legal/epl-v20.html
SPDX-License-Identifier: EPL-2.0
<configuration xmlns:xsi="http://www.w3.org/2001/XMLSchema-instance" xsi:noNamespaceSchemaLocation="https://sumo.dlr.de/xsd/duarouterConfiguration.xsd">

    <input>
        <net-file value="input_net.net.xml"/>
        <additional-files value="input_additional.add.xml"/>
        <route-files value="input_routes.rou.xml"/>
    </input>

    <output>
        <output-file value="routes.rou.xml"/>
    </output>

    <report>
        <xml-validation value="never"/>
        <no-step-log value="true"/>
    </report>

</configuration>
-->

<routes xmlns:xsi="http://www.w3.org/2001/XMLSchema-instance" xsi:noNamespaceSchemaLocation="https://sumo.dlr.de/xsd/routes_file.xsd">
    <person id="p0" depart="0.00">
        <walk edges="beg middle end"/>
    </person>
    <vehicle id="bus.0" depart="10000.00" line="bus">
        <route edges="beg middle end"/>
        <stop busStop="beg_0" until="10000.00"/>
        <stop busStop="end_0" until="10100.00"/>
    </vehicle>
</routes>
