<?xml version="1.0" encoding="UTF-8"?>

<!-- generated on 2023-06-29 15:04:04.824570 by routeSampler.py v1_17_0+1318-85f891f765f
<configuration>
    <route-files value="input_routes.rou.xml"/>
    <turn-files value="input_turns.xml"/>
    <verbose value="True"/>
    <write-flows value="number"/>
    <total-count value="100"/>
    <min-count value="2"/>
</configuration>
-->

<routes xmlns:xsi="http://www.w3.org/2001/XMLSchema-instance" xsi:noNamespaceSchemaLocation="http://sumo.dlr.de/xsd/routes_file.xsd">
<!-- begin="0.0" end="99.0" -->
    <flow id="81" begin="0.30" end="99.00" number="6">
        <route edges="31.80.00 58"/>
    </flow>
    <flow id="10" begin="3.17" end="99.00" number="3">
        <route edges="-144 -144.121.42 152"/>
    </flow>
    <flow id="29" begin="6.90" end="99.00" number="3">
        <route edges="-43.80.00 -27 -27.80.00 -3 -3.180.00 15 15.180.00 -144 -144.121.42 152"/>
    </flow>
    <flow id="4" begin="7.27" end="99.00" number="3">
        <route edges="-11.80.00 3 3.180.00 27 27.80.00 55 71"/>
    </flow>
    <flow id="87" begin="8.85" end="99.00" number="2">
        <route edges="58 -37 -37.80.00 -23"/>
    </flow>
    <flow id="32" begin="11.31" end="99.00" number="2">
        <route edges="-45.80.00 -27 -27.80.00 -3 -3.180.00 11 11.80.00 23 23.80.00 31 31.80.00 60 60.80.00 92"/>
    </flow>
    <flow id="52" begin="13.82" end="99.00" number="4">
        <route edges="-79.80.00 75 75.121.42 120 120.180.00 131 131.180.00 144 144.121.42"/>
    </flow>
    <flow id="72" begin="14.05" end="99.00" number="2">
        <route edges="23.80.00 31 31.80.00 60 60.80.00 75 75.121.42"/>
    </flow>
    <flow id="3" begin="16.13" end="99.00" number="2">
        <route edges="-11 -11.80.00 15 15.180.00 -123 -123.121.42 -120 -120.180.00"/>
    </flow>
    <flow id="21" begin="16.72" end="99.00" number="4">
        <route edges="-3.180.00 3 3.180.00 -3"/>
    </flow>
    <flow id="8" begin="17.26" end="99.00" number="2">
        <route edges="-131.180.00 -109 -109.80.00 -11 -11.80.00 3 3.180.00 -71 -55 -55.80.00"/>
    </flow>
    <flow id="34" begin="17.32" end="99.00" number="1">
        <route edges="-55 -55.80.00 -27 -27.80.00 -3 -3.180.00 11 11.80.00 23 23.80.00 31 31.80.00 58 -37 -37.80.00"/>
    </flow>
    <flow id="79" begin="17.42" end="99.00" number="1">
        <route edges="3.180.00 27 27.80.00 55 71"/>
    </flow>
    <flow id="90" begin="18.14" end="99.00" number="2">
        <route edges="60.80.00 75 75.121.42 -75"/>
    </flow>
    <flow id="69" begin="18.43" end="99.00" number="2">
        <route edges="15 15.180.00 -123 -123.121.42 -120 -120.180.00 -75 -75.121.42 75"/>
    </flow>
    <flow id="55" begin="18.68" end="99.00" number="1">
        <route edges="109 109.80.00 -109 -109.80.00 -11 -11.80.00 3 3.180.00 27 27.80.00 43 68 -45"/>
    </flow>
    <flow id="78" begin="19.69" end="99.00" number="5">
        <route edges="3.180.00 -3 -3.180.00 11 11.80.00 23 23.80.00 31 31.80.00 58"/>
    </flow>
    <flow id="1" begin="21.24" end="99.00" number="4">
        <route edges="-109.80.00 -11 -11.80.00 3 3.180.00 27 27.80.00 -27 -27.80.00"/>
    </flow>
    <flow id="84" begin="24.45" end="99.00" number="2">
        <route edges="43 68 -45 -45.80.00 -27 -27.80.00 -3 -3.180.00 11 11.80.00"/>
    </flow>
    <flow id="41" begin="25.82" end="99.00" number="1">
        <route edges="-64 -64.80.00 64 64.80.00 120 120.180.00 123 123.121.42"/>
    </flow>
    <flow id="30" begin="26.80" end="99.00" number="2">
        <route edges="-43.80.00 -27 -27.80.00 -71 -55 -55.80.00"/>
    </flow>
    <flow id="56" begin="27.61" end="99.00" number="1">
        <route edges="11 11.80.00 23 23.80.00 31 31.80.00 64 64.80.00"/>
    </flow>
    <flow id="62" begin="29.30" end="99.00" number="3">
        <route edges="123 123.121.42 -123"/>
    </flow>
    <flow id="73" begin="30.23" end="99.00" number="1">
        <route edges="27 27.80.00 -27 -27.80.00 -3 -3.180.00 11 11.80.00 109 109.80.00 131 131.180.00"/>
    </flow>
    <flow id="65" begin="30.88" end="99.00" number="3">
        <route edges="144 144.121.42 -123 -123.121.42 -120 -120.180.00 -64 -64.80.00 58"/>
    </flow>
    <flow id="71" begin="32.13" end="99.00" number="3">
        <route edges="23 23.80.00 -23 -23.80.00 109"/>
    </flow>
    <flow id="48" begin="32.88" end="99.00" number="3">
        <route edges="-79 -79.80.00 -60 -60.80.00 64 64.80.00"/>
    </flow>
    <flow id="26" begin="36.39" end="99.00" number="2">
        <route edges="-37.80.00 -23 -23.80.00 109 109.80.00 131"/>
    </flow>
    <flow id="97" begin="36.84" end="99.00" number="2">
        <route edges="75 75.121.42 120 120.180.00 -109 -109.80.00 23 23.80.00"/>
    </flow>
    <flow id="66" begin="38.87" end="99.00" number="2">
        <route edges="144 144.121.42 -15 -15.180.00 3 3.180.00 27 27.80.00"/>
    </flow>
    <flow id="14" begin="39.36" end="99.00" number="1">
        <route edges="-15 -15.180.00 15 15.180.00"/>
    </flow>
    <flow id="60" begin="40.05" end="99.00" number="1">
        <route edges="120 120.180.00 -109 -109.80.00 -11 -11.80.00 3 3.180.00 27 27.80.00 45"/>
    </flow>
    <flow id="20" begin="41.47" end="99.00" number="2">
        <route edges="-3.180.00 11 11.80.00 23 23.80.00"/>
    </flow>
    <flow id="59" begin="42.39" end="99.00" number="2">
        <route edges="120 120.180.00 -109 -109.80.00 -11 -11.80.00 3 3.180.00 27 27.80.00 43 68 -45"/>
    </flow>
    <flow id="77" begin="44.39" end="99.00" number="1">
        <route edges="3 3.180.00 -3 -3.180.00 11 11.80.00 23 23.80.00 31 31.80.00 64 64.80.00"/>
    </flow>
    <flow id="11" begin="46.56" end="99.00" number="2">
        <route edges="-144.121.42 144 144.121.42 -15 -15.180.00 5"/>
    </flow>
    <flow id="51" begin="47.79" end="99.00" number="2">
        <route edges="-79.80.00 75 75.121.42"/>
    </flow>
    <flow id="76" begin="48.08" end="99.00" number="1">
        <route edges="27.80.00 -27 -27.80.00 -3 -3.180.00 11 11.80.00 23 23.80.00 31 31.80.00 60 60.80.00 75 75.121.42"/>
    </flow>
    <flow id="40" begin="51.15" end="99.00" number="1">
        <route edges="-64 -64.80.00 64 64.80.00 120 120.180.00 -120 -120.180.00"/>
    </flow>
    <flow id="15" begin="51.26" end="99.00" number="1">
        <route edges="-15.180.00 11 11.80.00 23 23.80.00 31 31.80.00 64 64.80.00 120"/>
    </flow>
    <flow id="68" begin="57.49" end="99.00" number="1">
        <route edges="15 15.180.00 -123 -123.121.42 -109 -109.80.00 -11"/>
    </flow>
    <flow id="67" begin="66.23" end="99.00" number="1">
        <route edges="144.121.42 -123 -123.121.42 -120 -120.180.00 -64 -64.80.00 58"/>
    </flow>
    <flow id="31" begin="68.88" end="99.00" number="1">
        <route edges="-43.80.00 -27 -27.80.00 27 27.80.00"/>
    </flow>
    <flow id="0" begin="68.89" end="99.00" number="1">
        <route edges="-109.80.00 -11 -11.80.00 3 3.180.00 27 27.80.00 -27"/>
    </flow>
    <flow id="57" begin="69.34" end="99.00" number="1">
        <route edges="11.80.00 23 23.80.00 31"/>
    </flow>
    <flow id="6" begin="70.40" end="99.00" number="1">
        <route edges="-123 -123.121.42 131 131.180.00"/>
    </flow>
    <flow id="7" begin="80.14" end="99.00" number="1">
        <route edges="-123.121.42 131"/>
    </flow>
    <flow id="58" begin="83.82" end="99.00" number="1">
        <route edges="120 120.180.00 -109 -109.80.00 -11 -11.80.00 3 3.180.00 -71 -55 -55.80.00"/>
    </flow>
    <flow id="63" begin="84.24" end="99.00" number="1">
        <route edges="123 123.121.42 -15 -15.180.00 3 3.180.00 27 27.80.00 43 68"/>
    </flow>
    <flow id="54" begin="87.38" end="99.00" number="1">
        <route edges="109 109.80.00 -109 -109.80.00 -11 -11.80.00 3 3.180.00 -71 -55 -55.80.00"/>
    </flow>
    <flow id="70" begin="93.07" end="99.00" number="1">
        <route edges="15.180.00 -15 -15.180.00 11 11.80.00 23 23.80.00 31 31.80.00"/>
    </flow>
    <flow id="36" begin="97.23" end="99.00" number="1">
        <route edges="-55 -55.80.00 -27 -27.80.00 -3 -3.180.00 15 15.180.00 -144 -144.121.42 -131"/>
    </flow>
</routes>
