<?xml version="1.0" encoding="UTF-8"?>

<!-- generated on 2022-10-21 11:18:34 by Eclipse SUMO netedit Version v1_14_1+1872-d955e9abd09
-->

<routes xmlns:xsi="http://www.w3.org/2001/XMLSchema-instance" xsi:noNamespaceSchemaLocation="http://sumo.dlr.de/xsd/routes_file.xsd">
    <!-- Routes -->
    <route id="route_0" edges="gneE0 gneE1" color="yellow">
        <stop busStop="busStopA" duration="70.00" until="12.00" extension="10.00" triggered="person" expected="perA perB" permitted="A B" speed="10.00" actType="walking"/>
        <stop busStop="busStopB" duration="60.00" until="20.00" extension="20.00" triggered="container" expected="conA conB" permitted="C D" speed="22.50" actType="singing"/>
    </route>
</routes>
