<?xml version="1.0" encoding="UTF-8"?>

<!-- generated on Tue Nov 19 12:56:18 2019 by Eclipse SUMO netconvert Version v1_3_1+0951-3ab2f68
This data file and the accompanying materials
are made available under the terms of the Eclipse Public License v2.0
which accompanies this distribution, and is available at
http://www.eclipse.org/legal/epl-v20.html
SPDX-License-Identifier: EPL-2.0
<configuration xmlns:xsi="http://www.w3.org/2001/XMLSchema-instance" xsi:noNamespaceSchemaLocation="http://sumo.dlr.de/xsd/netconvertConfiguration.xsd">

    <input>
        <sumo-net-file value="input_net.net.xml"/>
        <ptstop-files value="input_ptstops.xml"/>
    </input>

    <output>
        <write-license value="true"/>
        <ptstop-output value="additional.xml"/>
        <railway.topology.output value="topology.xml"/>
    </output>

    <processing>
        <geometry.max-grade.fix value="false"/>
        <offset.disable-normalization value="true"/>
        <lefthand value="false"/>
    </processing>

    <junctions>
        <no-turnarounds value="true"/>
        <junctions.corner-detail value="5"/>
        <junctions.limit-turn-speed value="-1"/>
        <rectangular-lane-cut value="false"/>
    </junctions>

    <pedestrian>
        <walkingareas value="false"/>
    </pedestrian>

    <railway>
        <railway.topology.all-bidi value="true"/>
    </railway>

    <report>
        <verbose value="true"/>
        <xml-validation value="never"/>
    </report>

</configuration>
-->

<additional xmlns:xsi="http://www.w3.org/2001/XMLSchema-instance" xsi:noNamespaceSchemaLocation="http://sumo.dlr.de/xsd/additional_file.xsd">
    <busStop id="-stopA" name="Dudenstraße" lane="-a_0" startPos="20.00" endPos="90.00" friendlyPos="true"/>
    <busStop id="-stopC" name="Kolonnenbrücke" lane="-c_0" startPos="30.00" endPos="80.00" friendlyPos="true"/>
    <busStop id="stopA" name="Dudenstraße" lane="a_0" startPos="10.00" endPos="80.00" friendlyPos="true"/>
    <busStop id="stopC" name="Kolonnenbrücke" lane="c_0" startPos="20.00" endPos="70.00" friendlyPos="true"/>
</additional>
