<?xml version="1.0" encoding="UTF-8"?>

<!-- generated on Tue 10 Nov 2020 07:54:37 AM CET by Eclipse SUMO netedit Version v1_7_0+0900-42762f8ad3
<configuration xmlns:xsi="http://www.w3.org/2001/XMLSchema-instance" xsi:noNamespaceSchemaLocation="http://sumo.dlr.de/xsd/netconvertConfiguration.xsd">

    <input>
        <sumo-net-file value="net.net.xml"/>
    </input>

    <output>
        <output-file value="/home/kobo/dlr/debug/7764/net3.net.xml"/>
        <plain-output-prefix value="/home/kobo/dlr/debug/7764/input_plain"/>
    </output>

    <processing>
        <geometry.min-radius.fix.railways value="false"/>
        <geometry.max-grade.fix value="false"/>
        <offset.disable-normalization value="true"/>
        <lefthand value="false"/>
    </processing>

    <junctions>
        <no-internal-links value="false"/>
        <no-turnarounds value="true"/>
        <junctions.corner-detail value="5"/>
        <junctions.limit-turn-speed value="5.5"/>
        <rectangular-lane-cut value="false"/>
    </junctions>

    <pedestrian>
        <walkingareas value="false"/>
    </pedestrian>

    <report>
        <aggregate-warnings value="5"/>
    </report>

</configuration>
-->

<edges version="1.6" xmlns:xsi="http://www.w3.org/2001/XMLSchema-instance" xsi:noNamespaceSchemaLocation="http://sumo.dlr.de/xsd/edges_file.xsd">
    <edge id="CE" from="C" to="E" priority="2" numLanes="3" speed="13.89">
        <lane index="0" allow="pedestrian" width="2.00"/>
        <lane index="1" disallow="pedestrian"/>
        <lane index="2" disallow="pedestrian"/>
    </edge>
    <edge id="CN" from="C" to="N" priority="1" numLanes="3" speed="13.89">
        <lane index="0" allow="pedestrian" width="2.00"/>
        <lane index="1" disallow="pedestrian"/>
        <lane index="2" disallow="pedestrian"/>
    </edge>
    <edge id="CS" from="C" to="S" priority="2" numLanes="3" speed="13.89">
        <lane index="0" allow="pedestrian" width="2.00"/>
        <lane index="1" disallow="pedestrian"/>
        <lane index="2" disallow="pedestrian"/>
    </edge>
    <edge id="CW" from="C" to="W" priority="1" numLanes="3" speed="13.89">
        <lane index="0" allow="pedestrian" width="2.00"/>
        <lane index="1" disallow="pedestrian"/>
        <lane index="2" disallow="pedestrian"/>
    </edge>
    <edge id="EC" from="E" to="C" priority="2" numLanes="3" speed="13.89">
        <lane index="0" allow="pedestrian" width="2.00"/>
        <lane index="1" disallow="pedestrian"/>
        <lane index="2" disallow="pedestrian"/>
    </edge>
    <edge id="NC" from="N" to="C" priority="1" numLanes="3" speed="13.89">
        <lane index="0" allow="pedestrian" width="2.00"/>
        <lane index="1" disallow="pedestrian"/>
        <lane index="2" disallow="pedestrian"/>
    </edge>
    <edge id="SC" from="S" to="C" priority="2" numLanes="3" speed="13.89">
        <lane index="0" allow="pedestrian" width="2.00"/>
        <lane index="1" disallow="pedestrian"/>
        <lane index="2" disallow="pedestrian"/>
    </edge>
    <edge id="WC" from="W" to="C" priority="1" numLanes="3" speed="13.89">
        <lane index="0" allow="pedestrian" width="2.00"/>
        <lane index="1" disallow="pedestrian"/>
        <lane index="2" disallow="pedestrian"/>
    </edge>
</edges>
