<?xml version="1.0" encoding="UTF-8"?>
<!-- generated on 2020-09-09 10:11:50.970588 by generateRailSignalConstraints.py v1_7_0+0007-9073c1719d
  options: -n net.net.xml -t input_routes.rou.xml -a input_additional.add.xml -o constraints.add.xml
-->
<additional xmlns:xsi="http://www.w3.org/2001/XMLSchema-instance" xsi:noNamespaceSchemaLocation="http://sumo.dlr.de/xsd/additional_file.xsd">
    <railSignalConstraints id="A">
        <predecessor tripId="t0" tl="D" foes="t1" limit="3"/>
    </railSignalConstraints>
    <railSignalConstraints id="D">
        <predecessor tripId="t10" tl="A" foes="t0" limit="3"/>
    </railSignalConstraints>
</additional>
