<?xml version="1.0" encoding="UTF-8"?>

<!-- generated on Mon May 28 15:02:25 2018 by Eclipse SUMO netconvert Version e77c7f7
<configuration xmlns:xsi="http://www.w3.org/2001/XMLSchema-instance" xsi:noNamespaceSchemaLocation="http://sumo.dlr.de/xsd/netconvertConfiguration.xsd">

    <input>
        <sumo-net-file value="net.net.xml"/>
    </input>

    <processing>
        <no-internal-links value="true"/>
        <no-turnarounds value="true"/>
        <offset.disable-normalization value="true"/>
        <roundabouts.guess value="true"/>
        <lefthand value="false"/>
        <junctions.corner-detail value="0"/>
        <rectangular-lane-cut value="false"/>
        <walkingareas value="false"/>
    </processing>

</configuration>
-->

<net version="0.27" xmlns:xsi="http://www.w3.org/2001/XMLSchema-instance" xsi:noNamespaceSchemaLocation="http://sumo.dlr.de/xsd/net_file.xsd">

    <location netOffset="0.00,0.00" convBoundary="-62.98,5.44,170.39,135.87" origBoundary="-10000000000.00,-10000000000.00,10000000000.00,10000000000.00" projParameter="!"/>

    <edge id="a_in" from="gneJ4" to="a" priority="1">
        <lane id="a_in_0" index="0" speed="13.89" length="89.64" shape="-62.26,4.67 14.48,43.54"/>
    </edge>
    <edge id="a_out" from="a" to="gneJ4" priority="1">
        <lane id="a_out_0" index="0" speed="13.89" length="89.64" shape="13.04,46.39 -63.70,7.53"/>
    </edge>
    <edge id="ab" from="a" to="b" priority="2" shape="16.99,46.60 23.42,43.08 29.58,47.46">
        <lane id="ab_0" index="0" speed="13.89" length="14.89" shape="19.02,43.67 23.53,41.20 27.72,44.17"/>
    </edge>
    <edge id="b_in" from="gneJ5" to="b" priority="1">
        <lane id="b_in_0" index="0" speed="13.89" length="101.14" shape="118.86,4.70 33.54,47.27"/>
    </edge>
    <edge id="b_out" from="b" to="gneJ5" priority="1">
        <lane id="b_out_0" index="0" speed="13.89" length="101.14" shape="32.11,44.41 117.43,1.83"/>
    </edge>
    <edge id="b_out2" from="gneJ5" to="gneJ15" priority="1">
        <lane id="b_out2_0" index="0" speed="13.89" length="50.83" shape="122.42,3.86 170.39,4.00"/>
    </edge>
    <edge id="bc" from="b" to="c" priority="2" shape="29.58,47.46 29.96,53.36 22.64,55.92">
        <lane id="bc_0" index="0" speed="13.89" length="13.67" shape="31.41,50.97 31.63,54.47 26.68,56.20"/>
    </edge>
    <edge id="c_in" from="gneJ6" to="c" priority="1">
        <lane id="c_in_0" index="0" speed="13.89" length="79.96" shape="19.52,135.84 20.97,59.61"/>
    </edge>
    <edge id="c_out" from="c" to="gneJ6" priority="1">
        <lane id="c_out_0" index="0" speed="13.89" length="79.96" shape="24.17,59.68 22.72,135.90"/>
    </edge>
    <edge id="ca" from="c" to="a" priority="2" shape="22.64,55.92 16.54,53.22 16.99,46.60">
        <lane id="ca_0" index="0" speed="13.89" length="13.31" shape="18.68,55.92 14.87,54.23 15.15,50.10"/>
    </edge>

    <tlLogic id="gneJ5" type="static" programID="0" offset="0">
        <phase duration="400" state="r"/>
        <phase duration="3"  state="g"/>
        <phase duration="3"  state="y"/>
    </tlLogic>

    <junction id="a" type="priority" x="16.99" y="46.60" incLanes="a_in_0 ca_0" intLanes="" shape="19.78,45.07 18.25,42.26 15.21,42.11 12.32,47.82 13.55,49.99 16.74,50.21">
        <request index="0" response="100" foes="100"/>
        <request index="1" response="000" foes="000"/>
        <request index="2" response="000" foes="001"/>
    </junction>
    <junction id="b" type="priority" x="29.58" y="47.46" incLanes="b_in_0 ab_0" intLanes="" shape="29.81,51.08 33.01,50.87 34.25,48.70 31.39,42.98 28.65,42.87 26.79,45.48">
        <request index="0" response="100" foes="100"/>
        <request index="1" response="000" foes="000"/>
        <request index="2" response="000" foes="001"/>
    </junction>
    <junction id="c" type="priority" x="22.64" y="55.92" incLanes="bc_0 c_in_0" intLanes="" shape="27.21,57.71 26.16,54.69 19.32,54.45 18.03,57.38 19.37,59.58 25.77,59.71">
        <request index="0" response="000" foes="000"/>
        <request index="1" response="000" foes="100"/>
        <request index="2" response="010" foes="010"/>
    </junction>
    <junction id="gneJ15" type="dead_end" x="170.39" y="5.60" incLanes="b_out2_0" intLanes="" shape="170.40,2.40 170.39,5.60"/>
    <junction id="gneJ4" type="dead_end" x="-62.98" y="6.10" incLanes="a_out_0" intLanes="" shape="-62.98,6.10 -64.43,8.95 -62.98,6.10"/>
    <junction id="gneJ5" type="traffic_light" x="113.79" y="5.44" incLanes="b_out_0" intLanes="" shape="122.42,5.46 122.43,2.26 116.72,0.40 119.57,6.13">
        <request index="0" response="0" foes="0"/>
    </junction>
    <junction id="gneJ6" type="dead_end" x="21.12" y="135.87" incLanes="c_out_0" intLanes="" shape="21.12,135.87 24.32,135.93 21.12,135.87"/>

    <connection from="a_in" to="ab" fromLane="0" toLane="0" dir="r" state="m"/>
    <connection from="ab" to="b_out" fromLane="0" toLane="0" dir="r" state="M"/>
    <connection from="ab" to="bc" fromLane="0" toLane="0" dir="s" state="M"/>
    <connection from="b_in" to="bc" fromLane="0" toLane="0" dir="r" state="m"/>
    <connection from="b_out" to="b_out2" fromLane="0" toLane="0" tl="gneJ5" linkIndex="0" dir="s" state="O"/>
    <connection from="bc" to="c_out" fromLane="0" toLane="0" dir="r" state="M"/>
    <connection from="bc" to="ca" fromLane="0" toLane="0" dir="s" state="M"/>
    <connection from="c_in" to="ca" fromLane="0" toLane="0" dir="r" state="m"/>
    <connection from="ca" to="a_out" fromLane="0" toLane="0" dir="r" state="M"/>
    <connection from="ca" to="ab" fromLane="0" toLane="0" dir="s" state="M"/>

    <roundabout nodes="a b c" edges="ab bc ca"/>

</net>
