<?xml version="1.0" encoding="UTF-8"?>

<!-- generated on 2022-06-10 10:41:58 by Eclipse SUMO netconvert Version v1_13_0+0734-4d9b53714aa
<configuration xmlns:xsi="http://www.w3.org/2001/XMLSchema-instance" xsi:noNamespaceSchemaLocation="http://sumo.dlr.de/xsd/netconvertConfiguration.xsd">

    <input>
        <sumo-net-file value="D:/SUMO/tests/netedit\netelements\crossings\without_tls\load\priority/input_net.net.xml"/>
    </input>

    <output>
        <plain-output-prefix value="D:/SUMO/tests/netedit\netelements\crossings\without_tls\load\priority/input_net"/>
    </output>

    <processing>
        <geometry.min-radius.fix.railways value="false"/>
        <geometry.max-grade.fix value="false"/>
        <offset.disable-normalization value="true"/>
        <lefthand value="false"/>
    </processing>

    <junctions>
        <no-turnarounds value="true"/>
        <junctions.corner-detail value="5"/>
        <junctions.limit-turn-speed value="5.5"/>
        <rectangular-lane-cut value="false"/>
    </junctions>

    <pedestrian>
        <walkingareas value="false"/>
    </pedestrian>

</configuration>
-->

<edges version="1.9" xmlns:xsi="http://www.w3.org/2001/XMLSchema-instance" xsi:noNamespaceSchemaLocation="http://sumo.dlr.de/xsd/edges_file.xsd">
    <edge id="CE" from="C" to="E" priority="3" numLanes="2" speed="13.89" allow="passenger"/>
    <edge id="CN" from="C" to="N" priority="2" numLanes="2" speed="13.89" allow="passenger"/>
    <edge id="CS" from="C" to="S" priority="2" numLanes="2" speed="13.89" allow="passenger"/>
    <edge id="CW" from="C" to="W" priority="3" numLanes="2" speed="13.89" allow="passenger"/>
    <edge id="EC" from="E" to="C" priority="3" numLanes="2" speed="13.89" allow="passenger"/>
    <edge id="NC" from="N" to="C" priority="2" numLanes="2" speed="13.89" allow="passenger"/>
    <edge id="SC" from="S" to="C" priority="2" numLanes="2" speed="13.89" allow="passenger"/>
    <edge id="WC" from="W" to="C" priority="3" numLanes="2" speed="13.89" allow="passenger"/>
</edges>
