<?xml version="1.0" encoding="UTF-8"?>

<!-- generated on 2025-04-24 10:10:21 by Eclipse SUMO netedit Version v1_22_0+1697-ab9c9eee8bf
<neteditConfiguration xmlns:xsi="http://www.w3.org/2001/XMLSchema-instance" xsi:noNamespaceSchemaLocation="http://sumo.dlr.de/xsd/neteditConfiguration.xsd">

    <input>
        <sumo-net-file value="net.net.xml"/>
    </input>

    <output>
        <output-file value="net.net.xml"/>
    </output>

    <processing>
        <geometry.min-radius.fix.railways value="false"/>
        <geometry.max-grade.fix value="false"/>
        <offset.disable-normalization value="true"/>
        <lefthand value="0"/>
    </processing>

    <junctions>
        <no-internal-links value="true"/>
        <no-turnarounds value="true"/>
        <junctions.corner-detail value="0"/>
        <junctions.limit-turn-speed value="-1.00"/>
        <rectangular-lane-cut value="0"/>
    </junctions>

    <pedestrian>
        <walkingareas value="0"/>
    </pedestrian>

</neteditConfiguration>
-->

<net version="1.20" xmlns:xsi="http://www.w3.org/2001/XMLSchema-instance" xsi:noNamespaceSchemaLocation="http://sumo.dlr.de/xsd/net_file.xsd">

    <location netOffset="-500.00,0.00" convBoundary="0.00,0.00,100.00,0.00" origBoundary="500.00,0.00,1500.00,0.00" projParameter="!"/>

    <edge id="E0" from="beg" to="center" priority="-1">
        <lane id="E0_0" index="0" speed="27.80" length="100.00" shape="0.00,-1.60 100.00,-1.60"/>
    </edge>

    <junction id="beg" type="dead_end" x="0.00" y="0.00" incLanes="" intLanes="" shape="0.00,0.00 0.00,-3.20"/>
    <junction id="center" type="dead_end" x="100.00" y="0.00" incLanes="E0_0" intLanes="" shape="100.00,-3.20 100.00,0.00"/>

</net>
