<?xml version="1.0" encoding="UTF-8"?>

<!-- generated on 2022-02-02 17:30:16 by Eclipse SUMO netedit Version v1_12_0+0227-d401ef1
<configuration xmlns:xsi="http://www.w3.org/2001/XMLSchema-instance" xsi:noNamespaceSchemaLocation="http://sumo.dlr.de/xsd/netconvertConfiguration.xsd">

    <input>
        <new value="true"/>
    </input>

    <output>
        <output-file value="/localdata2/debug/waypoint_reversal/net.net.xml"/>
    </output>

    <processing>
        <offset.disable-normalization value="true"/>
    </processing>

    <report>
        <aggregate-warnings value="5"/>
    </report>

</configuration>
-->

<net version="1.9" junctionCornerDetail="5" limitTurnSpeed="5.50" xmlns:xsi="http://www.w3.org/2001/XMLSchema-instance" xsi:noNamespaceSchemaLocation="http://sumo.dlr.de/xsd/net_file.xsd">

    <location netOffset="0.00,0.00" convBoundary="0.00,0.00,200.00,0.00" origBoundary="10000000000.00,10000000000.00,-10000000000.00,-10000000000.00" projParameter="!"/>

    <edge id=":J0_0" function="internal">
        <lane id=":J0_0_0" index="0" allow="rail" speed="0.10" length="0.10" shape="0.00,0.00 0.00,0.00"/>
    </edge>
    <edge id=":J1_0" function="internal" bidi=":J1_1">
        <lane id=":J1_0_0" index="0" allow="rail" speed="13.89" length="0.10" shape="100.00,0.00 100.00,0.00"/>
    </edge>
    <edge id=":J1_1" function="internal" bidi=":J1_0">
        <lane id=":J1_1_0" index="0" allow="rail" speed="13.89" length="0.10" shape="100.00,0.00 100.00,0.00"/>
    </edge>
    <edge id=":J2_0" function="internal">
        <lane id=":J2_0_0" index="0" allow="rail" speed="0.10" length="0.10" shape="200.00,0.00 200.00,0.00"/>
    </edge>

    <edge id="-E0" from="J1" to="J0" priority="-1" spreadType="center" bidi="E0">
        <lane id="-E0_0" index="0" allow="rail" speed="13.89" length="100.00" shape="100.00,0.00 0.00,0.00"/>
    </edge>
    <edge id="-E1" from="J2" to="J1" priority="-1" spreadType="center" bidi="E1">
        <lane id="-E1_0" index="0" allow="rail" speed="13.89" length="100.00" shape="200.00,0.00 100.00,0.00"/>
    </edge>
    <edge id="E0" from="J0" to="J1" priority="-1" spreadType="center" bidi="-E0">
        <lane id="E0_0" index="0" allow="rail" speed="13.89" length="100.00" shape="0.00,0.00 100.00,0.00"/>
    </edge>
    <edge id="E1" from="J1" to="J2" priority="-1" spreadType="center" bidi="-E1">
        <lane id="E1_0" index="0" allow="rail" speed="13.89" length="100.00" shape="100.00,0.00 200.00,0.00"/>
    </edge>

    <junction id="J0" type="priority" x="0.00" y="0.00" incLanes="-E0_0" intLanes=":J0_0_0" shape="0.00,1.60 0.00,-1.60 0.00,1.60 0.00,-1.60">
        <request index="0" response="0" foes="0" cont="0"/>
    </junction>
    <junction id="J1" type="priority" x="100.00" y="0.00" incLanes="-E1_0 E0_0" intLanes=":J1_0_0 :J1_1_0" shape="100.00,1.60 100.00,-1.60 100.00,1.60">
        <request index="0" response="00" foes="00" cont="0"/>
        <request index="1" response="00" foes="00" cont="0"/>
    </junction>
    <junction id="J2" type="priority" x="200.00" y="0.00" incLanes="E1_0" intLanes=":J2_0_0" shape="200.00,-1.60 200.00,1.60 200.00,-1.60 200.00,1.60">
        <request index="0" response="0" foes="0" cont="0"/>
    </junction>

    <connection from="-E0" to="E0" fromLane="0" toLane="0" speed="0.10" via=":J0_0_0" dir="t" state="M"/>
    <connection from="-E1" to="-E0" fromLane="0" toLane="0" via=":J1_0_0" dir="s" state="M"/>
    <connection from="E0" to="E1" fromLane="0" toLane="0" via=":J1_1_0" dir="s" state="M"/>
    <connection from="E1" to="-E1" fromLane="0" toLane="0" speed="0.10" via=":J2_0_0" dir="t" state="M"/>

    <connection from=":J0_0" to="E0" fromLane="0" toLane="0" dir="t" state="M"/>
    <connection from=":J1_0" to="-E0" fromLane="0" toLane="0" dir="s" state="M"/>
    <connection from=":J1_1" to="E1" fromLane="0" toLane="0" dir="s" state="M"/>
    <connection from=":J2_0" to="-E1" fromLane="0" toLane="0" dir="t" state="M"/>

</net>
