<?xml version="1.0" encoding="UTF-8"?>

<!-- generated on 2022-07-05 09:14:22 by Eclipse SUMO sumo Version v1_13_0+1393-579ed51
<configuration xmlns:xsi="http://www.w3.org/2001/XMLSchema-instance" xsi:noNamespaceSchemaLocation="http://sumo.dlr.de/xsd/sumoConfiguration.xsd">

    <input>
        <net-file value="net.net.xml"/>
        <route-files value="input_routes.rou.xml"/>
    </input>

    <output>
        <lanechange-output value="lanechanges.xml"/>
    </output>

    <report>
        <no-step-log value="true"/>
    </report>

    <traci_server>
        <remote-port value="35405"/>
    </traci_server>

</configuration>
-->

<lanechanges>
    <change id="ego" type="special" time="25.00" from="beg_0" to="beg_1" dir="1" speed="13.03" pos="270.69" reason="strategic|urgent" leaderGap="None" leaderSecureGap="None" leaderSpeed="None" followerGap="None" followerSecureGap="None" followerSpeed="None" origLeaderGap="24.31" origLeaderSecureGap="25.60" origLeaderSpeed="0.00"/>
    <change id="ego" type="special" time="39.00" from="beg_1" to="beg_0" dir="-1" speed="13.03" pos="453.15" reason="keepRight" leaderGap="None" leaderSecureGap="None" leaderSpeed="None" followerGap="148.15" followerSecureGap="0.00" followerSpeed="0.00" origLeaderGap="None" origLeaderSecureGap="None" origLeaderSpeed="None"/>
</lanechanges>
