<?xml version="1.0" encoding="UTF-8"?>

<!-- generated on 2022-06-01 15:25:14 by Eclipse SUMO netedit Version v1_13_0+0541-af1312cc9f7
-->

<routes xmlns:xsi="http://www.w3.org/2001/XMLSchema-instance" xsi:noNamespaceSchemaLocation="http://sumo.dlr.de/xsd/routes_file.xsd">
    <!-- Vehicles, persons and containers (sorted by depart) -->
    <person id="p_0" depart="0.00">
        <personTrip from="gneE2" to="gneE5"/>
    </person>
    <person id="p_3" depart="3.00" departPos="-30.00">
        <personTrip from="gneE2" to="gneE5"/>
    </person>
    <person id="p_4" depart="4.00" departPos="12.30">
        <personTrip from="gneE2" to="gneE5"/>
    </person>
    <person id="p_5" depart="5.00" departPos="8.00">
        <personTrip from="gneE2" to="gneE5"/>
    </person>
</routes>
