<routes xmlns:xsi="http://www.w3.org/2001/XMLSchema-instance" xsi:noNamespaceSchemaLocation="http://sumo.dlr.de/xsd/routes_file.xsd">
    <vTypeDistribution id="0" vTypes="DEFAULT_VEHTYPE"/>
    <trip id="0" type="0" depart="0" from="beg" to="rend" />
</routes>
