<?xml version="1.0" encoding="UTF-8"?>

<!-- generated on 2022-08-11 20:09:50.796353 by routeSampler.py v1_14_1+0264-7b674a2
<configuration>
    <arrival-attribute value="count"/>
    <edgedata-attribute value="none"/>
    <edgedata-files value="input_edgedata.xml"/>
    <route-files value="input_routes.rou.xml"/>
    <write-flows value="number"/>
</configuration>
-->

<routes xmlns:xsi="http://www.w3.org/2001/XMLSchema-instance" xsi:noNamespaceSchemaLocation="http://sumo.dlr.de/xsd/routes_file.xsd">
<!-- begin="0.0" end="99.0" -->
    <flow id="20" begin="0.00" end="96.54" number="10">
        <route edges="-3.180.00 11 11.80.00 23 23.80.00"/>
    </flow>
    <flow id="72" begin="0.19" end="45.72" number="3">
        <route edges="23.80.00 31 31.80.00 60 60.80.00 75 75.121.42"/>
    </flow>
    <flow id="63" begin="0.38" end="95.60" number="6">
        <route edges="123 123.121.42 -15 -15.180.00 3 3.180.00 27 27.80.00 43 68"/>
    </flow>
    <flow id="91" begin="0.57" end="95.79" number="6">
        <route edges="64.80.00 -64 -64.80.00 -31 -31.80.00 31"/>
    </flow>
    <flow id="86" begin="0.76" end="94.09" number="5">
        <route edges="45 -68 -43 -43.80.00 43"/>
    </flow>
    <flow id="82" begin="1.13" end="76.52" number="21">
        <route edges="37 -58 -58.121.42 -31 -31.80.00 -23 -23.80.00 -11 -11.80.00"/>
    </flow>
    <flow id="37" begin="1.32" end="89.36" number="10">
        <route edges="-58 -58.121.42 64 64.80.00 120 120.180.00"/>
    </flow>
    <flow id="71" begin="1.51" end="98.06" number="11">
        <route edges="23 23.80.00 -23 -23.80.00 109"/>
    </flow>
    <flow id="52" begin="1.70" end="41.94" number="2">
        <route edges="-79.80.00 75 75.121.42 120 120.180.00 131 131.180.00 144 144.121.42"/>
    </flow>
    <flow id="77" begin="1.89" end="97.68" number="4">
        <route edges="3 3.180.00 -3 -3.180.00 11 11.80.00 23 23.80.00 31 31.80.00 64 64.80.00"/>
    </flow>
    <flow id="87" begin="2.08" end="92.39" number="19">
        <route edges="58 -37 -37.80.00 -23"/>
    </flow>
    <flow id="47" begin="2.27" end="94.65" number="23">
        <route edges="-79 -79.80.00 -60 -60.80.00 -31 -31.80.00 -23 -23.80.00 -11 -11.80.00 3 3.180.00 -3 -3.180.00"/>
    </flow>
    <flow id="28" begin="2.46" end="93.90" number="10">
        <route edges="-43 -43.80.00 -27 -27.80.00 -3 -3.180.00 11 11.80.00 109 109.80.00"/>
    </flow>
    <flow id="83" begin="2.65" end="91.06" number="3">
        <route edges="37 -58 -58.121.42 -31 -31.80.00 -23 -23.80.00 109 109.80.00 131 131.180.00 -131 -131.180.00"/>
    </flow>
    <flow id="88" begin="3.02" end="92.01" number="24">
        <route edges="58 -37 -37.80.00 -23 -23.80.00 -11 -11.80.00 3 3.180.00"/>
    </flow>
    <flow id="62" begin="3.21" end="67.07" number="6">
        <route edges="123 123.121.42 -123"/>
    </flow>
    <flow id="23" begin="3.40" end="88.42" number="7">
        <route edges="-37 -37.80.00 -23 -23.80.00 109 109.80.00 131 131.180.00 144"/>
    </flow>
    <flow id="92" begin="3.78" end="69.90" number="4">
        <route edges="64.80.00 120 120.180.00 131 131.180.00 -131"/>
    </flow>
    <flow id="34" begin="3.97" end="90.69" number="6">
        <route edges="-55 -55.80.00 -27 -27.80.00 -3 -3.180.00 11 11.80.00 23 23.80.00 31 31.80.00 58 -37 -37.80.00"/>
    </flow>
    <flow id="97" begin="4.16" end="85.02" number="9">
        <route edges="75 75.121.42 120 120.180.00 -109 -109.80.00 23 23.80.00"/>
    </flow>
    <flow id="68" begin="4.35" end="93.14" number="10">
        <route edges="15 15.180.00 -123 -123.121.42 -109 -109.80.00 -11"/>
    </flow>
    <flow id="22" begin="4.53" end="47.42" number="4">
        <route edges="-31.80.00 -23 -23.80.00 109 109.80.00 123"/>
    </flow>
    <flow id="2" begin="4.72" end="90.31" number="15">
        <route edges="-109.80.00 23 23.80.00 31 31.80.00 -31 -31.80.00"/>
    </flow>
    <flow id="36" begin="5.10" end="29.10" number="2">
        <route edges="-55 -55.80.00 -27 -27.80.00 -3 -3.180.00 15 15.180.00 -144 -144.121.42 -131"/>
    </flow>
    <flow id="75" begin="5.67" end="6.67" number="1">
        <route edges="27 27.80.00 -27 -27.80.00 -3 -3.180.00 11 11.80.00 23 23.80.00 37 -58 -58.121.42"/>
    </flow>
    <flow id="19" begin="5.86" end="82.00" number="7">
        <route edges="-27.80.00 27 27.80.00 45 -68 -43 -43.80.00"/>
    </flow>
    <flow id="95" begin="6.05" end="73.49" number="7">
        <route edges="71 71.121.42 -3 -3.180.00 11 11.80.00 109 109.80.00 -120"/>
    </flow>
    <flow id="9" begin="6.23" end="95.03" number="3">
        <route edges="-144 -144.121.42 -131 -131.180.00 131 131.180.00"/>
    </flow>
    <flow id="21" begin="6.42" end="98.24" number="7">
        <route edges="-3.180.00 3 3.180.00 -3"/>
    </flow>
    <flow id="84" begin="6.80" end="97.49" number="20">
        <route edges="43 68 -45 -45.80.00 -27 -27.80.00 -3 -3.180.00 11 11.80.00"/>
    </flow>
    <flow id="0" begin="6.99" end="98.81" number="13">
        <route edges="-109.80.00 -11 -11.80.00 3 3.180.00 27 27.80.00 -27"/>
    </flow>
    <flow id="33" begin="7.18" end="62.35" number="6">
        <route edges="-45.80.00 -27 -27.80.00 -3 -3.180.00 11 11.80.00 23 23.80.00 37 -58"/>
    </flow>
    <flow id="13" begin="7.37" end="83.13" number="5">
        <route edges="-148 -148.80.00 144 144.121.42 -15 -15.180.00 3 3.180.00 -3"/>
    </flow>
    <flow id="66" begin="7.56" end="84.45" number="7">
        <route edges="144 144.121.42 -15 -15.180.00 3 3.180.00 27 27.80.00"/>
    </flow>
    <flow id="90" begin="7.75" end="92.77" number="2">
        <route edges="60.80.00 75 75.121.42 -75"/>
    </flow>
    <flow id="42" begin="8.31" end="84.64" number="10">
        <route edges="-64.80.00 -31 -31.80.00 -23 -23.80.00 -11 -11.80.00 3 3.180.00 -3"/>
    </flow>
    <flow id="45" begin="9.07" end="82.19" number="8">
        <route edges="-75 -75.121.42 -60 -60.80.00 -31 -31.80.00 -23 -23.80.00 -11 -11.80.00 3 3.180.00 -71"/>
    </flow>
    <flow id="46" begin="9.26" end="96.35" number="20">
        <route edges="-75.121.42 -60 -60.80.00 -31 -31.80.00 -23 -23.80.00 23"/>
    </flow>
    <flow id="70" begin="9.45" end="94.84" number="15">
        <route edges="15.180.00 -15 -15.180.00 11 11.80.00 23 23.80.00 31 31.80.00"/>
    </flow>
    <flow id="44" begin="9.64" end="61.02" number="6">
        <route edges="-71 -55 -55.80.00 -27 -27.80.00 -3 -3.180.00 11 11.80.00 23 23.80.00 31 31.80.00 64 64.80.00 -64"/>
    </flow>
    <flow id="39" begin="10.01" end="84.83" number="5">
        <route edges="-60 -60.80.00 -31 -31.80.00 -23 -23.80.00 -11 -11.80.00 3 3.180.00 27 27.80.00 43 68 -45 -45.80.00"/>
    </flow>
    <flow id="65" begin="10.20" end="11.20" number="1">
        <route edges="144 144.121.42 -123 -123.121.42 -120 -120.180.00 -64 -64.80.00 58"/>
    </flow>
    <flow id="56" begin="11.71" end="12.71" number="1">
        <route edges="11 11.80.00 23 23.80.00 31 31.80.00 64 64.80.00"/>
    </flow>
    <flow id="60" begin="12.66" end="73.87" number="3">
        <route edges="120 120.180.00 -109 -109.80.00 -11 -11.80.00 3 3.180.00 27 27.80.00 45"/>
    </flow>
    <flow id="8" begin="13.79" end="14.79" number="1">
        <route edges="-131.180.00 -109 -109.80.00 -11 -11.80.00 3 3.180.00 -71 -55 -55.80.00"/>
    </flow>
    <flow id="27" begin="14.74" end="91.25" number="13">
        <route edges="-43 -43.80.00 -27 -27.80.00"/>
    </flow>
    <flow id="26" begin="16.06" end="68.58" number="3">
        <route edges="-37.80.00 -23 -23.80.00 109 109.80.00 131"/>
    </flow>
    <flow id="31" begin="16.25" end="87.85" number="7">
        <route edges="-43.80.00 -27 -27.80.00 27 27.80.00"/>
    </flow>
    <flow id="93" begin="17.76" end="93.33" number="11">
        <route edges="68 -45 -45.80.00 -27 -27.80.00 -3 -3.180.00 11 11.80.00 -11"/>
    </flow>
    <flow id="61" begin="18.89" end="94.28" number="8">
        <route edges="120 120.180.00 -120 -120.180.00 -75 -75.121.42 -60"/>
    </flow>
    <flow id="85" begin="19.27" end="20.27" number="1">
        <route edges="45 -68 -43 -43.80.00 -27 -27.80.00 -3 -3.180.00 11 11.80.00 109 109.80.00 123 123.121.42"/>
    </flow>
    <flow id="25" begin="19.65" end="95.41" number="10">
        <route edges="-37.80.00 -23 -23.80.00 109 109.80.00 -109"/>
    </flow>
    <flow id="6" begin="20.03" end="77.08" number="2">
        <route edges="-123 -123.121.42 131 131.180.00"/>
    </flow>
    <flow id="94" begin="20.59" end="96.92" number="10">
        <route edges="68 -45 -45.80.00 -27 -27.80.00 -71 -55"/>
    </flow>
    <flow id="5" begin="22.10" end="23.10" number="1">
        <route edges="-120 -120.180.00 -64 -64.80.00 -31 -31.80.00 -23 -23.80.00 -11 -11.80.00 3 3.180.00 -71 -55 -55.80.00"/>
    </flow>
    <flow id="3" begin="23.81" end="60.08" number="2">
        <route edges="-11 -11.80.00 15 15.180.00 -123 -123.121.42 -120 -120.180.00"/>
    </flow>
    <flow id="80" begin="24.37" end="68.96" number="9">
        <route edges="31 31.80.00 -31 -31.80.00 -23 -23.80.00 -11 -11.80.00 3 3.180.00 27 27.80.00 -27"/>
    </flow>
    <flow id="35" begin="24.75" end="80.30" number="4">
        <route edges="-55 -55.80.00 -27 -27.80.00 -3 -3.180.00 15 15.180.00"/>
    </flow>
    <flow id="15" begin="25.32" end="95.22" number="11">
        <route edges="-15.180.00 11 11.80.00 23 23.80.00 31 31.80.00 64 64.80.00 120"/>
    </flow>
    <flow id="12" begin="26.26" end="92.58" number="3">
        <route edges="-148 -148.80.00 -131 -131.180.00 -109 -109.80.00 23 23.80.00 37 -58 -58.121.42"/>
    </flow>
    <flow id="17" begin="26.45" end="75.19" number="4">
        <route edges="-152.80.00 -131 -131.180.00 131"/>
    </flow>
    <flow id="16" begin="26.83" end="97.11" number="3">
        <route edges="-152.80.00 -131 -131.180.00 -109 -109.80.00 23 23.80.00 31 31.80.00 64 64.80.00"/>
    </flow>
    <flow id="55" begin="28.15" end="69.72" number="3">
        <route edges="109 109.80.00 -109 -109.80.00 -11 -11.80.00 3 3.180.00 27 27.80.00 43 68 -45"/>
    </flow>
    <flow id="7" begin="28.53" end="48.18" number="2">
        <route edges="-123.121.42 131"/>
    </flow>
    <flow id="57" begin="37.98" end="87.48" number="9">
        <route edges="11.80.00 23 23.80.00 31"/>
    </flow>
    <flow id="18" begin="38.16" end="65.37" number="4">
        <route edges="-27 -27.80.00 -3 -3.180.00 15 15.180.00 -144 -144.121.42 144 144.121.42"/>
    </flow>
    <flow id="69" begin="42.89" end="88.61" number="7">
        <route edges="15 15.180.00 -123 -123.121.42 -120 -120.180.00 -75 -75.121.42 75"/>
    </flow>
    <flow id="24" begin="43.45" end="44.45" number="1">
        <route edges="-37.80.00 -23 -23.80.00 -11 -11.80.00 15 15.180.00"/>
    </flow>
    <flow id="64" begin="43.83" end="44.83" number="1">
        <route edges="131 131.180.00 144 144.121.42 -15 -15.180.00 3 3.180.00 27 27.80.00 55 71"/>
    </flow>
    <flow id="1" begin="47.80" end="87.10" number="8">
        <route edges="-109.80.00 -11 -11.80.00 3 3.180.00 27 27.80.00 -27 -27.80.00"/>
    </flow>
    <flow id="30" begin="48.37" end="98.62" number="3">
        <route edges="-43.80.00 -27 -27.80.00 -71 -55 -55.80.00"/>
    </flow>
    <flow id="49" begin="51.77" end="74.82" number="2">
        <route edges="-79 -79.80.00 75 75.121.42 120 120.180.00 131 131.180.00 -131 -131.180.00"/>
    </flow>
    <flow id="41" begin="62.73" end="63.73" number="1">
        <route edges="-64 -64.80.00 64 64.80.00 120 120.180.00 123 123.121.42"/>
    </flow>
    <flow id="40" begin="64.99" end="89.74" number="3">
        <route edges="-64 -64.80.00 64 64.80.00 120 120.180.00 -120 -120.180.00"/>
    </flow>
    <flow id="74" begin="65.18" end="66.18" number="1">
        <route edges="27 27.80.00 -27 -27.80.00 -3 -3.180.00 11 11.80.00 23 23.80.00 31 31.80.00 64 64.80.00 -75"/>
    </flow>
    <flow id="81" begin="66.88" end="67.88" number="1">
        <route edges="31.80.00 58"/>
    </flow>
    <flow id="14" begin="69.53" end="96.17" number="2">
        <route edges="-15 -15.180.00 15 15.180.00"/>
    </flow>
    <flow id="73" begin="71.42" end="72.42" number="1">
        <route edges="27 27.80.00 -27 -27.80.00 -3 -3.180.00 11 11.80.00 109 109.80.00 131 131.180.00"/>
    </flow>
    <flow id="50" begin="74.44" end="98.43" number="2">
        <route edges="-79.80.00 -60 -60.80.00 -31 -31.80.00 -23 -23.80.00 -11 -11.80.00 3 3.180.00 27 27.80.00"/>
    </flow>
    <flow id="59" begin="85.40" end="86.40" number="1">
        <route edges="120 120.180.00 -109 -109.80.00 -11 -11.80.00 3 3.180.00 27 27.80.00 43 68 -45"/>
    </flow>
    <flow id="51" begin="86.34" end="87.34" number="1">
        <route edges="-79.80.00 75 75.121.42"/>
    </flow>
    <flow id="43" begin="89.93" end="90.93" number="1">
        <route edges="-71 -55 -55.80.00 -27 -27.80.00 -3 -3.180.00 11 11.80.00 23 23.80.00 31 31.80.00 58"/>
    </flow>
</routes>
