<?xml version="1.0" encoding="UTF-8"?>

<!-- generated on 30.03.2012 09:59:25 by Netedit Version dev-SVN-r11684
<?xml version="1.0" encoding="UTF-8"?>

<configuration xmlns:xsi="http://www.w3.org/2001/XMLSchema-instance" xsi:noNamespaceSchemaLocation="http://sumo.dlr.de/xsd/netedit.exeConfiguration.xsd">

    <input>
        <sumo-net-file value="J:\t1.net.xml"/>
    </input>

    <output>
        <output-file value="J:\t1.net.xml"/>
        <plain-output-prefix value="J:\t2"/>
    </output>

    <processing>
        <no-turnarounds value="true"/>
        <offset.disable-normalization value="true"/>
    </processing>

</configuration>
-->

<edges version="0.13" xmlns:xsi="http://www.w3.org/2001/XMLSchema-instance" xsi:noNamespaceSchemaLocation="http://sumo.dlr.de/xsd/edges_file.xsd">
    <edge id="10749214" from="21408973" to="21408975" priority="13" numLanes="2" speed="22.22" spreadType="center"/>
    <edge id="10749216" from="27736514" to="27736519" priority="13" numLanes="2" speed="22.22" shape="13298.60,21550.16 13357.11,21694.62 13418.64,21831.43" spreadType="center"/>
    <edge id="10749909" from="95740274" to="21408971" priority="13" numLanes="3" speed="33.33" spreadType="center"/>
    <edge id="10802650#0" from="21425445" to="21425443" priority="13" numLanes="2" speed="44.44" shape="14010.09,22792.54 13993.78,22751.57 13978.36,22718.98" spreadType="center"/>
    <edge id="10802650#1" from="21425443" to="21586775" priority="13" numLanes="2" speed="44.44" shape="13978.36,22718.98 13956.99,22672.98 13935.34,22631.84 13896.31,22565.80 13854.07,22502.34 13829.14,22465.30 13802.87,22428.12 13749.71,22354.03 13707.96,22298.64" spreadType="center"/>
    <edge id="10802652" from="21425448" to="21425445" priority="13" numLanes="2" speed="27.78" shape="14115.53,23126.66 14102.98,23072.50 14088.16,23018.99 14071.85,22962.11 14059.37,22922.74 14053.50,22904.11 14046.22,22885.14 14038.17,22861.79 14029.18,22838.54 14010.09,22792.54" spreadType="center"/>
    <edge id="134605344#0" from="28497546" to="30430105" priority="12" numLanes="1" speed="22.22" spreadType="center"/>
    <edge id="134605344#1" from="30430105" to="30430112" priority="12" numLanes="1" speed="22.22" spreadType="center"/>
    <edge id="134605344#2" from="30430112" to="27748225" priority="12" numLanes="1" speed="22.22" spreadType="center"/>
    <edge id="149600933" from="1461605576" to="1461605567" priority="12" numLanes="1" speed="22.22" spreadType="center"/>
    <edge id="149600934" from="1461605567" to="1461605575" priority="12" numLanes="1" speed="22.22" spreadType="center"/>
    <edge id="18361868" from="30430112" to="30430106" priority="12" numLanes="1" speed="22.22" shape="13708.84,22235.81 13728.49,22229.70 13744.01,22222.00 13763.61,22208.39 13774.39,22189.01 13773.63,22162.67 13767.09,22148.08 13756.94,22135.30 13745.27,22127.67 13729.24,22123.16 13718.00,22122.73 13703.28,22125.52 13687.81,22131.91 13675.11,22144.88 13664.49,22164.96 13666.25,22190.24 13673.87,22206.46 13682.69,22223.96" spreadType="center"/>
    <edge id="18361871" from="28497551" to="28497546" priority="12" numLanes="1" speed="22.22" shape="13186.86,22421.42 13271.83,22379.64 13368.35,22342.11" spreadType="center"/>
    <edge id="18361874" from="21586765" to="561057384" priority="12" numLanes="1" speed="22.22" shape="14545.25,22166.25 14525.36,22170.25 14350.14,22178.10" spreadType="center"/>
    <edge id="18361875" from="21586769" to="259172362" priority="12" numLanes="1" speed="11.11" shape="13685.35,22282.51 13666.57,22291.03 13634.93,22303.57 13617.72,22319.43 13609.74,22336.77 13607.53,22353.13 13608.90,22362.52 13610.40,22369.60 13613.68,22376.88 13617.29,22383.20 13622.23,22388.57 13627.49,22393.22 13633.34,22397.11 13639.05,22399.84 13646.70,22402.52 13654.90,22403.79 13661.78,22404.03 13668.57,22403.43 13672.98,22402.52 13676.52,22401.07 13681.37,22399.53 13686.44,22396.65 13692.91,22392.46 13699.10,22386.28 13704.34,22379.91 13708.91,22372.29 13711.33,22365.42 13712.60,22357.53 13712.46,22348.28 13710.83,22338.92 13706.76,22327.51 13693.75,22302.79" spreadType="center"/>
    <edge id="18361876" from="259172363" to="30430105" priority="12" numLanes="1" speed="22.22" shape="13646.67,22239.05 13613.36,22194.46 13599.05,22178.51 13584.00,22170.31 13561.09,22166.01 13542.02,22168.08 13527.94,22175.45 13518.02,22186.79 13509.87,22201.80 13509.50,22223.85 13512.26,22236.45 13517.98,22244.42 13529.30,22258.68 13547.85,22268.93 13567.40,22272.43 13600.98,22265.05" spreadType="center"/>
    <edge id="18361877" from="61868101" to="61868145" priority="12" numLanes="1" speed="22.22" shape="13839.67,22503.03 13818.37,22474.35 13805.60,22457.57 13794.34,22444.32 13785.21,22435.64 13774.62,22427.02 13765.19,22421.59 13754.77,22417.01 13748.37,22415.31 13741.39,22414.10 13729.51,22413.46 13716.01,22414.36 13702.77,22416.64 13687.52,22419.16 13678.49,22420.85 13668.76,22421.38 13655.45,22420.69 13645.66,22417.99 13634.37,22413.91 13622.85,22406.86 13609.58,22395.96 13597.49,22382.35 13586.83,22367.15 13577.20,22358.82 13565.21,22349.04 13543.24,22342.41 13534.74,22341.18 13524.91,22340.36 13515.43,22341.02 13462.89,22354.32 13434.67,22361.12" spreadType="center"/>
    <edge id="18361878#0" from="21425443" to="61868101" priority="12" numLanes="1" speed="22.22" shape="13978.36,22718.98 13956.69,22686.84 13931.35,22641.90 13903.42,22597.48 13839.67,22503.03" spreadType="center"/>
    <edge id="18361878#1" from="61868101" to="21586774" priority="12" numLanes="1" speed="22.22" spreadType="center"/>
    <edge id="18361879" from="30430113" to="30430120" priority="12" numLanes="1" speed="11.11" shape="13744.50,22307.67 13776.76,22346.92 13787.86,22356.03 13798.09,22361.29 13806.72,22363.92 13814.38,22365.24 13824.72,22365.20 13834.63,22362.67 13842.96,22359.58 13854.83,22351.31 13859.34,22346.54 13864.38,22339.33 13867.84,22331.56 13870.57,22323.20 13872.03,22315.17 13872.16,22307.23 13870.71,22298.15 13868.20,22288.62 13857.37,22274.38 13845.81,22264.09 13828.14,22258.09 13804.77,22258.41 13754.68,22269.19 13733.55,22271.09" spreadType="center"/>
    <edge id="18361881" from="27748192" to="27748225" priority="12" numLanes="1" speed="16.67" shape="13560.64,22054.29 13591.89,22090.82 13614.72,22108.10 13629.77,22113.31 13642.71,22116.41 13658.50,22116.36 13681.43,22112.26 13704.74,22108.43 13724.99,22108.61 13746.91,22114.67 13763.92,22125.88 13777.68,22139.60 13794.76,22162.14 13812.81,22179.39 13827.53,22188.37 13848.10,22193.85 13872.20,22195.01 13948.23,22183.54" spreadType="center"/>
    <edge id="18361882" from="291207546" to="189269512" priority="12" numLanes="1" speed="22.22" shape="14176.70,22195.87 14050.62,22213.38 14007.34,22223.73 13978.75,22233.48 13954.31,22247.57 13930.65,22266.11 13912.04,22284.92 13899.18,22302.25 13888.55,22319.65 13883.02,22332.05 13878.08,22344.60 13875.05,22354.03 13872.29,22364.80 13869.16,22380.39 13867.16,22395.82 13866.71,22408.98 13867.77,22422.76 13869.24,22440.16 13872.37,22457.72 13876.43,22470.79 13881.54,22483.16 13890.13,22502.39 13900.55,22522.76 13922.47,22563.40" spreadType="center"/>
    <edge id="23911027" from="259172361" to="259172360" priority="12" numLanes="1" speed="22.22" spreadType="center"/>
    <edge id="23911028" from="259172360" to="30430113" priority="12" numLanes="1" speed="22.22" spreadType="center"/>
    <edge id="23911029" from="259172362" to="259172363" priority="12" numLanes="1" speed="22.22" spreadType="center"/>
    <edge id="23911030" from="259172363" to="988738874" priority="12" numLanes="1" speed="22.22" shape="13646.67,22239.05 13617.41,22193.71 13532.14,22072.81 13506.13,22033.52" spreadType="center"/>
    <edge id="25087004#0" from="273022912" to="21586765" priority="13" numLanes="3" speed="44.44" shape="14872.94,22169.00 14811.38,22169.24 14651.70,22166.71 14545.25,22166.25" spreadType="center"/>
    <edge id="25087004#1" from="21586765" to="275064874" priority="13" numLanes="3" speed="44.44" shape="14545.25,22166.25 14417.28,22168.68 14351.75,22170.18" spreadType="center"/>
    <edge id="25115618" from="21586756" to="273450055" priority="13" numLanes="3" speed="44.44" spreadType="center"/>
    <edge id="25228270#0" from="273450055" to="1461605575" priority="13" numLanes="3" speed="44.44" spreadType="center"/>
    <edge id="25228270#1" from="1461605575" to="273022924" priority="13" numLanes="3" speed="44.44" shape="14394.34,22132.65 14514.40,22128.54 14732.74,22134.68 14879.78,22144.20" spreadType="center"/>
    <edge id="25228289" from="275064874" to="273450056" priority="13" numLanes="3" speed="44.44" spreadType="center"/>
    <edge id="25228290" from="273450056" to="30027415" priority="13" numLanes="3" speed="44.44" shape="14255.26,22176.90 14172.29,22186.07 14084.44,22197.40 13979.66,22212.85 13863.89,22234.47 13748.37,22258.71 13635.86,22287.17 13515.69,22325.43 13358.73,22379.32 13197.44,22440.01" spreadType="center"/>
    <edge id="26564068" from="28497546" to="988738860" priority="12" numLanes="1" speed="22.22" shape="13368.35,22342.11 13445.09,22309.85 13457.85,22302.20 13465.06,22293.73 13471.72,22283.80 13476.55,22275.79 13480.43,22268.71 13483.36,22260.10 13490.02,22234.00 13513.12,22133.43 13519.37,22099.46 13517.47,22082.90 13510.78,22060.75 13503.11,22036.60" spreadType="center"/>
    <edge id="28934967" from="27736541" to="27587356" priority="13" numLanes="2" speed="44.44" shape="14024.83,22788.64 14043.58,22834.54 14053.72,22861.09 14061.70,22884.58 14074.03,22923.17 14085.17,22960.83 14096.09,22997.81 14105.96,23033.63 14127.16,23124.81" spreadType="center"/>
    <edge id="29174494#1" from="30430120" to="21586769" priority="12" numLanes="1" speed="22.22" spreadType="center"/>
    <edge id="30145370" from="27748225" to="1461605576" priority="12" numLanes="1" speed="22.22" shape="13948.23,22183.54 14101.51,22152.91 14257.47,22134.61" spreadType="center"/>
    <edge id="30145380#0" from="27748192" to="30430106" priority="12" numLanes="1" speed="22.22" spreadType="center"/>
    <edge id="30145380#1" from="30430106" to="259172361" priority="12" numLanes="1" speed="22.22" spreadType="center"/>
    <edge id="30145382" from="27736519" to="988660266" priority="13" numLanes="2" speed="22.22" shape="13418.64,21831.43 13461.65,21918.33 13495.30,21976.20" spreadType="center"/>
    <edge id="30996897" from="30430113" to="189269512" priority="12" numLanes="1" speed="22.22" shape="13744.50,22307.67 13859.33,22468.94 13922.47,22563.40" spreadType="center"/>
    <edge id="30997791" from="189269512" to="27736534" priority="12" numLanes="1" speed="22.22" shape="13922.47,22563.40 13950.74,22612.73 13975.19,22661.71 14009.82,22738.61 14022.84,22783.56" spreadType="center"/>
    <edge id="30997944" from="21586774" to="259172362" priority="12" numLanes="1" speed="22.22" spreadType="center"/>
    <edge id="30997945#0" from="21586769" to="61868145" priority="12" numLanes="1" speed="22.22" shape="13685.35,22282.51 13556.85,22320.98 13434.67,22361.12" spreadType="center"/>
    <edge id="30997945#1" from="61868145" to="30027415" priority="12" numLanes="1" speed="22.22" shape="13434.67,22361.12 13331.16,22399.68 13294.42,22412.46 13254.90,22424.01 13197.44,22440.01" spreadType="center"/>
    <edge id="43155637" from="30027415" to="951533827" priority="13" numLanes="3" speed="44.44" shape="13197.44,22440.01 13129.58,22464.93 12974.42,22519.23" spreadType="center"/>
    <edge id="43155831#0" from="21408971" to="28497551" priority="13" numLanes="3" speed="44.44" spreadType="center"/>
    <edge id="43155831#1" from="28497551" to="21586756" priority="13" numLanes="3" speed="44.44" shape="13186.86,22421.42 13346.15,22362.14 13508.48,22306.31 13631.91,22269.15 13741.34,22240.40 13858.77,22215.65 14077.06,22170.96 14235.29,22144.84 14257.92,22141.73" spreadType="center"/>
    <edge id="44166443" from="561057383" to="291207546" priority="12" numLanes="1" speed="22.22" spreadType="center"/>
    <edge id="44166444" from="561057384" to="561057383" priority="12" numLanes="1" speed="22.22" spreadType="center"/>
    <edge id="4526776" from="21425441" to="988738890" priority="13" numLanes="2" speed="22.22" shape="13660.54,22234.78 13586.24,22131.11 13514.27,22025.17" spreadType="center"/>
    <edge id="4705756" from="27736519" to="988660262" priority="12" numLanes="1" speed="22.22" shape="13418.64,21831.43 13469.44,21912.31 13504.55,21967.59" spreadType="center"/>
    <edge id="4829963" from="27736526" to="27736534" priority="13" numLanes="2" speed="44.44" shape="13719.06,22296.17 13758.33,22348.40 13813.48,22424.01 13839.91,22461.03 13864.98,22497.89 13906.40,22562.02 13945.80,22627.28 13969.39,22671.07 13992.79,22718.67 14007.76,22751.31 14022.84,22783.56" spreadType="center"/>
    <edge id="4829964" from="27736524" to="27736526" priority="13" numLanes="2" speed="22.22" spreadType="center"/>
    <edge id="4829966" from="21586775" to="21425441" priority="13" numLanes="2" speed="22.22" spreadType="center"/>
    <edge id="52711912" from="27736534" to="27736541" priority="13" numLanes="2" speed="44.44" spreadType="center"/>
    <edge id="81646004" from="951533827" to="95740320" priority="13" numLanes="3" speed="33.33" spreadType="center"/>
    <edge id="85256598" from="988660275" to="27736524" priority="13" numLanes="2" speed="22.22" spreadType="center"/>
    <edge id="85256599" from="27748178" to="27748192" priority="12" numLanes="1" speed="22.22" spreadType="center"/>
    <edge id="85256600" from="988660266" to="988660275" priority="13" numLanes="2" speed="22.22" spreadType="center"/>
    <edge id="85256601" from="988660262" to="27748178" priority="12" numLanes="1" speed="22.22" spreadType="center"/>
    <edge id="85268167" from="988738880" to="21408973" priority="13" numLanes="2" speed="22.22" shape="13488.45,21984.43 13453.12,21923.08 13416.51,21850.42 13354.48,21721.25" spreadType="center"/>
    <edge id="85268170" from="988738882" to="21408973" priority="12" numLanes="1" speed="22.22" shape="13480.02,21994.21 13444.23,21928.86 13404.88,21855.88 13360.85,21747.30 13354.48,21721.25" spreadType="center"/>
    <edge id="85268171" from="988738860" to="988738882" priority="12" numLanes="1" speed="22.22" spreadType="center"/>
    <edge id="85268178" from="988738874" to="988738882" priority="12" numLanes="1" speed="22.22" spreadType="center"/>
    <edge id="85268180" from="988738890" to="988738880" priority="13" numLanes="2" speed="22.22" spreadType="center"/>
</edges>
