<?xml version="1.0" encoding="UTF-8"?>

<!-- generated on Thu 18 Feb 2016 01:26:12 PM CET by Netedit Version dev-SVN-r20012
<?xml version="1.0" encoding="UTF-8"?>

<configuration xmlns:xsi="http://www.w3.org/2001/XMLSchema-instance" xsi:noNamespaceSchemaLocation="http://sumo.dlr.de/xsd/netedit.exeConfiguration.xsd">

    <output>
        <output-file value="net.net.xml"/>
    </output>

    <processing>
        <no-turnarounds value="true"/>
        <offset.disable-normalization value="true"/>
    </processing>

</configuration>
-->

<net version="0.25" xmlns:xsi="http://www.w3.org/2001/XMLSchema-instance" xsi:noNamespaceSchemaLocation="http://sumo.dlr.de/xsd/net_file.xsd">

    <location netOffset="0.00,0.00" convBoundary="0.00,0.00,400.00,0.00" origBoundary="10000000000.00,10000000000.00,-10000000000.00,-10000000000.00" projParameter="!"/>

    <edge id=":gneJ1_0" function="internal">
        <lane id=":gneJ1_0_0" index="0" speed="13.89" length="3.42" shape="198.50,-1.65 201.50,0.00"/>
        <lane id=":gneJ1_0_1" index="1" speed="13.89" length="3.42" shape="198.50,1.65 201.50,0.00"/>
    </edge>

    <edge id="beg" from="gneJ0" to="gneJ1" priority="1" spreadType="center">
        <lane id="beg_0" index="0" speed="13.89" length="198.50" shape="0.00,-1.65 198.50,-1.65"/>
        <lane id="beg_1" index="1" speed="13.89" length="198.50" shape="0.00,1.65 198.50,1.65"/>
    </edge>
    <edge id="end" from="gneJ1" to="gneJ2" priority="1" spreadType="center">
        <lane id="end_0" index="0" speed="13.89" length="198.50" shape="201.50,0.00 400.00,0.00"/>
    </edge>

    <junction id="gneJ0" type="unregulated" x="0.00" y="0.00" incLanes="" intLanes="" shape="0.00,3.25 0.00,-3.25"/>
    <junction id="gneJ1" type="priority" x="200.00" y="0.00" incLanes="beg_0 beg_1" intLanes=":gneJ1_0_0 :gneJ1_0_1" shape="201.50,1.60 201.50,-1.60 198.50,-3.25 198.50,3.25">
        <request index="0" response="10" foes="10" cont="0"/>
        <request index="1" response="00" foes="01" cont="0"/>
    </junction>
    <junction id="gneJ2" type="unregulated" x="400.00" y="0.00" incLanes="end_0" intLanes="" shape="400.00,-1.60 400.00,1.60"/>

    <connection from="beg" to="end" fromLane="0" toLane="0" via=":gneJ1_0_0" dir="s" state="m"/>
    <connection from="beg" to="end" fromLane="1" toLane="0" pass="1" via=":gneJ1_0_1" dir="s" state="M"/>

    <connection from=":gneJ1_0" to="end" fromLane="0" toLane="0" dir="s" state="M"/>
    <connection from=":gneJ1_0" to="end" fromLane="1" toLane="0" dir="s" state="M"/>

</net>
