<?xml version="1.0" encoding="UTF-8"?>

<!-- generated on 2022-08-17 10:42:39.477484 by generateRailSignalConstraints.py v1_14_1+0356-36c854e
<configuration>
    <additional-file value="input_additional.add.xml"/>
    <debug-stop value="stop_b"/>
    <net-file value="net.net.xml"/>
    <output-file value="out.add.xml"/>
    <route-file value="input_routes.rou.xml"/>
    <verbose value="True"/>
</configuration>
-->

<additional xmlns:xsi="http://www.w3.org/2001/XMLSchema-instance" xsi:noNamespaceSchemaLocation="http://sumo.dlr.de/xsd/additional_file.xsd">
</additional>
