<?xml version="1.0" encoding="UTF-8"?>

<!-- generated on Mon 05 Dec 2011 01:12:14 PM CET by Netedit Version dev-SVN-r11577
<?xml version="1.0" encoding="UTF-8"?>

<configuration xmlns:xsi="http://www.w3.org/2001/XMLSchema-instance" xsi:noNamespaceSchemaLocation="http://sumo.dlr.de/xsd/netedit.exeConfiguration.xsd">

    <output>
        <output-file value="/home/erdm_ja/debug/height_glitch/debug.net.xml"/>
        <plain-output-prefix value="/home/erdm_ja/debug/height_glitch/debug"/>
    </output>

    <processing>
        <no-turnarounds value="true"/>
        <offset.disable-normalization value="true"/>
    </processing>

</configuration>
-->

<edges version="0.13" xmlns:xsi="http://www.w3.org/2001/XMLSchema-instance" xsi:noNamespaceSchemaLocation="http://sumo.dlr.de/xsd/edges_file.xsd">
    <edge id="gneE0" from="gneJ0" to="gneJ1" priority="1" numLanes="1" speed="13.89"/>
</edges>
