<?xml version="1.0" encoding="UTF-8"?>

<!-- generated on 2025-03-21 14:32:11.605496 by remap_additionals.py v1_22_0+0949-21d826508cc
<configuration>
    <orig-net value="net.net.xml"/>
    <target-net value="net2.net.xml"/>
    <additional-file value="input_additional.add.xml"/>
    <output-file value="out.add.xml"/>
</configuration>
-->

<additional xmlns:xsi="http://www.w3.org/2001/XMLSchema-instance" xsi:noNamespaceSchemaLocation="http://sumo.dlr.de/xsd/additional_file.xsd">
    <busStop id="bs_0" lane="E1_0" startPos="49.255951274362786" endPos="59.255951274362786" friendlyPos="True"/>
</additional>
