<?xml version="1.0" encoding="UTF-8"?>

<!-- generated on 2026-01-18 18:18:49.162571 by Eclipse SUMO remap_additionals.py v1_25_0+1060-c70c1fb2925
<configuration>
    <orig-net value="net.net.xml"/>
    <target-net value="net2.net.xml"/>
    <additional-file value="input_additional.add.xml"/>
    <output-file value="out.add.xml"/>
</configuration>
-->

<additional xmlns:xsi="http://www.w3.org/2001/XMLSchema-instance" xsi:noNamespaceSchemaLocation="http://sumo.dlr.de/xsd/additional_file.xsd">
    <busStop id="bs_0" lane="E1_0" startPos="49.26" endPos="59.26" friendlyPos="True"/>
</additional>
