<?xml version="1.0" encoding="UTF-8"?>

<!-- generated on 2025-03-21 14:19:13.493202 by remap_additionals.py v1_22_0+0948-593e1cccb9d
<configuration>
    <orig-net value="net.net.xml"/>
    <target-net value="net2.net.xml"/>
    <additional-file value="input_additional.add.xml"/>
    <output-file value="out.add.xml"/>
</configuration>
-->

<additional xmlns:xsi="http://www.w3.org/2001/XMLSchema-instance" xsi:noNamespaceSchemaLocation="http://sumo.dlr.de/xsd/additional_file.xsd">
    <busStop id="bs_0" lane="E0_0" startPos="45.77544251241741" endPos="55.77544251241741" friendlyPos="True"/>
</additional>
