<?xml version="1.0" encoding="UTF-8"?>

<!-- generated on 2025-03-06 15:49:35 by Eclipse SUMO netedit Version 1.22.0
-->

<additional xmlns:xsi="http://www.w3.org/2001/XMLSchema-instance" xsi:noNamespaceSchemaLocation="http://sumo.dlr.de/xsd/additional_file.xsd">
    <busStop id="bs_0" lane="E1_0" startPos="50" endPos="60"/>
</additional>
