<?xml version="1.0"?>

<!-- generated on 02/13/12 15:05:27 by SUMO sumo Version dev-SVN-r11881
<?xml version="1.0" encoding="UTF-8"?>

<configuration xmlns:xsi="http://www.w3.org/2001/XMLSchema-instance" xsi:noNamespaceSchemaLocation="http://sumo.sf.net/xsd/sumoConfiguration.xsd">

    <input>
        <net-file value="net.net.xml"/>
        <additional-files value="input_routes.rou.xml,input_additional.add.xml"/>
    </input>

    <time>
        <begin value="0"/>
        <end value="150"/>
    </time>

    <report>
        <no-duration-log value="true"/>
        <no-step-log value="true"/>
    </report>

</configuration>
-->

<netstats>
    <interval begin="0.00" end="15.00" id="dump_15">
        <edge id="beg" sampledSeconds="14.00" traveltime="34.09" density="1.87" occupancy="0.94" waitingTime="0.00" speed="14.63" departed="1" arrived="0" entered="0" left="0" laneChangedFrom="0" laneChangedTo="0"/>
    </interval>
    <interval begin="0.00" end="15.00" id="dump_15_internal">
        <edge id="beg" sampledSeconds="14.00" traveltime="34.09" density="1.87" occupancy="0.94" waitingTime="0.00" speed="14.63" departed="1" arrived="0" entered="0" left="0" laneChangedFrom="0" laneChangedTo="0"/>
    </interval>
    <interval begin="15.00" end="30.00" id="dump_15">
        <edge id="beg" sampledSeconds="12.12" traveltime="20.58" density="1.62" occupancy="0.81" waitingTime="0.00" speed="24.23" departed="0" arrived="0" entered="0" left="1" laneChangedFrom="0" laneChangedTo="0"/>
        <edge id="middle" sampledSeconds="2.78" traveltime="75.41" density="0.19" occupancy="0.09" waitingTime="0.00" speed="13.14" departed="0" arrived="0" entered="1" left="0" laneChangedFrom="0" laneChangedTo="0"/>
    </interval>
    <interval begin="15.00" end="30.00" id="dump_15_internal">
        <edge id=":beg_0" sampledSeconds="0.88" traveltime="0.49" density="9.43" occupancy="4.71" waitingTime="0.00" speed="12.77" departed="0" arrived="0" entered="1" left="1" laneChangedFrom="0" laneChangedTo="0"/>
        <edge id="beg" sampledSeconds="12.12" traveltime="20.58" density="1.62" occupancy="0.81" waitingTime="0.00" speed="24.23" departed="0" arrived="0" entered="0" left="1" laneChangedFrom="0" laneChangedTo="0"/>
        <edge id="middle" sampledSeconds="2.78" traveltime="75.41" density="0.19" occupancy="0.09" waitingTime="0.00" speed="13.14" departed="0" arrived="0" entered="1" left="0" laneChangedFrom="0" laneChangedTo="0"/>
    </interval>
    <interval begin="30.00" end="45.00" id="dump_15">
        <edge id="middle" sampledSeconds="15.00" traveltime="73.84" density="1.01" occupancy="0.50" waitingTime="0.00" speed="13.41" departed="0" arrived="0" entered="0" left="0" laneChangedFrom="0" laneChangedTo="0"/>
    </interval>
    <interval begin="30.00" end="45.00" id="dump_15_internal">
        <edge id="middle" sampledSeconds="15.00" traveltime="73.84" density="1.01" occupancy="0.50" waitingTime="0.00" speed="13.41" departed="0" arrived="0" entered="0" left="0" laneChangedFrom="0" laneChangedTo="0"/>
    </interval>
    <interval begin="45.00" end="60.00" id="dump_15">
        <edge id="middle" sampledSeconds="15.00" traveltime="75.00" density="1.01" occupancy="0.50" waitingTime="0.00" speed="13.21" departed="0" arrived="0" entered="0" left="0" laneChangedFrom="0" laneChangedTo="0"/>
    </interval>
    <interval begin="45.00" end="60.00" id="dump_15_internal">
        <edge id="middle" sampledSeconds="15.00" traveltime="75.00" density="1.01" occupancy="0.50" waitingTime="0.00" speed="13.21" departed="0" arrived="0" entered="0" left="0" laneChangedFrom="0" laneChangedTo="0"/>
    </interval>
    <interval begin="60.00" end="75.00" id="dump_15">
        <edge id="middle" sampledSeconds="15.00" traveltime="74.15" density="1.01" occupancy="0.50" waitingTime="0.00" speed="13.36" departed="0" arrived="0" entered="0" left="0" laneChangedFrom="0" laneChangedTo="0"/>
    </interval>
    <interval begin="60.00" end="75.00" id="dump_15_internal">
        <edge id="middle" sampledSeconds="15.00" traveltime="74.15" density="1.01" occupancy="0.50" waitingTime="0.00" speed="13.36" departed="0" arrived="0" entered="0" left="0" laneChangedFrom="0" laneChangedTo="0"/>
    </interval>
    <interval begin="75.00" end="90.00" id="dump_15">
        <edge id="middle" sampledSeconds="15.00" traveltime="74.09" density="1.01" occupancy="0.50" waitingTime="0.00" speed="13.37" departed="0" arrived="0" entered="0" left="0" laneChangedFrom="0" laneChangedTo="0"/>
    </interval>
    <interval begin="75.00" end="90.00" id="dump_15_internal">
        <edge id="middle" sampledSeconds="15.00" traveltime="74.09" density="1.01" occupancy="0.50" waitingTime="0.00" speed="13.37" departed="0" arrived="0" entered="0" left="0" laneChangedFrom="0" laneChangedTo="0"/>
    </interval>
    <interval begin="90.00" end="105.00" id="dump_15">
        <edge id="end" sampledSeconds="0.04" traveltime="76.98" density="0.01" occupancy="0.00" waitingTime="0.00" speed="6.48" departed="0" arrived="0" entered="1" left="0" laneChangedFrom="0" laneChangedTo="0"/>
        <edge id="middle" sampledSeconds="14.78" traveltime="92.22" density="0.99" occupancy="0.50" waitingTime="0.00" speed="10.74" departed="0" arrived="0" entered="0" left="1" laneChangedFrom="0" laneChangedTo="0"/>
    </interval>
    <interval begin="90.00" end="105.00" id="dump_15_internal">
        <edge id=":end_1" sampledSeconds="0.99" traveltime="0.96" density="10.70" occupancy="5.35" waitingTime="0.00" speed="6.48" departed="0" arrived="0" entered="1" left="1" laneChangedFrom="0" laneChangedTo="0"/>
        <edge id="end" sampledSeconds="0.04" traveltime="76.98" density="0.01" occupancy="0.00" waitingTime="0.00" speed="6.48" departed="0" arrived="0" entered="1" left="0" laneChangedFrom="0" laneChangedTo="0"/>
        <edge id="middle" sampledSeconds="14.78" traveltime="92.22" density="0.99" occupancy="0.50" waitingTime="0.00" speed="10.74" departed="0" arrived="0" entered="0" left="1" laneChangedFrom="0" laneChangedTo="0"/>
    </interval>
    <interval begin="105.00" end="120.00" id="dump_15">
        <edge id="end" sampledSeconds="15.00" traveltime="24.41" density="2.01" occupancy="1.00" waitingTime="0.00" speed="20.43" departed="0" arrived="0" entered="0" left="0" laneChangedFrom="0" laneChangedTo="0"/>
    </interval>
    <interval begin="105.00" end="120.00" id="dump_15_internal">
        <edge id=":end_1" sampledSeconds="0.61" traveltime="0.79" density="6.55" occupancy="3.27" waitingTime="0.00" speed="7.81" departed="0" arrived="0" entered="0" left="0" laneChangedFrom="0" laneChangedTo="0"/>
        <edge id="end" sampledSeconds="15.00" traveltime="24.41" density="2.01" occupancy="1.00" waitingTime="0.00" speed="20.43" departed="0" arrived="0" entered="0" left="0" laneChangedFrom="0" laneChangedTo="0"/>
    </interval>
    <interval begin="120.00" end="135.00" id="dump_15">
        <edge id="end" sampledSeconds="7.26" traveltime="18.39" density="0.97" occupancy="0.49" waitingTime="0.00" speed="27.12" departed="0" arrived="0" entered="0" left="1" laneChangedFrom="0" laneChangedTo="0"/>
        <edge id="rend" sampledSeconds="7.92" traveltime="18.39" density="1.06" occupancy="0.53" waitingTime="0.00" speed="27.19" departed="0" arrived="0" entered="1" left="0" laneChangedFrom="0" laneChangedTo="0"/>
    </interval>
    <interval begin="120.00" end="135.00" id="dump_15_internal">
        <edge id=":absEnd_0" sampledSeconds="0.18" traveltime="0.00" density="123.19" occupancy="61.59" waitingTime="0.00" speed="27.60" departed="0" arrived="0" entered="1" left="1" laneChangedFrom="0" laneChangedTo="0"/>
        <edge id="end" sampledSeconds="7.26" traveltime="18.39" density="0.97" occupancy="0.49" waitingTime="0.00" speed="27.12" departed="0" arrived="0" entered="0" left="1" laneChangedFrom="0" laneChangedTo="0"/>
        <edge id="rend" sampledSeconds="7.92" traveltime="18.39" density="1.06" occupancy="0.53" waitingTime="0.00" speed="27.19" departed="0" arrived="0" entered="1" left="0" laneChangedFrom="0" laneChangedTo="0"/>
    </interval>
    <interval begin="135.00" end="150.00" id="dump_15">
        <edge id="rend" sampledSeconds="10.73" traveltime="18.51" density="1.43" occupancy="0.72" waitingTime="0.00" speed="27.01" departed="0" arrived="0" entered="0" left="0" laneChangedFrom="0" laneChangedTo="0"/>
    </interval>
    <interval begin="135.00" end="150.00" id="dump_15_internal">
        <edge id="rend" sampledSeconds="10.73" traveltime="18.51" density="1.43" occupancy="0.72" waitingTime="0.00" speed="27.01" departed="0" arrived="0" entered="0" left="0" laneChangedFrom="0" laneChangedTo="0"/>
    </interval>
</netstats>
