<?xml version="1.0" encoding="UTF-8"?>

<!-- generated on 2022-03-29 11:20:22 by Eclipse SUMO netedit Version v1_12_0+1734-39f2c625d5b
-->

<routes xmlns:xsi="http://www.w3.org/2001/XMLSchema-instance" xsi:noNamespaceSchemaLocation="http://sumo.dlr.de/xsd/routes_file.xsd">
</routes>
