<?xml version="1.0"?>

<!-- generated on 07/14/08 09:20:29 by SUMO duarouter Version 0.9.7
<configuration>

   <input>
      <net-file>input_net.net.xml</net-file>
      <sumo-input>input_routes.rou.xml</sumo-input>
   </input>

   <output>
      <output-file>routes.rou.xml</output-file>
   </output>

</configuration>
-->

<routes>
   <vehicle id="0" type="0" depart="0">
      <route edges="beg middle end rend"/>
   </vehicle>
   <vehicle id="10" type="0" depart="10" color="0.00,0.00,0.00">
      <route edges="beg middle end rend"/>
   </vehicle>
   <vehicle id="11" type="0" depart="11" color="1.00,0.00,1.00">
      <route edges="beg middle end rend"/>
   </vehicle>
   <vehicle id="20" type="0" depart="20" departpos="0.00">
      <route edges="beg middle end rend"/>
   </vehicle>
   <vehicle id="21" type="0" depart="21" departpos="10.00">
      <route edges="beg middle end rend"/>
   </vehicle>
   <vehicle id="22" type="0" depart="22" departpos="free">
      <route edges="beg middle end rend"/>
   </vehicle>
   <vehicle id="23" type="0" depart="23" departpos="random">
      <route edges="beg middle end rend"/>
   </vehicle>
   <vehicle id="30" type="0" depart="30" departlane="0">
      <route edges="beg middle end rend"/>
   </vehicle>
   <vehicle id="31" type="0" depart="31" departlane="1">
      <route edges="beg middle end rend"/>
   </vehicle>
   <vehicle id="32" type="0" depart="32" departlane="random">
      <route edges="beg middle end rend"/>
   </vehicle>
   <vehicle id="33" type="0" depart="33" departlane="free">
      <route edges="beg middle end rend"/>
   </vehicle>
   <vehicle id="34" type="0" depart="34" departlane="departlane">
      <route edges="beg middle end rend"/>
   </vehicle>
   <vehicle id="40" type="0" depart="40" departspeed="0.00">
      <route edges="beg middle end rend"/>
   </vehicle>
   <vehicle id="41" type="0" depart="41" departspeed="1.00">
      <route edges="beg middle end rend"/>
   </vehicle>
   <vehicle id="42" type="0" depart="42" departspeed="max">
      <route edges="beg middle end rend"/>
   </vehicle>
   <vehicle id="43" type="0" depart="43" departspeed="random">
      <route edges="beg middle end rend"/>
   </vehicle>
   <vehicle id="50" type="0" depart="50" repno="0" period="0">
      <route edges="beg middle end rend"/>
   </vehicle>
   <vehicle id="51" type="0" depart="51" repno="1" period="1">
      <route edges="beg middle end rend"/>
   </vehicle>
</routes>
