<?xml version="1.0" encoding="UTF-8"?>

<!-- generated on Mon Feb 17 15:31:02 2020 by Eclipse SUMO netconvert Version v1_5_0+0130-ceb0a01
This data file and the accompanying materials
are made available under the terms of the Eclipse Public License v2.0
which accompanies this distribution, and is available at
http://www.eclipse.org/legal/epl-v20.html
SPDX-License-Identifier: EPL-2.0
<configuration xmlns:xsi="http://www.w3.org/2001/XMLSchema-instance" xsi:noNamespaceSchemaLocation="http://sumo.dlr.de/xsd/netconvertConfiguration.xsd">

    <input>
        <node-files value="input_nodes.nod.xml"/>
        <edge-files value="input_edges.edg.xml"/>
    </input>

    <output>
        <write-license value="true"/>
    </output>

    <tls_building>
        <tls.guess value="true"/>
    </tls_building>

    <report>
        <verbose value="true"/>
        <xml-validation value="never"/>
        <aggregate-warnings value="5"/>
    </report>

</configuration>
-->

<net version="1.6" junctionCornerDetail="5" limitTurnSpeed="5.50" xmlns:xsi="http://www.w3.org/2001/XMLSchema-instance" xsi:noNamespaceSchemaLocation="http://sumo.dlr.de/xsd/net_file.xsd">

    <location netOffset="-14540.75,-27867.00" convBoundary="0.00,0.00,226.38,266.00" origBoundary="14540.75,27867.00,14767.13,28133.00" projParameter="!"/>

    <edge id=":n1_0" function="internal">
        <lane id=":n1_0_0" index="0" speed="3.65" length="4.67" shape="0.76,267.41 -0.68,267.27 -1.41,266.76 -1.44,265.86 -0.76,264.59"/>
    </edge>
    <edge id=":n11_0" function="internal">
        <lane id=":n11_0_0" index="0" speed="3.65" length="4.67" shape="63.54,0.49 63.93,-0.90 64.57,-1.52 65.45,-1.39 66.58,-0.49"/>
    </edge>
    <edge id=":n12_0" function="internal">
        <lane id=":n12_0_0" index="0" speed="3.65" length="4.67" shape="225.78,156.02 227.19,156.31 227.86,156.90 227.79,157.79 226.98,158.98"/>
    </edge>
    <edge id=":n6_0" function="internal">
        <lane id=":n6_0_0" index="0" speed="13.89" length="17.34" shape="140.23,197.46 134.85,199.14 130.48,199.84 126.80,200.38 123.44,201.56"/>
    </edge>
    <edge id=":n6_1" function="internal">
        <lane id=":n6_1_0" index="0" speed="8.55" length="17.26" shape="139.03,194.50 133.83,195.96 129.71,195.74 126.66,193.81 124.68,190.19"/>
    </edge>
    <edge id=":n6_2" function="internal">
        <lane id=":n6_2_0" index="0" speed="3.65" length="2.56" shape="139.03,194.50 137.62,194.20 136.95,193.61 136.97,193.39"/>
    </edge>
    <edge id=":n6_9" function="internal">
        <lane id=":n6_9_0" index="0" speed="3.65" length="2.11" shape="136.97,193.39 137.02,192.72 137.83,191.53"/>
    </edge>
    <edge id=":n6_3" function="internal">
        <lane id=":n6_3_0" index="0" speed="6.36" length="9.04" shape="130.78,188.23 131.87,190.48 133.42,191.77 135.40,192.13 137.83,191.53"/>
    </edge>
    <edge id=":n6_4" function="internal">
        <lane id=":n6_4_0" index="0" speed="8.63" length="3.92" shape="127.73,189.21 128.47,193.06"/>
    </edge>
    <edge id=":n6_5" function="internal">
        <lane id=":n6_5_0" index="0" speed="3.65" length="2.00" shape="127.73,189.21 127.34,190.60 126.94,190.98"/>
    </edge>
    <edge id=":n6_10" function="internal">
        <lane id=":n6_10_0" index="0" speed="8.63" length="10.46" shape="128.47,193.06 128.50,193.20 128.04,196.58 126.35,199.37 123.44,201.56"/>
    </edge>
    <edge id=":n6_11" function="internal">
        <lane id=":n6_11_0" index="0" speed="3.65" length="2.68" shape="126.94,190.98 126.70,191.22 125.81,191.09 124.68,190.19"/>
    </edge>
    <edge id=":n6_6" function="internal">
        <lane id=":n6_6_0" index="0" speed="7.25" length="9.87" shape="121.93,198.74 123.86,197.26 124.97,195.34 125.24,192.99 124.68,190.19"/>
    </edge>
    <edge id=":n6_7" function="internal">
        <lane id=":n6_7_0" index="0" speed="13.89" length="17.47" shape="121.93,198.74 125.62,196.88 129.79,194.95 134.01,193.11 137.83,191.53"/>
    </edge>
    <edge id=":n6_8" function="internal">
        <lane id=":n6_8_0" index="0" speed="3.65" length="2.57" shape="121.93,198.74 123.36,198.88 124.09,199.40 124.10,199.63"/>
    </edge>
    <edge id=":n6_12" function="internal">
        <lane id=":n6_12_0" index="0" speed="3.65" length="2.10" shape="124.10,199.63 124.12,200.29 123.44,201.56"/>
    </edge>

    <edge id="e14" from="n6" to="n1" priority="-1">
        <lane id="e14_0" index="0" speed="13.89" length="139.24" shape="123.44,201.56 0.76,267.41"/>
    </edge>
    <edge id="e15" from="n1" to="n6" priority="-1">
        <lane id="e15_0" index="0" speed="13.89" length="139.24" shape="-0.76,264.59 121.93,198.74"/>
    </edge>
    <edge id="e17" from="n11" to="n6" priority="-1">
        <lane id="e17_0" index="0" speed="13.89" length="199.31" shape="69.63,-1.47 130.78,188.23"/>
        <lane id="e17_1" index="1" speed="13.89" length="199.31" shape="66.58,-0.49 127.73,189.21"/>
    </edge>
    <edge id="e18" from="n12" to="n6" priority="-1">
        <lane id="e18_0" index="0" speed="13.89" length="94.85" shape="228.18,161.95 140.23,197.46"/>
        <lane id="e18_1" index="1" speed="13.89" length="94.85" shape="226.98,158.98 139.03,194.50"/>
    </edge>
    <edge id="e19" from="n6" to="n11" priority="-1">
        <lane id="e19_0" index="0" speed="13.89" length="199.31" shape="124.68,190.19 63.54,0.49"/>
    </edge>
    <edge id="e20" from="n6" to="n12" priority="-1">
        <lane id="e20_0" index="0" speed="13.89" length="94.85" shape="137.83,191.53 225.78,156.02"/>
    </edge>

    <tlLogic id="n6" type="static" programID="0" offset="0">
        <phase duration="27" state="GGgGrrrrr"/>
        <phase duration="3"  state="yyyyrrrrr"/>
        <phase duration="27" state="rrrGGgGrr"/>
        <phase duration="3"  state="rrryyyyrr"/>
        <phase duration="27" state="GrrrrrGGg"/>
        <phase duration="3"  state="yrrrrryyy"/>
    </tlLogic>

    <junction id="n1" type="priority" x="0.00" y="266.00" incLanes="e14_0" intLanes=":n1_0_0" shape="-0.00,266.00 1.51,268.82 -0.00,266.00">
        <request index="0" response="0" foes="0" cont="0"/>
    </junction>
    <junction id="n11" type="priority" x="65.06" y="0.00" incLanes="e19_0" intLanes=":n11_0_0" shape="65.06,0.00 62.01,0.98 65.06,0.00">
        <request index="0" response="0" foes="0" cont="0"/>
    </junction>
    <junction id="n12" type="priority" x="226.38" y="157.50" incLanes="e20_0" intLanes=":n12_0_0" shape="226.38,157.50 225.18,154.53 226.38,157.50">
        <request index="0" response="0" foes="0" cont="0"/>
    </junction>
    <junction id="n6" type="traffic_light" x="128.56" y="197.00" incLanes="e18_0 e18_1 e17_0 e17_1 e15_0" intLanes=":n6_0_0 :n6_1_0 :n6_9_0 :n6_3_0 :n6_10_0 :n6_11_0 :n6_6_0 :n6_7_0 :n6_12_0" shape="140.83,198.95 137.23,190.05 135.04,190.46 134.15,190.22 133.39,189.69 132.78,188.86 132.30,187.74 123.16,190.68 123.62,193.54 123.43,194.73 122.96,195.75 122.21,196.62 121.17,197.33 124.20,202.97 127.50,201.49 130.10,200.84 132.37,200.64 134.67,200.52 137.37,200.08">
        <request index="0" response="000010000" foes="100010000" cont="0"/>
        <request index="1" response="000000000" foes="011110000" cont="0"/>
        <request index="2" response="010001000" foes="010001000" cont="1"/>
        <request index="3" response="000000000" foes="010000100" cont="0"/>
        <request index="4" response="000000011" foes="110000011" cont="1"/>
        <request index="5" response="001000010" foes="001000010" cont="1"/>
        <request index="6" response="000000010" foes="000100010" cont="0"/>
        <request index="7" response="000011010" foes="000011110" cont="0"/>
        <request index="8" response="000010001" foes="000010001" cont="1"/>
    </junction>

    <junction id=":n6_9_0" type="internal" x="136.97" y="193.39" incLanes=":n6_2_0 e15_0 e17_0" intLanes=":n6_3_0 :n6_7_0"/>
    <junction id=":n6_10_0" type="internal" x="128.47" y="193.06" incLanes=":n6_4_0 e18_1" intLanes=":n6_0_0 :n6_1_0 :n6_7_0 :n6_8_0"/>
    <junction id=":n6_11_0" type="internal" x="126.94" y="190.98" incLanes=":n6_5_0 e15_0 e18_1" intLanes=":n6_1_0 :n6_6_0"/>
    <junction id=":n6_12_0" type="internal" x="124.10" y="199.63" incLanes=":n6_8_0 e17_1 e18_0" intLanes=":n6_0_0 :n6_4_0"/>

    <connection from="e14" to="e15" fromLane="0" toLane="0" via=":n1_0_0" dir="t" state="M"/>
    <connection from="e15" to="e19" fromLane="0" toLane="0" via=":n6_6_0" tl="n6" linkIndex="6" dir="r" state="o"/>
    <connection from="e15" to="e20" fromLane="0" toLane="0" via=":n6_7_0" tl="n6" linkIndex="7" dir="s" state="o"/>
    <connection from="e15" to="e14" fromLane="0" toLane="0" via=":n6_8_0" tl="n6" linkIndex="8" dir="t" state="o"/>
    <connection from="e17" to="e20" fromLane="0" toLane="0" via=":n6_3_0" tl="n6" linkIndex="3" dir="r" state="O"/>
    <connection from="e17" to="e14" fromLane="1" toLane="0" via=":n6_4_0" tl="n6" linkIndex="4" dir="l" state="o"/>
    <connection from="e17" to="e19" fromLane="1" toLane="0" via=":n6_5_0" tl="n6" linkIndex="5" dir="t" state="o"/>
    <connection from="e18" to="e14" fromLane="0" toLane="0" via=":n6_0_0" tl="n6" linkIndex="0" dir="s" state="O"/>
    <connection from="e18" to="e19" fromLane="1" toLane="0" via=":n6_1_0" tl="n6" linkIndex="1" dir="l" state="O"/>
    <connection from="e18" to="e20" fromLane="1" toLane="0" via=":n6_2_0" tl="n6" linkIndex="2" dir="t" state="o"/>
    <connection from="e19" to="e17" fromLane="0" toLane="1" via=":n11_0_0" dir="t" state="M"/>
    <connection from="e20" to="e18" fromLane="0" toLane="1" via=":n12_0_0" dir="t" state="M"/>

    <connection from=":n1_0" to="e15" fromLane="0" toLane="0" dir="t" state="M"/>
    <connection from=":n11_0" to="e17" fromLane="0" toLane="1" dir="t" state="M"/>
    <connection from=":n12_0" to="e18" fromLane="0" toLane="1" dir="t" state="M"/>
    <connection from=":n6_0" to="e14" fromLane="0" toLane="0" dir="s" state="M"/>
    <connection from=":n6_1" to="e19" fromLane="0" toLane="0" dir="l" state="M"/>
    <connection from=":n6_2" to="e20" fromLane="0" toLane="0" via=":n6_9_0" dir="t" state="m"/>
    <connection from=":n6_9" to="e20" fromLane="0" toLane="0" dir="t" state="M"/>
    <connection from=":n6_3" to="e20" fromLane="0" toLane="0" dir="r" state="M"/>
    <connection from=":n6_4" to="e14" fromLane="0" toLane="0" via=":n6_10_0" dir="l" state="m"/>
    <connection from=":n6_10" to="e14" fromLane="0" toLane="0" dir="l" state="M"/>
    <connection from=":n6_5" to="e19" fromLane="0" toLane="0" via=":n6_11_0" dir="t" state="m"/>
    <connection from=":n6_11" to="e19" fromLane="0" toLane="0" dir="t" state="M"/>
    <connection from=":n6_6" to="e19" fromLane="0" toLane="0" dir="r" state="M"/>
    <connection from=":n6_7" to="e20" fromLane="0" toLane="0" dir="s" state="M"/>
    <connection from=":n6_8" to="e14" fromLane="0" toLane="0" via=":n6_12_0" dir="t" state="m"/>
    <connection from=":n6_12" to="e14" fromLane="0" toLane="0" dir="t" state="M"/>

</net>
