<?xml version="1.0" encoding="UTF-8"?>

<!-- generated on 2021-12-09 13:57:38 by Eclipse SUMO sumo Version v1_11_0+0446-ad9509b
This data file and the accompanying materials
are made available under the terms of the Eclipse Public License v2.0
which accompanies this distribution, and is available at
http://www.eclipse.org/legal/epl-v20.html
SPDX-License-Identifier: EPL-2.0
<configuration xmlns:xsi="http://www.w3.org/2001/XMLSchema-instance" xsi:noNamespaceSchemaLocation="http://sumo.dlr.de/xsd/sumoConfiguration.xsd">

    <input>
        <net-file value="net.net.xml"/>
        <route-files value="input_routes.rou.xml"/>
        <additional-files value="input_additional.add.xml,input_additional2.add.xml"/>
    </input>

    <output>
        <write-license value="true"/>
    </output>

    <processing>
        <default.speeddev value="0"/>
    </processing>

    <report>
        <verbose value="true"/>
        <xml-validation value="never"/>
        <xml-validation.routes value="never"/>
        <duration-log.statistics value="true"/>
        <no-step-log value="true"/>
    </report>

</configuration>
-->

<tlsStates xmlns:xsi="http://www.w3.org/2001/XMLSchema-instance" xsi:noNamespaceSchemaLocation="http://sumo.dlr.de/xsd/tlsstates_file.xsd">
    <tlsState time="0.00" id="C0" programID="custom" phase="0" state="GGggrrrrGGggrrrr"/>
    <tlsState time="0.00" id="B0" programID="custom" phase="0" state="GGggrrrrGGggrrrr"/>
    <tlsState time="5.00" id="C0" programID="custom" phase="1" state="yyyyrrrryyyyrrrr"/>
    <tlsState time="5.00" id="B0" programID="custom" phase="1" state="yyyyrrrryyyyrrrr"/>
    <tlsState time="8.00" id="C0" programID="custom" phase="2" state="rrrrGGggrrrrGGgg"/>
    <tlsState time="8.00" id="B0" programID="custom" phase="2" state="rrrrGGggrrrrGGgg"/>
    <tlsState time="13.00" id="C0" programID="custom" phase="3" state="rrrryyyyrrrryyyy"/>
    <tlsState time="13.00" id="B0" programID="custom" phase="3" state="rrrryyyyrrrryyyy"/>
    <tlsState time="16.00" id="C0" programID="custom" phase="0" state="GGggrrrrGGggrrrr"/>
    <tlsState time="16.00" id="B0" programID="custom" phase="0" state="GGggrrrrGGggrrrr"/>
    <tlsState time="21.00" id="C0" programID="custom" phase="1" state="yyyyrrrryyyyrrrr"/>
    <tlsState time="21.00" id="B0" programID="custom" phase="1" state="yyyyrrrryyyyrrrr"/>
    <tlsState time="24.00" id="C0" programID="custom" phase="2" state="rrrrGGggrrrrGGgg"/>
    <tlsState time="24.00" id="B0" programID="custom" phase="2" state="rrrrGGggrrrrGGgg"/>
    <tlsState time="29.00" id="C0" programID="custom" phase="3" state="rrrryyyyrrrryyyy"/>
    <tlsState time="29.00" id="B0" programID="custom" phase="3" state="rrrryyyyrrrryyyy"/>
    <tlsState time="32.00" id="C0" programID="custom" phase="0" state="GGggrrrrGGggrrrr"/>
    <tlsState time="32.00" id="B0" programID="custom" phase="0" state="GGggrrrrGGggrrrr"/>
    <tlsState time="37.00" id="C0" programID="custom" phase="1" state="yyyyrrrryyyyrrrr"/>
    <tlsState time="37.00" id="B0" programID="custom" phase="1" state="yyyyrrrryyyyrrrr"/>
    <tlsState time="40.00" id="C0" programID="custom" phase="2" state="rrrrGGggrrrrGGgg"/>
    <tlsState time="40.00" id="B0" programID="custom" phase="2" state="rrrrGGggrrrrGGgg"/>
    <tlsState time="45.00" id="C0" programID="custom" phase="3" state="rrrryyyyrrrryyyy"/>
    <tlsState time="48.00" id="C0" programID="custom" phase="0" state="GGggrrrrGGggrrrr"/>
    <tlsState time="53.00" id="C0" programID="custom" phase="1" state="yyyyrrrryyyyrrrr"/>
    <tlsState time="56.00" id="C0" programID="custom" phase="2" state="rrrrGGggrrrrGGgg"/>
    <tlsState time="57.00" id="B0" programID="custom" phase="3" state="rrrryyyyrrrryyyy"/>
    <tlsState time="60.00" id="B0" programID="custom" phase="0" state="GGggrrrrGGggrrrr"/>
    <tlsState time="65.00" id="B0" programID="custom" phase="1" state="yyyyrrrryyyyrrrr"/>
    <tlsState time="68.00" id="B0" programID="custom" phase="2" state="rrrrGGggrrrrGGgg"/>
    <tlsState time="72.00" id="C0" programID="custom" phase="3" state="rrrryyyyrrrryyyy"/>
    <tlsState time="75.00" id="C0" programID="custom" phase="0" state="GGggrrrrGGggrrrr"/>
    <tlsState time="89.00" id="B0" programID="custom" phase="3" state="rrrryyyyrrrryyyy"/>
    <tlsState time="91.00" id="C0" programID="custom" phase="1" state="yyyyrrrryyyyrrrr"/>
    <tlsState time="92.00" id="B0" programID="custom" phase="0" state="GGggrrrrGGggrrrr"/>
    <tlsState time="94.00" id="C0" programID="custom" phase="2" state="rrrrGGggrrrrGGgg"/>
    <tlsState time="97.00" id="B0" programID="custom" phase="1" state="yyyyrrrryyyyrrrr"/>
    <tlsState time="100.00" id="B0" programID="custom" phase="2" state="rrrrGGggrrrrGGgg"/>
    <tlsState time="109.00" id="B0" programID="custom" phase="3" state="rrrryyyyrrrryyyy"/>
    <tlsState time="112.00" id="B0" programID="custom" phase="0" state="GGggrrrrGGggrrrr"/>
    <tlsState time="114.00" id="C0" programID="custom" phase="3" state="rrrryyyyrrrryyyy"/>
    <tlsState time="117.00" id="C0" programID="custom" phase="0" state="GGggrrrrGGggrrrr"/>
    <tlsState time="117.00" id="B0" programID="custom" phase="1" state="yyyyrrrryyyyrrrr"/>
    <tlsState time="120.00" id="B0" programID="custom" phase="2" state="rrrrGGggrrrrGGgg"/>
    <tlsState time="125.00" id="B0" programID="custom" phase="3" state="rrrryyyyrrrryyyy"/>
    <tlsState time="128.00" id="B0" programID="custom" phase="0" state="GGggrrrrGGggrrrr"/>
    <tlsState time="130.00" id="C0" programID="custom" phase="1" state="yyyyrrrryyyyrrrr"/>
    <tlsState time="133.00" id="C0" programID="custom" phase="2" state="rrrrGGggrrrrGGgg"/>
    <tlsState time="133.00" id="B0" programID="custom" phase="1" state="yyyyrrrryyyyrrrr"/>
    <tlsState time="136.00" id="B0" programID="custom" phase="2" state="rrrrGGggrrrrGGgg"/>
    <tlsState time="143.00" id="C0" programID="custom" phase="3" state="rrrryyyyrrrryyyy"/>
    <tlsState time="146.00" id="C0" programID="custom" phase="0" state="GGggrrrrGGggrrrr"/>
    <tlsState time="151.00" id="C0" programID="custom" phase="1" state="yyyyrrrryyyyrrrr"/>
    <tlsState time="154.00" id="C0" programID="custom" phase="2" state="rrrrGGggrrrrGGgg"/>
    <tlsState time="183.00" id="B0" programID="custom" phase="3" state="rrrryyyyrrrryyyy"/>
    <tlsState time="186.00" id="B0" programID="custom" phase="0" state="GGggrrrrGGggrrrr"/>
    <tlsState time="194.00" id="C0" programID="custom" phase="3" state="rrrryyyyrrrryyyy"/>
    <tlsState time="197.00" id="C0" programID="custom" phase="0" state="GGggrrrrGGggrrrr"/>
    <tlsState time="213.00" id="C0" programID="custom" phase="1" state="yyyyrrrryyyyrrrr"/>
    <tlsState time="216.00" id="C0" programID="custom" phase="2" state="rrrrGGggrrrrGGgg"/>
    <tlsState time="220.00" id="B0" programID="custom" phase="1" state="yyyyrrrryyyyrrrr"/>
    <tlsState time="221.00" id="C0" programID="custom" phase="3" state="rrrryyyyrrrryyyy"/>
    <tlsState time="223.00" id="B0" programID="custom" phase="2" state="rrrrGGggrrrrGGgg"/>
    <tlsState time="224.00" id="C0" programID="custom" phase="0" state="GGggrrrrGGggrrrr"/>
    <tlsState time="240.00" id="C0" programID="custom" phase="1" state="yyyyrrrryyyyrrrr"/>
    <tlsState time="243.00" id="C0" programID="custom" phase="2" state="rrrrGGggrrrrGGgg"/>
    <tlsState time="246.00" id="B0" programID="custom" phase="3" state="rrrryyyyrrrryyyy"/>
    <tlsState time="249.00" id="B0" programID="custom" phase="0" state="GGggrrrrGGggrrrr"/>
    <tlsState time="254.00" id="B0" programID="custom" phase="1" state="yyyyrrrryyyyrrrr"/>
    <tlsState time="257.00" id="B0" programID="custom" phase="2" state="rrrrGGggrrrrGGgg"/>
    <tlsState time="267.00" id="C0" programID="custom" phase="3" state="rrrryyyyrrrryyyy"/>
    <tlsState time="270.00" id="C0" programID="custom" phase="0" state="GGggrrrrGGggrrrr"/>
    <tlsState time="287.00" id="C0" programID="custom" phase="1" state="yyyyrrrryyyyrrrr"/>
    <tlsState time="289.00" id="B0" programID="custom" phase="3" state="rrrryyyyrrrryyyy"/>
    <tlsState time="290.00" id="C0" programID="custom" phase="2" state="rrrrGGggrrrrGGgg"/>
    <tlsState time="292.00" id="B0" programID="custom" phase="0" state="GGggrrrrGGggrrrr"/>
    <tlsState time="323.00" id="C0" programID="custom" phase="3" state="rrrryyyyrrrryyyy"/>
    <tlsState time="324.00" id="B0" programID="custom" phase="1" state="yyyyrrrryyyyrrrr"/>
    <tlsState time="326.00" id="C0" programID="custom" phase="0" state="GGggrrrrGGggrrrr"/>
    <tlsState time="327.00" id="B0" programID="custom" phase="2" state="rrrrGGggrrrrGGgg"/>
    <tlsState time="342.00" id="C0" programID="custom" phase="1" state="yyyyrrrryyyyrrrr"/>
    <tlsState time="345.00" id="C0" programID="custom" phase="2" state="rrrrGGggrrrrGGgg"/>
    <tlsState time="352.00" id="B0" programID="custom" phase="3" state="rrrryyyyrrrryyyy"/>
    <tlsState time="355.00" id="B0" programID="custom" phase="0" state="GGggrrrrGGggrrrr"/>
    <tlsState time="360.00" id="B0" programID="custom" phase="1" state="yyyyrrrryyyyrrrr"/>
    <tlsState time="363.00" id="B0" programID="custom" phase="2" state="rrrrGGggrrrrGGgg"/>
    <tlsState time="369.00" id="C0" programID="custom" phase="3" state="rrrryyyyrrrryyyy"/>
    <tlsState time="372.00" id="C0" programID="custom" phase="0" state="GGggrrrrGGggrrrr"/>
    <tlsState time="389.00" id="C0" programID="custom" phase="1" state="yyyyrrrryyyyrrrr"/>
    <tlsState time="391.00" id="B0" programID="custom" phase="3" state="rrrryyyyrrrryyyy"/>
    <tlsState time="392.00" id="C0" programID="custom" phase="2" state="rrrrGGggrrrrGGgg"/>
    <tlsState time="394.00" id="B0" programID="custom" phase="0" state="GGggrrrrGGggrrrr"/>
    <tlsState time="419.00" id="C0" programID="custom" phase="3" state="rrrryyyyrrrryyyy"/>
    <tlsState time="422.00" id="C0" programID="custom" phase="0" state="GGggrrrrGGggrrrr"/>
    <tlsState time="429.00" id="B0" programID="custom" phase="1" state="yyyyrrrryyyyrrrr"/>
    <tlsState time="432.00" id="B0" programID="custom" phase="2" state="rrrrGGggrrrrGGgg"/>
    <tlsState time="439.00" id="C0" programID="custom" phase="1" state="yyyyrrrryyyyrrrr"/>
    <tlsState time="442.00" id="C0" programID="custom" phase="2" state="rrrrGGggrrrrGGgg"/>
    <tlsState time="447.00" id="C0" programID="custom" phase="3" state="rrrryyyyrrrryyyy"/>
    <tlsState time="450.00" id="C0" programID="custom" phase="0" state="GGggrrrrGGggrrrr"/>
    <tlsState time="454.00" id="B0" programID="custom" phase="3" state="rrrryyyyrrrryyyy"/>
    <tlsState time="455.00" id="C0" programID="custom" phase="1" state="yyyyrrrryyyyrrrr"/>
    <tlsState time="457.00" id="B0" programID="custom" phase="0" state="GGggrrrrGGggrrrr"/>
    <tlsState time="458.00" id="C0" programID="custom" phase="2" state="rrrrGGggrrrrGGgg"/>
    <tlsState time="462.00" id="B0" programID="custom" phase="1" state="yyyyrrrryyyyrrrr"/>
    <tlsState time="465.00" id="B0" programID="custom" phase="2" state="rrrrGGggrrrrGGgg"/>
    <tlsState time="510.00" id="C0" programID="custom" phase="3" state="rrrryyyyrrrryyyy"/>
    <tlsState time="513.00" id="C0" programID="custom" phase="0" state="GGggrrrrGGggrrrr"/>
    <tlsState time="517.00" id="B0" programID="custom" phase="3" state="rrrryyyyrrrryyyy"/>
    <tlsState time="520.00" id="B0" programID="custom" phase="0" state="GGggrrrrGGggrrrr"/>
    <tlsState time="543.00" id="C0" programID="custom" phase="1" state="yyyyrrrryyyyrrrr"/>
    <tlsState time="546.00" id="C0" programID="custom" phase="2" state="rrrrGGggrrrrGGgg"/>
    <tlsState time="554.00" id="B0" programID="custom" phase="1" state="yyyyrrrryyyyrrrr"/>
    <tlsState time="557.00" id="B0" programID="custom" phase="2" state="rrrrGGggrrrrGGgg"/>
    <tlsState time="572.00" id="C0" programID="custom" phase="3" state="rrrryyyyrrrryyyy"/>
    <tlsState time="575.00" id="C0" programID="custom" phase="0" state="GGggrrrrGGggrrrr"/>
    <tlsState time="580.00" id="B0" programID="custom" phase="3" state="rrrryyyyrrrryyyy"/>
    <tlsState time="583.00" id="B0" programID="custom" phase="0" state="GGggrrrrGGggrrrr"/>
    <tlsState time="588.00" id="B0" programID="custom" phase="1" state="yyyyrrrryyyyrrrr"/>
    <tlsState time="589.00" id="C0" programID="custom" phase="1" state="yyyyrrrryyyyrrrr"/>
    <tlsState time="591.00" id="B0" programID="custom" phase="2" state="rrrrGGggrrrrGGgg"/>
    <tlsState time="592.00" id="C0" programID="custom" phase="2" state="rrrrGGggrrrrGGgg"/>
    <tlsState time="635.00" id="C0" programID="custom" phase="3" state="rrrryyyyrrrryyyy"/>
    <tlsState time="638.00" id="C0" programID="custom" phase="0" state="GGggrrrrGGggrrrr"/>
    <tlsState time="643.00" id="B0" programID="custom" phase="3" state="rrrryyyyrrrryyyy"/>
    <tlsState time="646.00" id="B0" programID="custom" phase="0" state="GGggrrrrGGggrrrr"/>
    <tlsState time="656.00" id="C0" programID="custom" phase="1" state="yyyyrrrryyyyrrrr"/>
    <tlsState time="659.00" id="C0" programID="custom" phase="2" state="rrrrGGggrrrrGGgg"/>
    <tlsState time="679.00" id="B0" programID="custom" phase="1" state="yyyyrrrryyyyrrrr"/>
    <tlsState time="682.00" id="B0" programID="custom" phase="2" state="rrrrGGggrrrrGGgg"/>
    <tlsState time="688.00" id="C0" programID="custom" phase="3" state="rrrryyyyrrrryyyy"/>
    <tlsState time="691.00" id="C0" programID="custom" phase="0" state="GGggrrrrGGggrrrr"/>
    <tlsState time="705.00" id="C0" programID="custom" phase="1" state="yyyyrrrryyyyrrrr"/>
    <tlsState time="706.00" id="B0" programID="custom" phase="3" state="rrrryyyyrrrryyyy"/>
    <tlsState time="708.00" id="C0" programID="custom" phase="2" state="rrrrGGggrrrrGGgg"/>
    <tlsState time="709.00" id="B0" programID="custom" phase="0" state="GGggrrrrGGggrrrr"/>
    <tlsState time="714.00" id="B0" programID="custom" phase="1" state="yyyyrrrryyyyrrrr"/>
    <tlsState time="717.00" id="B0" programID="custom" phase="2" state="rrrrGGggrrrrGGgg"/>
    <tlsState time="746.00" id="B0" programID="custom" phase="3" state="rrrryyyyrrrryyyy"/>
    <tlsState time="749.00" id="B0" programID="custom" phase="0" state="GGggrrrrGGggrrrr"/>
    <tlsState time="751.00" id="C0" programID="custom" phase="3" state="rrrryyyyrrrryyyy"/>
    <tlsState time="754.00" id="C0" programID="custom" phase="0" state="GGggrrrrGGggrrrr"/>
    <tlsState time="780.00" id="C0" programID="custom" phase="1" state="yyyyrrrryyyyrrrr"/>
    <tlsState time="783.00" id="C0" programID="custom" phase="2" state="rrrrGGggrrrrGGgg"/>
    <tlsState time="783.00" id="B0" programID="custom" phase="1" state="yyyyrrrryyyyrrrr"/>
    <tlsState time="786.00" id="B0" programID="custom" phase="2" state="rrrrGGggrrrrGGgg"/>
    <tlsState time="792.00" id="C0" programID="custom" phase="3" state="rrrryyyyrrrryyyy"/>
    <tlsState time="795.00" id="C0" programID="custom" phase="0" state="GGggrrrrGGggrrrr"/>
    <tlsState time="800.00" id="C0" programID="custom" phase="1" state="yyyyrrrryyyyrrrr"/>
    <tlsState time="803.00" id="C0" programID="custom" phase="2" state="rrrrGGggrrrrGGgg"/>
    <tlsState time="809.00" id="B0" programID="custom" phase="3" state="rrrryyyyrrrryyyy"/>
    <tlsState time="812.00" id="B0" programID="custom" phase="0" state="GGggrrrrGGggrrrr"/>
    <tlsState time="817.00" id="B0" programID="custom" phase="1" state="yyyyrrrryyyyrrrr"/>
    <tlsState time="820.00" id="B0" programID="custom" phase="2" state="rrrrGGggrrrrGGgg"/>
    <tlsState time="826.00" id="C0" programID="custom" phase="3" state="rrrryyyyrrrryyyy"/>
    <tlsState time="829.00" id="C0" programID="custom" phase="0" state="GGggrrrrGGggrrrr"/>
    <tlsState time="845.00" id="C0" programID="custom" phase="1" state="yyyyrrrryyyyrrrr"/>
    <tlsState time="845.00" id="B0" programID="custom" phase="3" state="rrrryyyyrrrryyyy"/>
    <tlsState time="848.00" id="C0" programID="custom" phase="2" state="rrrrGGggrrrrGGgg"/>
    <tlsState time="848.00" id="B0" programID="custom" phase="0" state="GGggrrrrGGggrrrr"/>
    <tlsState time="853.00" id="B0" programID="custom" phase="1" state="yyyyrrrryyyyrrrr"/>
    <tlsState time="856.00" id="B0" programID="custom" phase="2" state="rrrrGGggrrrrGGgg"/>
    <tlsState time="889.00" id="C0" programID="custom" phase="3" state="rrrryyyyrrrryyyy"/>
    <tlsState time="892.00" id="C0" programID="custom" phase="0" state="GGggrrrrGGggrrrr"/>
    <tlsState time="908.00" id="C0" programID="custom" phase="1" state="yyyyrrrryyyyrrrr"/>
    <tlsState time="908.00" id="B0" programID="custom" phase="3" state="rrrryyyyrrrryyyy"/>
    <tlsState time="911.00" id="C0" programID="custom" phase="2" state="rrrrGGggrrrrGGgg"/>
    <tlsState time="911.00" id="B0" programID="custom" phase="0" state="GGggrrrrGGggrrrr"/>
    <tlsState time="944.00" id="C0" programID="custom" phase="3" state="rrrryyyyrrrryyyy"/>
    <tlsState time="945.00" id="B0" programID="custom" phase="1" state="yyyyrrrryyyyrrrr"/>
    <tlsState time="947.00" id="C0" programID="custom" phase="0" state="GGggrrrrGGggrrrr"/>
    <tlsState time="948.00" id="B0" programID="custom" phase="2" state="rrrrGGggrrrrGGgg"/>
    <tlsState time="963.00" id="C0" programID="custom" phase="1" state="yyyyrrrryyyyrrrr"/>
    <tlsState time="966.00" id="C0" programID="custom" phase="2" state="rrrrGGggrrrrGGgg"/>
    <tlsState time="971.00" id="B0" programID="custom" phase="3" state="rrrryyyyrrrryyyy"/>
    <tlsState time="974.00" id="B0" programID="custom" phase="0" state="GGggrrrrGGggrrrr"/>
    <tlsState time="988.00" id="C0" programID="custom" phase="3" state="rrrryyyyrrrryyyy"/>
    <tlsState time="991.00" id="C0" programID="custom" phase="0" state="GGggrrrrGGggrrrr"/>
    <tlsState time="1006.00" id="C0" programID="custom" phase="1" state="yyyyrrrryyyyrrrr"/>
    <tlsState time="1007.00" id="B0" programID="custom" phase="1" state="yyyyrrrryyyyrrrr"/>
    <tlsState time="1009.00" id="C0" programID="custom" phase="2" state="rrrrGGggrrrrGGgg"/>
    <tlsState time="1010.00" id="B0" programID="custom" phase="2" state="rrrrGGggrrrrGGgg"/>
    <tlsState time="1014.00" id="C0" programID="custom" phase="3" state="rrrryyyyrrrryyyy"/>
    <tlsState time="1017.00" id="C0" programID="custom" phase="0" state="GGggrrrrGGggrrrr"/>
    <tlsState time="1030.00" id="C0" programID="custom" phase="1" state="yyyyrrrryyyyrrrr"/>
    <tlsState time="1033.00" id="C0" programID="custom" phase="2" state="rrrrGGggrrrrGGgg"/>
    <tlsState time="1034.00" id="B0" programID="custom" phase="3" state="rrrryyyyrrrryyyy"/>
    <tlsState time="1037.00" id="B0" programID="custom" phase="0" state="GGggrrrrGGggrrrr"/>
    <tlsState time="1042.00" id="B0" programID="custom" phase="1" state="yyyyrrrryyyyrrrr"/>
    <tlsState time="1045.00" id="B0" programID="custom" phase="2" state="rrrrGGggrrrrGGgg"/>
    <tlsState time="1059.00" id="C0" programID="custom" phase="3" state="rrrryyyyrrrryyyy"/>
    <tlsState time="1062.00" id="C0" programID="custom" phase="0" state="GGggrrrrGGggrrrr"/>
    <tlsState time="1080.00" id="C0" programID="custom" phase="1" state="yyyyrrrryyyyrrrr"/>
    <tlsState time="1083.00" id="C0" programID="custom" phase="2" state="rrrrGGggrrrrGGgg"/>
    <tlsState time="1097.00" id="B0" programID="custom" phase="3" state="rrrryyyyrrrryyyy"/>
    <tlsState time="1100.00" id="B0" programID="custom" phase="0" state="GGggrrrrGGggrrrr"/>
    <tlsState time="1122.00" id="C0" programID="custom" phase="3" state="rrrryyyyrrrryyyy"/>
    <tlsState time="1125.00" id="C0" programID="custom" phase="0" state="GGggrrrrGGggrrrr"/>
    <tlsState time="1132.00" id="B0" programID="custom" phase="1" state="yyyyrrrryyyyrrrr"/>
    <tlsState time="1135.00" id="B0" programID="custom" phase="2" state="rrrrGGggrrrrGGgg"/>
    <tlsState time="1143.00" id="C0" programID="custom" phase="1" state="yyyyrrrryyyyrrrr"/>
    <tlsState time="1146.00" id="C0" programID="custom" phase="2" state="rrrrGGggrrrrGGgg"/>
    <tlsState time="1151.00" id="C0" programID="custom" phase="3" state="rrrryyyyrrrryyyy"/>
    <tlsState time="1154.00" id="C0" programID="custom" phase="0" state="GGggrrrrGGggrrrr"/>
    <tlsState time="1159.00" id="C0" programID="custom" phase="1" state="yyyyrrrryyyyrrrr"/>
    <tlsState time="1160.00" id="B0" programID="custom" phase="3" state="rrrryyyyrrrryyyy"/>
    <tlsState time="1162.00" id="C0" programID="custom" phase="2" state="rrrrGGggrrrrGGgg"/>
    <tlsState time="1163.00" id="B0" programID="custom" phase="0" state="GGggrrrrGGggrrrr"/>
    <tlsState time="1168.00" id="B0" programID="custom" phase="1" state="yyyyrrrryyyyrrrr"/>
    <tlsState time="1171.00" id="B0" programID="custom" phase="2" state="rrrrGGggrrrrGGgg"/>
    <tlsState time="1198.00" id="B0" programID="custom" phase="3" state="rrrryyyyrrrryyyy"/>
    <tlsState time="1201.00" id="B0" programID="custom" phase="0" state="GGggrrrrGGggrrrr"/>
    <tlsState time="1206.00" id="B0" programID="custom" phase="1" state="yyyyrrrryyyyrrrr"/>
    <tlsState time="1209.00" id="B0" programID="custom" phase="2" state="rrrrGGggrrrrGGgg"/>
    <tlsState time="1214.00" id="C0" programID="custom" phase="3" state="rrrryyyyrrrryyyy"/>
    <tlsState time="1217.00" id="C0" programID="custom" phase="0" state="GGggrrrrGGggrrrr"/>
    <tlsState time="1246.00" id="C0" programID="custom" phase="1" state="yyyyrrrryyyyrrrr"/>
    <tlsState time="1249.00" id="C0" programID="custom" phase="2" state="rrrrGGggrrrrGGgg"/>
    <tlsState time="1259.00" id="B0" programID="custom" phase="3" state="rrrryyyyrrrryyyy"/>
    <tlsState time="1262.00" id="B0" programID="custom" phase="0" state="GGggrrrrGGggrrrr"/>
    <tlsState time="1277.00" id="C0" programID="custom" phase="3" state="rrrryyyyrrrryyyy"/>
    <tlsState time="1280.00" id="C0" programID="custom" phase="0" state="GGggrrrrGGggrrrr"/>
    <tlsState time="1296.00" id="C0" programID="custom" phase="1" state="yyyyrrrryyyyrrrr"/>
    <tlsState time="1297.00" id="B0" programID="custom" phase="1" state="yyyyrrrryyyyrrrr"/>
    <tlsState time="1299.00" id="C0" programID="custom" phase="2" state="rrrrGGggrrrrGGgg"/>
    <tlsState time="1300.00" id="B0" programID="custom" phase="2" state="rrrrGGggrrrrGGgg"/>
    <tlsState time="1322.00" id="B0" programID="custom" phase="3" state="rrrryyyyrrrryyyy"/>
    <tlsState time="1325.00" id="B0" programID="custom" phase="0" state="GGggrrrrGGggrrrr"/>
    <tlsState time="1330.00" id="B0" programID="custom" phase="1" state="yyyyrrrryyyyrrrr"/>
    <tlsState time="1333.00" id="B0" programID="custom" phase="2" state="rrrrGGggrrrrGGgg"/>
    <tlsState time="1340.00" id="C0" programID="custom" phase="3" state="rrrryyyyrrrryyyy"/>
    <tlsState time="1343.00" id="C0" programID="custom" phase="0" state="GGggrrrrGGggrrrr"/>
    <tlsState time="1359.00" id="C0" programID="custom" phase="1" state="yyyyrrrryyyyrrrr"/>
    <tlsState time="1362.00" id="C0" programID="custom" phase="2" state="rrrrGGggrrrrGGgg"/>
    <tlsState time="1370.00" id="B0" programID="custom" phase="3" state="rrrryyyyrrrryyyy"/>
    <tlsState time="1373.00" id="B0" programID="custom" phase="0" state="GGggrrrrGGggrrrr"/>
    <tlsState time="1399.00" id="C0" programID="custom" phase="3" state="rrrryyyyrrrryyyy"/>
    <tlsState time="1402.00" id="C0" programID="custom" phase="0" state="GGggrrrrGGggrrrr"/>
    <tlsState time="1406.00" id="B0" programID="custom" phase="1" state="yyyyrrrryyyyrrrr"/>
    <tlsState time="1409.00" id="B0" programID="custom" phase="2" state="rrrrGGggrrrrGGgg"/>
    <tlsState time="1428.00" id="C0" programID="custom" phase="1" state="yyyyrrrryyyyrrrr"/>
    <tlsState time="1431.00" id="C0" programID="custom" phase="2" state="rrrrGGggrrrrGGgg"/>
    <tlsState time="1433.00" id="B0" programID="custom" phase="3" state="rrrryyyyrrrryyyy"/>
    <tlsState time="1436.00" id="B0" programID="custom" phase="0" state="GGggrrrrGGggrrrr"/>
    <tlsState time="1441.00" id="B0" programID="custom" phase="1" state="yyyyrrrryyyyrrrr"/>
    <tlsState time="1444.00" id="B0" programID="custom" phase="2" state="rrrrGGggrrrrGGgg"/>
    <tlsState time="1456.00" id="C0" programID="custom" phase="3" state="rrrryyyyrrrryyyy"/>
    <tlsState time="1459.00" id="C0" programID="custom" phase="0" state="GGggrrrrGGggrrrr"/>
    <tlsState time="1464.00" id="C0" programID="custom" phase="1" state="yyyyrrrryyyyrrrr"/>
    <tlsState time="1467.00" id="C0" programID="custom" phase="2" state="rrrrGGggrrrrGGgg"/>
    <tlsState time="1471.00" id="B0" programID="custom" phase="3" state="rrrryyyyrrrryyyy"/>
    <tlsState time="1474.00" id="B0" programID="custom" phase="0" state="GGggrrrrGGggrrrr"/>
    <tlsState time="1495.00" id="C0" programID="custom" phase="3" state="rrrryyyyrrrryyyy"/>
    <tlsState time="1498.00" id="C0" programID="custom" phase="0" state="GGggrrrrGGggrrrr"/>
    <tlsState time="1508.00" id="B0" programID="custom" phase="1" state="yyyyrrrryyyyrrrr"/>
    <tlsState time="1511.00" id="B0" programID="custom" phase="2" state="rrrrGGggrrrrGGgg"/>
    <tlsState time="1512.00" id="C0" programID="custom" phase="1" state="yyyyrrrryyyyrrrr"/>
    <tlsState time="1515.00" id="C0" programID="custom" phase="2" state="rrrrGGggrrrrGGgg"/>
    <tlsState time="1520.00" id="C0" programID="custom" phase="3" state="rrrryyyyrrrryyyy"/>
    <tlsState time="1523.00" id="C0" programID="custom" phase="0" state="GGggrrrrGGggrrrr"/>
    <tlsState time="1534.00" id="B0" programID="custom" phase="3" state="rrrryyyyrrrryyyy"/>
    <tlsState time="1537.00" id="B0" programID="custom" phase="0" state="GGggrrrrGGggrrrr"/>
    <tlsState time="1540.00" id="C0" programID="custom" phase="1" state="yyyyrrrryyyyrrrr"/>
    <tlsState time="1542.00" id="B0" programID="custom" phase="1" state="yyyyrrrryyyyrrrr"/>
    <tlsState time="1543.00" id="C0" programID="custom" phase="2" state="rrrrGGggrrrrGGgg"/>
    <tlsState time="1545.00" id="B0" programID="custom" phase="2" state="rrrrGGggrrrrGGgg"/>
    <tlsState time="1583.00" id="C0" programID="custom" phase="3" state="rrrryyyyrrrryyyy"/>
    <tlsState time="1586.00" id="C0" programID="custom" phase="0" state="GGggrrrrGGggrrrr"/>
    <tlsState time="1597.00" id="B0" programID="custom" phase="3" state="rrrryyyyrrrryyyy"/>
    <tlsState time="1600.00" id="B0" programID="custom" phase="0" state="GGggrrrrGGggrrrr"/>
    <tlsState time="1602.00" id="C0" programID="custom" phase="1" state="yyyyrrrryyyyrrrr"/>
    <tlsState time="1605.00" id="C0" programID="custom" phase="2" state="rrrrGGggrrrrGGgg"/>
    <tlsState time="1635.00" id="B0" programID="custom" phase="1" state="yyyyrrrryyyyrrrr"/>
    <tlsState time="1638.00" id="B0" programID="custom" phase="2" state="rrrrGGggrrrrGGgg"/>
    <tlsState time="1640.00" id="C0" programID="custom" phase="3" state="rrrryyyyrrrryyyy"/>
    <tlsState time="1643.00" id="C0" programID="custom" phase="0" state="GGggrrrrGGggrrrr"/>
    <tlsState time="1659.00" id="C0" programID="custom" phase="1" state="yyyyrrrryyyyrrrr"/>
    <tlsState time="1660.00" id="B0" programID="custom" phase="3" state="rrrryyyyrrrryyyy"/>
    <tlsState time="1662.00" id="C0" programID="custom" phase="2" state="rrrrGGggrrrrGGgg"/>
    <tlsState time="1663.00" id="B0" programID="custom" phase="0" state="GGggrrrrGGggrrrr"/>
    <tlsState time="1668.00" id="B0" programID="custom" phase="1" state="yyyyrrrryyyyrrrr"/>
    <tlsState time="1671.00" id="B0" programID="custom" phase="2" state="rrrrGGggrrrrGGgg"/>
    <tlsState time="1686.00" id="C0" programID="custom" phase="3" state="rrrryyyyrrrryyyy"/>
    <tlsState time="1689.00" id="C0" programID="custom" phase="0" state="GGggrrrrGGggrrrr"/>
    <tlsState time="1706.00" id="C0" programID="custom" phase="1" state="yyyyrrrryyyyrrrr"/>
    <tlsState time="1709.00" id="C0" programID="custom" phase="2" state="rrrrGGggrrrrGGgg"/>
    <tlsState time="1723.00" id="B0" programID="custom" phase="3" state="rrrryyyyrrrryyyy"/>
    <tlsState time="1726.00" id="B0" programID="custom" phase="0" state="GGggrrrrGGggrrrr"/>
    <tlsState time="1749.00" id="C0" programID="custom" phase="3" state="rrrryyyyrrrryyyy"/>
    <tlsState time="1752.00" id="C0" programID="custom" phase="0" state="GGggrrrrGGggrrrr"/>
    <tlsState time="1759.00" id="B0" programID="custom" phase="1" state="yyyyrrrryyyyrrrr"/>
    <tlsState time="1762.00" id="B0" programID="custom" phase="2" state="rrrrGGggrrrrGGgg"/>
    <tlsState time="1780.00" id="C0" programID="custom" phase="1" state="yyyyrrrryyyyrrrr"/>
    <tlsState time="1783.00" id="C0" programID="custom" phase="2" state="rrrrGGggrrrrGGgg"/>
    <tlsState time="1786.00" id="B0" programID="custom" phase="3" state="rrrryyyyrrrryyyy"/>
    <tlsState time="1789.00" id="B0" programID="custom" phase="0" state="GGggrrrrGGggrrrr"/>
    <tlsState time="1794.00" id="B0" programID="custom" phase="1" state="yyyyrrrryyyyrrrr"/>
    <tlsState time="1797.00" id="B0" programID="custom" phase="2" state="rrrrGGggrrrrGGgg"/>
    <tlsState time="1812.00" id="C0" programID="custom" phase="3" state="rrrryyyyrrrryyyy"/>
    <tlsState time="1815.00" id="C0" programID="custom" phase="0" state="GGggrrrrGGggrrrr"/>
    <tlsState time="1828.00" id="B0" programID="custom" phase="3" state="rrrryyyyrrrryyyy"/>
    <tlsState time="1830.00" id="C0" programID="custom" phase="1" state="yyyyrrrryyyyrrrr"/>
    <tlsState time="1831.00" id="B0" programID="custom" phase="0" state="GGggrrrrGGggrrrr"/>
    <tlsState time="1833.00" id="C0" programID="custom" phase="2" state="rrrrGGggrrrrGGgg"/>
    <tlsState time="1864.00" id="C0" programID="custom" phase="3" state="rrrryyyyrrrryyyy"/>
    <tlsState time="1866.00" id="B0" programID="custom" phase="1" state="yyyyrrrryyyyrrrr"/>
    <tlsState time="1867.00" id="C0" programID="custom" phase="0" state="GGggrrrrGGggrrrr"/>
    <tlsState time="1869.00" id="B0" programID="custom" phase="2" state="rrrrGGggrrrrGGgg"/>
    <tlsState time="1886.00" id="C0" programID="custom" phase="1" state="yyyyrrrryyyyrrrr"/>
    <tlsState time="1889.00" id="C0" programID="custom" phase="2" state="rrrrGGggrrrrGGgg"/>
    <tlsState time="1891.00" id="B0" programID="custom" phase="3" state="rrrryyyyrrrryyyy"/>