<additional>
    <e3Detector id="0" freq="100" file="NUL">
        <detEntry lane="2fi_0" pos="10"/>
        <detExit lane="2fi_0" pos="30"/>
    </e3Detector>
</additional>