<?xml version="1.0" encoding="UTF-8"?>

<!-- generated on 2022-04-05 11:05:56 by Eclipse SUMO netedit Version v1_12_0+1952-5a7111e91ff
-->

<additional xmlns:xsi="http://www.w3.org/2001/XMLSchema-instance" xsi:noNamespaceSchemaLocation="http://sumo.dlr.de/xsd/additional_file.xsd">
    <!-- StoppingPlaces -->
    <parkingArea id="parkingArea_A" lane="gneE0_0" startPos="12.00" endPos="22.00" length="5.00">
        <space name="nameA" x="17.00" y="7.00" z="10.00" width="4.00" length="5.00" angle="45.00" slope="23.50">
            <param key="keyFinal1" value="value1"/>
            <param key="keyFinal2" value="value2"/>
            <param key="keyFinal3" value="value3"/>
        </space>
    </parkingArea>
    <parkingArea id="parkingArea_B" lane="gneE0_0" startPos="29.00" endPos="39.00" length="5.00">
        <space name="nameB" x="34.00" y="7.00" z="20.00" width="2.00" length="12.00" angle="12.00" slope="30.00">
            <param key="keyFinal1" value="value1"/>
            <param key="keyFinal2" value="value2"/>
            <param key="keyFinal3" value="value3"/>
        </space>
    </parkingArea>
</additional>
