<routes>
    <person id="test" depart="0">
        <walk edges="beg end" arrivalPos="-0.01"/>
    </person>
</routes>
