<?xml version="1.0" encoding="UTF-8"?>

<!-- generated on 29.08.2019 16:34:05 by Eclipse SUMO netedit Version v1_3_1+0045-54a241ab37
<configuration xmlns:xsi="http://www.w3.org/2001/XMLSchema-instance" xsi:noNamespaceSchemaLocation="http://sumo.dlr.de/xsd/netconvertConfiguration.xsd">

    <input>
        <sumo-net-file value="C:/Users/alva_pa/.texttest/tmp/netedit.gui.29Aug163057.6572/netedit.gui/demandElements/stop/stopBusStop/inspect_selection/expectedContainer\input_net.net.xml"/>
    </input>

    <output>
        <output-file value="C:/Users/alva_pa/.texttest/tmp/netedit.gui.29Aug163057.6572/netedit.gui/demandElements/stop/stopBusStop/inspect_selection/expectedContainer\net.net.xml"/>
    </output>

    <processing>
        <geometry.max-grade.fix value="false"/>
        <offset.disable-normalization value="true"/>
        <opposites.guess.fix-lengths value="true"/>
        <lefthand value="false"/>
    </processing>

    <junctions>
        <no-turnarounds value="true"/>
        <junctions.corner-detail value="5"/>
        <junctions.limit-turn-speed value="5.5"/>
        <rectangular-lane-cut value="false"/>
    </junctions>

    <pedestrian>
        <walkingareas value="false"/>
    </pedestrian>

    <netedit>
        <additional-files value="C:/Users/alva_pa/.texttest/tmp/netedit.gui.29Aug163057.6572/netedit.gui/demandElements/stop/stopBusStop/inspect_selection/expectedContainer\additionals.xml"/>
        <additionals-output value="C:/Users/alva_pa/.texttest/tmp/netedit.gui.29Aug163057.6572/netedit.gui/demandElements/stop/stopBusStop/inspect_selection/expectedContainer\additionals.xml"/>
        <route-files value="C:/Users/alva_pa/.texttest/tmp/netedit.gui.29Aug163057.6572/netedit.gui/demandElements/stop/stopBusStop/inspect_selection/expectedContainer\routes.xml"/>
        <demandelements-output value="C:/Users/alva_pa/.texttest/tmp/netedit.gui.29Aug163057.6572/netedit.gui/demandElements/stop/stopBusStop/inspect_selection/expectedContainer\routes.xml"/>
    </netedit>

    <visualisation>
        <gui-settings-file value="C:/Users/alva_pa/.texttest/tmp/netedit.gui.29Aug163057.6572/netedit.gui/demandElements/stop/stopBusStop/inspect_selection/expectedContainer\gui-settings.xml"/>
        <window-size value="700,500"/>
        <window-pos value="50,50"/>
        <gui-testing value="true"/>
        <gui-testing-debug value="true"/>
        <gui-testing-debug-gl value="true"/>
    </visualisation>

    <report>
        <no-warnings value="true"/>
        <error-log value="C:/Users/alva_pa/.texttest/tmp/netedit.gui.29Aug163057.6572/netedit.gui/demandElements/stop/stopBusStop/inspect_selection/expectedContainer\log.txt"/>
    </report>

</configuration>
-->

<routes xmlns:xsi="http://www.w3.org/2001/XMLSchema-instance" xsi:noNamespaceSchemaLocation="http://sumo.dlr.de/xsd/routes_file.xsd">
    <route edges="gneE0 gneE1" color="yellow" id="route_0">
        <stop busStop="busStop_gneE0_0_1" duration="70.00" until="12.00" triggered="1" containerTriggered="1" parking="1" expected="IDA" expectedContainers="ID2" tripId="IDC"/>
        <stop busStop="busStop_gneE1_0_0" duration="60.00" containerTriggered="1" expectedContainers="ID2"/>
    </route>
</routes>
