<additional xmlns:xsi="http://www.w3.org/2001/XMLSchema-instance" xsi:noNamespaceSchemaLocation="http://sumo.dlr.de/xsd/additional_file.xsd">

    <!-- missing parkingLength -->
    <busStop id="busStop_01" lane="gneE0_0" startPos="25" endPos="30" name="busStop" friendlyPos="false"/>

    <!-- non valid format parkingLength (dummy) -->
    <busStop id="busStop_02" lane="gneE0_0" startPos="35" endPos="40" color="dummyparkingLength" name="busStop" friendlyPos="false"/>

    <!-- non valid format parkingLength (negative) -->
    <busStop id="busStop_03" lane="gneE0_0" startPos="35" endPos="40" color="-7" name="busStop" friendlyPos="false"/>

    <!-- non valid format parkingLength (double) -->
    <busStop id="busStop_04" lane="gneE0_0" startPos="35" endPos="40" color="255,120,240" name="busStop" friendlyPos="false"/>

    <!-- valid format parkingLength -->
    <busStop id="busStop_05" lane="gneE0_0" startPos="45" endPos="50" color="red" name="busStop" friendlyPos="false"/>

</additional>
