<routes xmlns:xsi="http://www.w3.org/2001/XMLSchema-instance" xsi:noNamespaceSchemaLocation="http://sumo.dlr.de/xsd/routes_file.xsd">
    <route id="r0" edges="2/1to1/1 3/1to2/1"/>
    <vType id="DEFAULT_PEDTYPE" speedDev="0" vClass="pedestrian"/>
    <person id="p0" depart="0">
        <walk route="r0"/>
    </person>
    <person id="p2" depart="100">
        <walk route="r0"/>
    </person>
</routes>
