<?xml version="1.0" encoding="UTF-8"?>

<!-- generated on 25.06.2018 14:42:58 by Eclipse SUMO netedit Version 7725fee923
<configuration xmlns:xsi="http://www.w3.org/2001/XMLSchema-instance" xsi:noNamespaceSchemaLocation="http://sumo.dlr.de/xsd/netconvertConfiguration.xsd">

    <input>
        <sumo-net-file value="C:/Users/SUMO-Test/.texttest/tmp/netedit.gui.25Jun140419.724/netedit.gui/additionalElements/e3detector/inspect\input_net.net.xml"/>
    </input>

    <output>
        <additionals-output value="C:/Users/SUMO-Test/.texttest/tmp/netedit.gui.25Jun140419.724/netedit.gui/additionalElements/e3detector/inspect\additionals.xml"/>
        <shapes-output value="C:/Users/SUMO-Test/.texttest/tmp/netedit.gui.25Jun140419.724/netedit.gui/additionalElements/e3detector/inspect\shapes.xml"/>
        <output-file value="C:/Users/SUMO-Test/.texttest/tmp/netedit.gui.25Jun140419.724/netedit.gui/additionalElements/e3detector/inspect\net.net.xml"/>
    </output>

    <processing>
        <no-turnarounds value="true"/>
        <offset.disable-normalization value="true"/>
        <lefthand value="false"/>
        <junctions.corner-detail value="0"/>
        <rectangular-lane-cut value="false"/>
        <walkingareas value="false"/>
    </processing>

    <visualisation>
        <gui-settings-file value="C:/Users/SUMO-Test/.texttest/tmp/netedit.gui.25Jun140419.724/netedit.gui/additionalElements/e3detector/inspect\gui-settings.xml"/>
        <window-size value="700,500"/>
        <window-pos value="50,50"/>
        <gui-testing value="true"/>
        <gui-testing-debug value="true"/>
    </visualisation>

    <report>
        <no-warnings value="true"/>
        <error-log value="C:/Users/SUMO-Test/.texttest/tmp/netedit.gui.25Jun140419.724/netedit.gui/additionalElements/e3detector/inspect\log.txt"/>
    </report>

</configuration>
-->

<additional xmlns:xsi="http://www.w3.org/2001/XMLSchema-instance" xsi:noNamespaceSchemaLocation="http://sumo.dlr.de/xsd/additional_file.xsd">
    <e3Detector id="correctID" pos="25.00,25.00" freq="120.00" file="myOwnOutput.txt" timeThreshold="4.00" speedThreshold="6.30">
        <detEntry lane="gneE3_0" pos="33.00"/>
    </e3Detector>
    <e3Detector id="e3Detector_1" pos="29.00,29.00" freq="900.00" file="e3Detector_1.xml">
        <detEntry lane="gneE3_1" pos="22.00"/>
    </e3Detector>
</additional>
