<?xml version="1.0" encoding="iso-8859-1"?>

<configuration xmlns:xsi="http://www.w3.org/2001/XMLSchema-instance" xsi:noNamespaceSchemaLocation="http://sumo.sf.net/xsd/jtrrouterConfiguration.xsd">

    <input>
        <!-- Use FILE as SUMO-network to route on -->
        <net-file value="" synonymes="n net"/>

        <!-- Read (additional) districts from FILE -->
        <taz-files value="" synonymes="d districts"/>

        <!-- Read alternatives from FILE -->
        <alternative-files value="" synonymes="a alternatives alternatives-files"/>

        <!-- Read flow-definitions from FILE(s) -->
        <flow-files value="" synonymes="f flow-definition flows"/>

        <!-- Read turning ratios from FILE -->
        <turn-ratio-file value="" synonymes="t turn-definition turns"/>

    </input>

    <output>
        <!-- Write generated routes to FILE -->
        <output value="" synonymes="o output-file"/>

        <!-- Write exit times (weights) for each edge -->
        <exit-times value="false"/>

    </output>

    <processing>
        <!-- Continue if a route could not be build -->
        <ignore-errors value="false" synonymes="continue-on-unbuild"/>

        <!-- Assume input is unsorted -->
        <unsorted-input value="false" synonymes="unsorted"/>

        <!-- generate random departure times for flow input -->
        <randomize-flows value="false"/>

        <!-- Prune the number of alternatives to INT -->
        <max-alternatives value="5"/>

        <!-- Remove loops within the route; Remove turnarounds at start and end of the route -->
        <remove-loops value="false"/>

        <!-- Tries to correct a false route -->
        <repair value="false"/>

        <!-- Interpolate edge weights at interval boundaries -->
        <weights.interpolate value="false" synonymes="interpolate"/>

        <!-- Use origin and destination zones (districts) for in- and output -->
        <with-taz value="false"/>

        <!--  -->
        <max-edges-factor value="2"/>

        <!-- Use STR as default turn definition -->
        <turn-defaults value="30,50,20" synonymes="T"/>

        <!-- Use STR as list of sink edges -->
        <sink-edges value="" synonymes="s sinks"/>

        <!--  -->
        <accept-all-destinations value="false" synonymes="A"/>

        <!--  -->
        <ignore-classes value="false" synonymes="i"/>

    </processing>

    <defaults>
        <!-- Assigns a default depart lane -->
        <departlane value=""/>

        <!-- Assigns a default depart position -->
        <departpos value=""/>

        <!-- Assigns a default depart speed -->
        <departspeed value=""/>

        <!-- Assigns a default arrival lane -->
        <arrivallane value=""/>

        <!-- Assigns a default arrival position -->
        <arrivalpos value=""/>

        <!-- Assigns a default arrival speed -->
        <arrivalspeed value=""/>

        <!-- Defaults will override given values -->
        <defaults-override value="false"/>

    </defaults>

    <time>
        <!-- Defines the begin time; Previous trips will be discarded -->
        <begin value="0" synonymes="b"/>

        <!-- Defines the end time; Later trips will be discarded; Defaults to the maximum time that SUMO can represent -->
        <end value="2147483" synonymes="e"/>

    </time>

    <report>
        <!-- Switches to verbose output -->
        <verbose value="false" synonymes="v"/>

        <!-- Prints option values before processing -->
        <print-options value="false" synonymes="p"/>

        <!-- Prints this screen -->
        <help value="false" synonymes="?"/>

        <!-- Prints the current version -->
        <version value="false" synonymes="V"/>

        <!-- Disables output of warnings -->
        <no-warnings value="false" synonymes="W suppress-warnings"/>

        <!-- Writes all messages to FILE -->
        <log value="" synonymes="l log-file"/>

        <!-- Writes all non-error messages to FILE -->
        <message-log value=""/>

        <!-- Writes all warnings and errors to FILE -->
        <error-log value=""/>

        <!-- Defines how often statistics shall be printed -->
        <stats-period value="-1"/>

    </report>

    <random_number>
        <!-- Initialises the random number generator with the current system time -->
        <random value="false" synonymes="abs-rand"/>

        <!-- Initialises the random number generator with the given value -->
        <seed value="23423" synonymes="srand"/>

    </random_number>

</configuration>
