<?xml version="1.0" encoding="UTF-8"?>

<!-- generated on 2023-03-31 11:41:59 by Eclipse SUMO sumo Version v1_16_0+1823-8c9c136
<configuration xmlns:xsi="http://www.w3.org/2001/XMLSchema-instance" xsi:noNamespaceSchemaLocation="http://sumo.dlr.de/xsd/sumoConfiguration.xsd">

    <input>
        <net-file value="input_net.net.xml"/>
        <route-files value="input_routes.rou.xml"/>
    </input>

    <output>
        <lanechange-output value="lanechanges.xml"/>
    </output>

    <processing>
        <lateral-resolution value="0.875"/>
    </processing>

    <report>
        <no-step-log value="true"/>
    </report>

    <traci_server>
        <remote-port value="58591"/>
    </traci_server>

</configuration>
-->

<lanechanges>
    <change id="ego" type="DEFAULT_VEHTYPE" time="3.00" from="-9#1_0" to="-9#1_1" dir="1" speed="5.00" pos="230.53" reason="strategic|traci|urgent" leaderGap="None" leaderSecureGap="None" leaderSpeed="None" followerGap="None" followerSecureGap="None" followerSpeed="None" origLeaderGap="None" origLeaderSecureGap="None" origLeaderSpeed="None" latGap="None"/>
</lanechanges>
