<?xml version="1.0" encoding="UTF-8"?>

<!-- generated on 2023-06-27 13:04:38 by Eclipse SUMO netedit Version v1_17_0+1290-203a7841c0d
-->

<routes xmlns:xsi="http://www.w3.org/2001/XMLSchema-instance" xsi:noNamespaceSchemaLocation="http://sumo.dlr.de/xsd/routes_file.xsd">
    <!-- Vehicles, persons and containers (sorted by depart) -->
    <flow id="f_0" begin="20.00" fromTaz="taz_green" toTaz="taz_red" end="50.00" number="100"/>
    <flow id="f_1" begin="21.00" fromTaz="taz_red" toTaz="taz_red" end="50.00" number="100"/>
    <flow id="f_2" begin="22.00" fromTaz="taz_red" toTaz="taz_green" end="50.00" number="100"/>
    <flow id="f_3" begin="23.00" fromTaz="taz_green" toTaz="taz_green" end="50.00" number="100"/>
</routes>
