<additional xmlns:xsi="http://www.w3.org/2001/XMLSchema-instance" xsi:noNamespaceSchemaLocation="https://sumo.dlr.de/xsd/additional_file.xsd">
    <vTypeDistribution id="exampleDist">
        <vType class="passenger" id="exampleDist0" lcImpatience="-0.500" lcMinGapLat="0.700"/>
        <vType class="passenger" id="exampleDist1" lcImpatience="-0.500" lcMinGapLat="0.700"/>
        <vType class="passenger" id="exampleDist2" lcImpatience="-0.500" lcMinGapLat="0.700"/>
        <vType class="passenger" id="exampleDist3" lcImpatience="-0.500" lcMinGapLat="0.700"/>
        <vType class="passenger" id="exampleDist4" lcImpatience="-0.500" lcMinGapLat="0.700"/>
        <vType class="passenger" id="exampleDist5" lcImpatience="-0.500" lcMinGapLat="0.700"/>
        <vType class="passenger" id="exampleDist6" lcImpatience="-0.500" lcMinGapLat="0.700"/>
        <vType class="passenger" id="exampleDist7" lcImpatience="-0.500" lcMinGapLat="0.700"/>
        <vType class="passenger" id="exampleDist8" lcImpatience="-0.500" lcMinGapLat="0.700"/>
        <vType class="passenger" id="exampleDist9" lcImpatience="-0.500" lcMinGapLat="0.700"/>
    </vTypeDistribution>
</additional>
