<?xml version="1.0"?>

<!-- generated on 10/21/09 17:35:26 by SUMO sumo Version dev-SVN-r7871
<configuration>

    <input>
        <net-file value="net.net.xml"/>
        <route-files value="input_routes.rou.xml"/>
        <additional-files value="input_additional.add.xml"/>
    </input>

    <time>
        <begin value="0"/>
        <end value="10000"/>
    </time>

    <report>
        <no-duration-log value="true"/>
        <no-step-log value="true"/>
    </report>

</configuration>
-->

<netstats>
   <interval begin="0" end="60" id="dump_60">
      <edge id=":2/1_0" traveltime="0.16" sampledSeconds="0.32" density="1.75" occupancy="1.22" noStops="0" speed="19.07" entered="2" emitted="0" left="2" flow="120.00"/>
      <edge id="1/1to2/1" traveltime="60.41" sampledSeconds="623.83" density="10.61" occupancy="7.43" noStops="0" speed="16.22" entered="0" emitted="21" left="2" flow="619.56"/>
      <edge id="2/1to3/1" traveltime="51.25" sampledSeconds="2.86" density="0.05" occupancy="0.03" noStops="0" speed="19.12" entered="2" emitted="0" left="0" flow="3.34"/>
   </interval>
   <interval begin="60" end="120" id="dump_60">
      <edge id=":2/1_0" traveltime="0.16" sampledSeconds="3.16" density="17.37" occupancy="12.16" noStops="0" speed="19.19" entered="20" emitted="0" left="20" flow="1200.00"/>
      <edge id=":3/1_0" traveltime="0.16" sampledSeconds="0.65" density="3.55" occupancy="2.49" noStops="0" speed="18.77" entered="4" emitted="0" left="4" flow="240.00"/>
      <edge id="1/1to2/1" traveltime="56.14" sampledSeconds="1130.67" density="19.23" occupancy="13.46" noStops="0" speed="17.46" entered="0" emitted="20" left="20" flow="1208.45"/>
      <edge id="2/1to3/1" traveltime="51.23" sampledSeconds="674.75" density="11.48" occupancy="8.03" noStops="0" speed="19.13" entered="20" emitted="0" left="4" flow="790.32"/>
      <edge id="3/1to4/1" traveltime="51.37" sampledSeconds="27.77" density="0.47" occupancy="0.33" noStops="0" speed="19.08" entered="4" emitted="0" left="0" flow="32.44"/>
   </interval>
   <interval begin="120" end="180" id="dump_60">
      <edge id=":2/1_0" traveltime="0.16" sampledSeconds="3.16" density="17.38" occupancy="12.16" noStops="0" speed="19.18" entered="20" emitted="0" left="20" flow="1200.00"/>
      <edge id=":3/1_0" traveltime="0.16" sampledSeconds="3.34" density="18.39" occupancy="12.87" noStops="0" speed="19.03" entered="21" emitted="0" left="21" flow="1260.00"/>
      <edge id=":4/1_0" traveltime="0.16" sampledSeconds="1.10" density="6.06" occupancy="4.24" noStops="0" speed="19.26" entered="7" emitted="0" left="7" flow="420.00"/>
      <edge id="1/1to2/1" traveltime="56.01" sampledSeconds="1135.80" density="19.32" occupancy="13.52" noStops="0" speed="17.50" entered="0" emitted="20" left="20" flow="1216.71"/>
      <edge id="2/1to3/1" traveltime="51.23" sampledSeconds="1031.23" density="17.54" occupancy="12.28" noStops="0" speed="19.13" entered="20" emitted="0" left="21" flow="1207.86"/>
      <edge id="3/1to4/1" traveltime="51.21" sampledSeconds="799.41" density="13.60" occupancy="9.52" noStops="0" speed="19.13" entered="21" emitted="0" left="7" flow="936.58"/>
      <edge id="4/1to5/1" traveltime="51.04" sampledSeconds="77.96" density="1.33" occupancy="0.93" noStops="0" speed="19.20" entered="7" emitted="0" left="0" flow="91.65"/>
   </interval>
   <interval begin="180" end="240" id="dump_60">
      <edge id=":2/1_0" traveltime="0.16" sampledSeconds="3.16" density="17.41" occupancy="12.19" noStops="0" speed="19.15" entered="20" emitted="0" left="20" flow="1200.00"/>
      <edge id=":3/1_0" traveltime="0.16" sampledSeconds="3.18" density="17.50" occupancy="12.25" noStops="0" speed="19.05" entered="20" emitted="0" left="20" flow="1200.00"/>
      <edge id=":4/1_0" traveltime="0.16" sampledSeconds="3.18" density="17.49" occupancy="12.24" noStops="0" speed="19.06" entered="20" emitted="0" left="20" flow="1200.00"/>
      <edge id=":5/1_0" traveltime="0.16" sampledSeconds="1.74" density="9.57" occupancy="6.70" noStops="0" speed="19.01" entered="11" emitted="0" left="10" flow="655.09"/>
      <edge id="1/1to2/1" traveltime="56.19" sampledSeconds="1134.90" density="19.30" occupancy="13.51" noStops="0" speed="17.44" entered="0" emitted="20" left="20" flow="1211.87"/>
      <edge id="2/1to3/1" traveltime="51.26" sampledSeconds="1036.32" density="17.63" occupancy="12.34" noStops="0" speed="19.12" entered="20" emitted="0" left="20" flow="1213.07"/>
      <edge id="3/1to4/1" traveltime="51.26" sampledSeconds="1031.80" density="17.55" occupancy="12.28" noStops="0" speed="19.12" entered="20" emitted="0" left="20" flow="1207.63"/>
      <edge id="4/1to5/1" traveltime="51.24" sampledSeconds="895.73" density="15.23" occupancy="10.66" noStops="0" speed="19.13" entered="20" emitted="0" left="11" flow="1048.92"/>
      <edge id="5/1to6/1" traveltime="51.24" sampledSeconds="154.98" density="2.64" occupancy="1.85" noStops="0" speed="19.12" entered="10" emitted="0" left="0" flow="181.46"/>
   </interval>
   <interval begin="240" end="300" id="dump_60">
      <edge id=":2/1_0" traveltime="0.16" sampledSeconds="3.24" density="17.84" occupancy="12.49" noStops="0" speed="19.14" entered="21" emitted="0" left="20" flow="1229.11"/>
      <edge id=":3/1_0" traveltime="0.16" sampledSeconds="3.17" density="17.44" occupancy="12.21" noStops="0" speed="19.11" entered="20" emitted="0" left="20" flow="1200.00"/>
      <edge id=":4/1_0" traveltime="0.16" sampledSeconds="3.31" density="18.23" occupancy="12.76" noStops="0" speed="19.20" entered="21" emitted="0" left="21" flow="1260.00"/>
      <edge id=":5/1_0" traveltime="0.16" sampledSeconds="3.20" density="17.63" occupancy="12.34" noStops="0" speed="18.99" entered="20" emitted="0" left="21" flow="1204.91"/>
      <edge id=":6/1_0" traveltime="0.16" sampledSeconds="2.09" density="11.49" occupancy="8.04" noStops="0" speed="18.86" entered="13" emitted="0" left="13" flow="780.00"/>
      <edge id="1/1to2/1" traveltime="55.97" sampledSeconds="1127.17" density="19.17" occupancy="13.42" noStops="0" speed="17.51" entered="0" emitted="20" left="21" flow="1208.43"/>
      <edge id="2/1to3/1" traveltime="51.27" sampledSeconds="1038.61" density="17.66" occupancy="12.37" noStops="0" speed="19.11" entered="20" emitted="0" left="20" flow="1215.46"/>
      <edge id="3/1to4/1" traveltime="51.26" sampledSeconds="1031.87" density="17.55" occupancy="12.28" noStops="0" speed="19.12" entered="20" emitted="0" left="21" flow="1207.83"/>
      <edge id="4/1to5/1" traveltime="51.23" sampledSeconds="1034.23" density="17.59" occupancy="12.31" noStops="0" speed="19.13" entered="21" emitted="0" left="20" flow="1211.34"/>
      <edge id="5/1to6/1" traveltime="51.26" sampledSeconds="966.24" density="16.43" occupancy="11.50" noStops="0" speed="19.12" entered="21" emitted="0" left="13" flow="1130.99"/>
      <edge id="6/1to7/1" traveltime="51.20" sampledSeconds="256.86" density="4.37" occupancy="3.06" noStops="0" speed="19.14" entered="13" emitted="0" left="0" flow="301.01"/>
   </interval>
   <interval begin="300" end="360" id="dump_60">
      <edge id=":2/1_0" traveltime="0.16" sampledSeconds="3.24" density="17.81" occupancy="12.47" noStops="0" speed="19.20" entered="20" emitted="0" left="21" flow="1230.89"/>
      <edge id=":3/1_0" traveltime="0.16" sampledSeconds="3.15" density="17.32" occupancy="12.13" noStops="0" speed="19.24" entered="20" emitted="0" left="20" flow="1200.00"/>
      <edge id=":4/1_0" traveltime="0.16" sampledSeconds="3.18" density="17.50" occupancy="12.25" noStops="0" speed="19.05" entered="20" emitted="0" left="20" flow="1200.00"/>
      <edge id=":5/1_0" traveltime="0.16" sampledSeconds="3.17" density="17.42" occupancy="12.20" noStops="0" speed="19.13" entered="20" emitted="0" left="20" flow="1200.00"/>
      <edge id=":6/1_0" traveltime="0.16" sampledSeconds="3.17" density="17.41" occupancy="12.19" noStops="0" speed="19.14" entered="20" emitted="0" left="20" flow="1200.00"/>
      <edge id=":7/1_1" traveltime="0.16" sampledSeconds="2.54" density="13.97" occupancy="9.78" noStops="0" speed="19.09" entered="16" emitted="0" left="16" flow="960.00"/>
      <edge id="1/1to2/1" traveltime="56.11" sampledSeconds="1121.47" density="19.07" occupancy="13.35" noStops="0" speed="17.46" entered="0" emitted="20" left="20" flow="1199.18"/>
      <edge id="2/1to3/1" traveltime="51.23" sampledSeconds="1027.93" density="17.48" occupancy="12.24" noStops="0" speed="19.13" entered="21" emitted="0" left="20" flow="1203.89"/>
      <edge id="3/1to4/1" traveltime="51.26" sampledSeconds="1042.32" density="17.73" occupancy="12.41" noStops="0" speed="19.12" entered="20" emitted="0" left="20" flow="1220.15"/>
      <edge id="4/1to5/1" traveltime="51.26" sampledSeconds="1028.99" density="17.50" occupancy="12.25" noStops="0" speed="19.12" entered="20" emitted="0" left="20" flow="1204.33"/>
      <edge id="5/1to6/1" traveltime="51.25" sampledSeconds="1038.18" density="17.66" occupancy="12.36" noStops="0" speed="19.12" entered="20" emitted="0" left="20" flow="1215.43"/>
      <edge id="6/1to7/1" traveltime="51.20" sampledSeconds="1009.64" density="17.17" occupancy="12.02" noStops="0" speed="19.14" entered="20" emitted="0" left="16" flow="1183.10"/>
      <edge id="7/1to8/1" traveltime="51.30" sampledSeconds="384.03" density="6.53" occupancy="4.57" noStops="0" speed="19.10" entered="16" emitted="0" left="0" flow="449.20"/>
   </interval>
   <interval begin="360" end="420" id="dump_60">
      <edge id=":2/1_0" traveltime="0.16" sampledSeconds="3.02" density="16.61" occupancy="11.63" noStops="0" speed="19.06" entered="19" emitted="0" left="19" flow="1140.00"/>
      <edge id=":3/1_0" traveltime="0.16" sampledSeconds="3.16" density="17.40" occupancy="12.18" noStops="0" speed="19.16" entered="20" emitted="0" left="20" flow="1200.00"/>
      <edge id=":4/1_0" traveltime="0.16" sampledSeconds="3.17" density="17.41" occupancy="12.19" noStops="0" speed="19.14" entered="20" emitted="0" left="20" flow="1200.00"/>
      <edge id=":5/1_0" traveltime="0.16" sampledSeconds="3.19" density="17.53" occupancy="12.27" noStops="0" speed="19.01" entered="20" emitted="0" left="20" flow="1200.00"/>
      <edge id=":6/1_0" traveltime="0.16" sampledSeconds="3.28" density="18.02" occupancy="12.61" noStops="0" speed="19.10" entered="21" emitted="0" left="20" flow="1239.10"/>
      <edge id=":7/1_1" traveltime="0.16" sampledSeconds="3.18" density="17.51" occupancy="12.26" noStops="0" speed="19.04" entered="20" emitted="0" left="20" flow="1200.00"/>
      <edge id=":8/1_1" traveltime="0.16" sampledSeconds="3.01" density="16.56" occupancy="11.59" noStops="0" speed="19.13" entered="19" emitted="0" left="19" flow="1140.00"/>
      <edge id=":9/1_1" traveltime="0.16" sampledSeconds="0.32" density="1.77" occupancy="1.24" noStops="0" speed="18.87" entered="2" emitted="0" left="2" flow="120.00"/>
      <edge id="1/1to2/1" traveltime="56.06" sampledSeconds="1121.63" density="19.08" occupancy="13.35" noStops="1" speed="17.48" entered="0" emitted="20" left="19" flow="1200.54"/>
      <edge id="2/1to3/1" traveltime="51.26" sampledSeconds="1025.85" density="17.45" occupancy="12.21" noStops="0" speed="19.12" entered="19" emitted="0" left="20" flow="1200.84"/>
      <edge id="3/1to4/1" traveltime="51.22" sampledSeconds="1025.90" density="17.45" occupancy="12.21" noStops="0" speed="19.13" entered="20" emitted="0" left="20" flow="1201.76"/>
      <edge id="4/1to5/1" traveltime="51.22" sampledSeconds="1042.30" density="17.73" occupancy="12.41" noStops="0" speed="19.13" entered="20" emitted="0" left="20" flow="1220.89"/>
      <edge id="5/1to6/1" traveltime="51.23" sampledSeconds="1028.39" density="17.49" occupancy="12.24" noStops="0" speed="19.13" entered="20" emitted="0" left="21" flow="1204.35"/>
      <edge id="6/1to7/1" traveltime="51.26" sampledSeconds="1040.51" density="17.70" occupancy="12.39" noStops="0" speed="19.12" entered="20" emitted="0" left="20" flow="1217.81"/>
      <edge id="7/1to8/1" traveltime="51.27" sampledSeconds="1031.67" density="17.55" occupancy="12.28" noStops="0" speed="19.11" entered="20" emitted="0" left="19" flow="1207.38"/>
      <edge id="8/1to9/1" traveltime="51.22" sampledSeconds="530.55" density="9.02" occupancy="6.32" noStops="0" speed="19.13" entered="19" emitted="0" left="2" flow="621.54"/>
      <edge id="9/1to10/1" traveltime="51.67" sampledSeconds="2.87" density="0.05" occupancy="0.03" noStops="0" speed="18.96" entered="2" emitted="0" left="0" flow="3.33"/>
   </interval>
   <interval begin="420" end="480" id="dump_60">
      <edge id=":10/1_1" traveltime="0.16" sampledSeconds="0.62" density="3.44" occupancy="2.40" noStops="0" speed="19.41" entered="4" emitted="0" left="4" flow="240.00"/>
      <edge id=":2/1_0" traveltime="0.16" sampledSeconds="3.22" density="17.71" occupancy="12.39" noStops="0" speed="19.07" entered="21" emitted="0" left="20" flow="1215.55"/>
      <edge id=":3/1_0" traveltime="0.16" sampledSeconds="3.13" density="17.24" occupancy="12.07" noStops="0" speed="19.33" entered="20" emitted="0" left="20" flow="1200.00"/>
      <edge id=":4/1_0" traveltime="0.16" sampledSeconds="3.16" density="17.37" occupancy="12.16" noStops="0" speed="19.19" entered="20" emitted="0" left="20" flow="1200.00"/>
      <edge id=":5/1_0" traveltime="0.16" sampledSeconds="3.16" density="17.37" occupancy="12.16" noStops="0" speed="19.19" entered="20" emitted="0" left="20" flow="1200.00"/>
      <edge id=":6/1_0" traveltime="0.16" sampledSeconds="3.22" density="17.71" occupancy="12.40" noStops="0" speed="19.15" entered="20" emitted="0" left="21" flow="1220.90"/>
      <edge id=":7/1_1" traveltime="0.16" sampledSeconds="3.15" density="17.35" occupancy="12.15" noStops="0" speed="19.21" entered="20" emitted="0" left="20" flow="1200.00"/>
      <edge id=":8/1_1" traveltime="0.16" sampledSeconds="3.17" density="17.44" occupancy="12.21" noStops="0" speed="19.11" entered="20" emitted="0" left="20" flow="1200.00"/>
      <edge id=":9/1_1" traveltime="0.16" sampledSeconds="3.17" density="17.43" occupancy="12.20" noStops="0" speed="19.12" entered="20" emitted="0" left="20" flow="1200.00"/>
      <edge id="1/1to2/1" traveltime="56.23" sampledSeconds="1122.46" density="19.09" occupancy="13.36" noStops="1" speed="17.43" entered="0" emitted="20" left="21" flow="1197.61"/>
      <edge id="10/1to1/1" traveltime="51.46" sampledSeconds="28.86" density="0.49" occupancy="0.34" noStops="0" speed="19.04" entered="4" emitted="0" left="0" flow="33.65"/>
      <edge id="2/1to3/1" traveltime="51.19" sampledSeconds="1025.00" density="17.43" occupancy="12.20" noStops="0" speed="19.14" entered="20" emitted="0" left="20" flow="1201.29"/>
      <edge id="3/1to4/1" traveltime="51.22" sampledSeconds="1024.13" density="17.42" occupancy="12.19" noStops="0" speed="19.13" entered="20" emitted="0" left="20" flow="1199.62"/>
      <edge id="4/1to5/1" traveltime="51.18" sampledSeconds="1025.04" density="17.43" occupancy="12.20" noStops="0" speed="19.15" entered="20" emitted="0" left="20" flow="1201.59"/>
      <edge id="5/1to6/1" traveltime="51.23" sampledSeconds="1040.62" density="17.70" occupancy="12.39" noStops="0" speed="19.13" entered="20" emitted="0" left="20" flow="1218.78"/>
      <edge id="6/1to7/1" traveltime="51.22" sampledSeconds="1030.10" density="17.52" occupancy="12.26" noStops="0" speed="19.13" entered="21" emitted="0" left="20" flow="1206.70"/>
      <edge id="7/1to8/1" traveltime="51.24" sampledSeconds="1039.86" density="17.69" occupancy="12.38" noStops="0" speed="19.12" entered="20" emitted="0" left="20" flow="1217.58"/>
      <edge id="8/1to9/1" traveltime="51.25" sampledSeconds="1032.34" density="17.56" occupancy="12.29" noStops="0" speed="19.12" entered="20" emitted="0" left="20" flow="1208.57"/>
      <edge id="9/1to10/1" traveltime="51.25" sampledSeconds="677.59" density="11.52" occupancy="8.07" noStops="0" speed="19.12" entered="20" emitted="0" left="4" flow="793.26"/>
   </interval>
   <interval begin="480" end="540" id="dump_60">
      <edge id=":1/1_0" traveltime="0.20" sampledSeconds="1.39" density="7.65" occupancy="5.36" noStops="0" speed="15.24" entered="7" emitted="0" left="7" flow="420.00"/>
      <edge id=":10/1_1" traveltime="0.16" sampledSeconds="3.33" density="18.33" occupancy="12.83" noStops="0" speed="19.10" entered="21" emitted="0" left="21" flow="1260.00"/>
      <edge id=":2/1_0" traveltime="0.16" sampledSeconds="3.20" density="17.62" occupancy="12.34" noStops="0" speed="19.12" entered="20" emitted="0" left="20" flow="1213.08"/>
      <edge id=":3/1_0" traveltime="0.16" sampledSeconds="3.17" density="17.44" occupancy="12.21" noStops="0" speed="19.12" entered="20" emitted="0" left="20" flow="1200.00"/>
      <edge id=":4/1_0" traveltime="0.16" sampledSeconds="3.18" density="17.51" occupancy="12.26" noStops="0" speed="19.03" entered="20" emitted="0" left="20" flow="1200.00"/>
      <edge id=":5/1_0" traveltime="0.16" sampledSeconds="3.17" density="17.44" occupancy="12.21" noStops="0" speed="19.11" entered="20" emitted="0" left="20" flow="1200.00"/>
      <edge id=":6/1_0" traveltime="0.16" sampledSeconds="3.18" density="17.49" occupancy="12.24" noStops="0" speed="19.06" entered="20" emitted="0" left="20" flow="1200.00"/>
      <edge id=":7/1_1" traveltime="0.16" sampledSeconds="3.33" density="18.32" occupancy="12.82" noStops="0" speed="19.11" entered="21" emitted="0" left="21" flow="1260.00"/>
      <edge id=":8/1_1" traveltime="0.16" sampledSeconds="3.19" density="17.56" occupancy="12.29" noStops="0" speed="18.98" entered="20" emitted="0" left="20" flow="1200.00"/>
      <edge id=":9/1_1" traveltime="0.16" sampledSeconds="3.18" density="17.51" occupancy="12.26" noStops="0" speed="19.04" entered="20" emitted="0" left="20" flow="1200.00"/>
      <edge id="1/1to2/1" traveltime="54.70" sampledSeconds="1121.67" density="19.08" occupancy="13.35" noStops="1" speed="17.92" entered="7" emitted="13" left="20" flow="1230.37"/>
      <edge id="10/1to1/1" traveltime="51.45" sampledSeconds="805.71" density="13.70" occupancy="9.59" noStops="0" speed="19.05" entered="21" emitted="0" left="7" flow="939.65"/>
      <edge id="2/1to3/1" traveltime="51.24" sampledSeconds="1021.89" density="17.38" occupancy="12.17" noStops="0" speed="19.12" entered="20" emitted="0" left="20" flow="1196.52"/>
      <edge id="3/1to4/1" traveltime="51.30" sampledSeconds="1026.59" density="17.46" occupancy="12.22" noStops="0" speed="19.10" entered="20" emitted="0" left="20" flow="1200.74"/>
      <edge id="4/1to5/1" traveltime="51.24" sampledSeconds="1024.43" density="17.42" occupancy="12.20" noStops="0" speed="19.13" entered="20" emitted="0" left="20" flow="1199.65"/>
      <edge id="5/1to6/1" traveltime="51.26" sampledSeconds="1024.98" density="17.43" occupancy="12.20" noStops="0" speed="19.12" entered="20" emitted="0" left="20" flow="1199.76"/>
      <edge id="6/1to7/1" traveltime="51.24" sampledSeconds="1035.88" density="17.62" occupancy="12.33" noStops="0" speed="19.12" entered="20" emitted="0" left="21" flow="1212.86"/>
      <edge id="7/1to8/1" traveltime="51.20" sampledSeconds="1034.38" density="17.59" occupancy="12.31" noStops="0" speed="19.14" entered="21" emitted="0" left="20" flow="1212.10"/>
      <edge id="8/1to9/1" traveltime="51.23" sampledSeconds="1038.59" density="17.66" occupancy="12.36" noStops="0" speed="19.13" entered="20" emitted="0" left="20" flow="1216.32"/>
      <edge id="9/1to10/1" traveltime="51.27" sampledSeconds="1030.55" density="17.53" occupancy="12.27" noStops="0" speed="19.11" entered="20" emitted="0" left="21" flow="1206.07"/>
   </interval>
   <interval begin="540" end="600" id="dump_60">
      <edge id=":1/1_0" traveltime="0.16" sampledSeconds="3.32" density="18.24" occupancy="12.77" noStops="0" speed="19.18" entered="21" emitted="0" left="21" flow="1260.00"/>
      <edge id=":10/1_1" traveltime="0.16" sampledSeconds="3.18" density="17.48" occupancy="12.24" noStops="0" speed="19.07" entered="20" emitted="0" left="20" flow="1200.00"/>
      <edge id=":2/1_0" traveltime="0.16" sampledSeconds="3.53" density="19.40" occupancy="13.58" noStops="0" speed="19.00" entered="22" emitted="0" left="22" flow="1327.09"/>
      <edge id=":3/1_0" traveltime="0.16" sampledSeconds="3.16" density="17.36" occupancy="12.16" noStops="0" speed="19.20" entered="20" emitted="0" left="20" flow="1200.00"/>
      <edge id=":4/1_0" traveltime="0.16" sampledSeconds="3.19" density="17.52" occupancy="12.27" noStops="0" speed="19.02" entered="20" emitted="0" left="20" flow="1200.00"/>
      <edge id=":5/1_0" traveltime="0.16" sampledSeconds="3.18" density="17.48" occupancy="12.24" noStops="0" speed="19.07" entered="20" emitted="0" left="20" flow="1200.00"/>
      <edge id=":6/1_0" traveltime="0.16" sampledSeconds="3.16" density="17.39" occupancy="12.17" noStops="0" speed="19.17" entered="20" emitted="0" left="20" flow="1200.00"/>
      <edge id=":7/1_1" traveltime="0.16" sampledSeconds="3.15" density="17.33" occupancy="12.13" noStops="0" speed="19.23" entered="20" emitted="0" left="20" flow="1200.00"/>
      <edge id=":8/1_1" traveltime="0.16" sampledSeconds="3.33" density="18.32" occupancy="12.83" noStops="0" speed="19.10" entered="21" emitted="0" left="21" flow="1260.00"/>
      <edge id=":9/1_1" traveltime="0.16" sampledSeconds="3.18" density="17.47" occupancy="12.23" noStops="0" speed="19.08" entered="20" emitted="0" left="20" flow="1200.00"/>
      <edge id="1/1to2/1" traveltime="51.24" sampledSeconds="1104.77" density="18.79" occupancy="13.15" noStops="0" speed="19.12" entered="21" emitted="0" left="22" flow="1293.65"/>
      <edge id="10/1to1/1" traveltime="51.25" sampledSeconds="1029.61" density="17.51" occupancy="12.26" noStops="0" speed="19.12" entered="20" emitted="0" left="21" flow="1205.32"/>
      <edge id="2/1to3/1" traveltime="51.26" sampledSeconds="1068.57" density="18.17" occupancy="12.72" noStops="0" speed="19.12" entered="22" emitted="0" left="20" flow="1250.85"/>
      <edge id="3/1to4/1" traveltime="51.21" sampledSeconds="1023.28" density="17.40" occupancy="12.18" noStops="0" speed="19.14" entered="20" emitted="0" left="20" flow="1199.03"/>
      <edge id="4/1to5/1" traveltime="51.23" sampledSeconds="1023.62" density="17.41" occupancy="12.19" noStops="0" speed="19.13" entered="20" emitted="0" left="20" flow="1198.96"/>
      <edge id="5/1to6/1" traveltime="51.19" sampledSeconds="1023.75" density="17.41" occupancy="12.19" noStops="0" speed="19.14" entered="20" emitted="0" left="20" flow="1199.98"/>
      <edge id="6/1to7/1" traveltime="51.17" sampledSeconds="1025.67" density="17.44" occupancy="12.21" noStops="0" speed="19.15" entered="20" emitted="0" left="20" flow="1202.65"/>
      <edge id="7/1to8/1" traveltime="51.27" sampledSeconds="1034.02" density="17.59" occupancy="12.31" noStops="0" speed="19.11" entered="20" emitted="0" left="21" flow="1210.17"/>
      <edge id="8/1to9/1" traveltime="51.29" sampledSeconds="1036.95" density="17.64" occupancy="12.35" noStops="0" speed="19.11" entered="21" emitted="0" left="20" flow="1213.01"/>
      <edge id="9/1to10/1" traveltime="51.22" sampledSeconds="1037.40" density="17.64" occupancy="12.35" noStops="0" speed="19.13" entered="20" emitted="0" left="20" flow="1215.25"/>
   </interval>
   <interval begin="600" end="660" id="dump_60">
      <edge id=":1/1_0" traveltime="0.16" sampledSeconds="3.16" density="17.38" occupancy="12.17" noStops="0" speed="19.18" entered="20" emitted="0" left="20" flow="1200.00"/>
      <edge id=":10/1_1" traveltime="0.16" sampledSeconds="3.16" density="17.37" occupancy="12.16" noStops="0" speed="19.19" entered="20" emitted="0" left="20" flow="1200.00"/>
      <edge id=":2/1_0" traveltime="0.16" sampledSeconds="3.21" density="17.67" occupancy="12.37" noStops="0" speed="19.24" entered="20" emitted="0" left="21" flow="1224.28"/>
      <edge id=":3/1_0" traveltime="0.16" sampledSeconds="3.66" density="20.15" occupancy="14.10" noStops="0" speed="19.03" entered="23" emitted="0" left="23" flow="1380.00"/>
      <edge id=":4/1_0" traveltime="0.16" sampledSeconds="3.15" density="17.35" occupancy="12.14" noStops="0" speed="19.22" entered="20" emitted="0" left="20" flow="1200.00"/>
      <edge id=":5/1_0" traveltime="0.16" sampledSeconds="3.19" density="17.56" occupancy="12.29" noStops="0" speed="18.98" entered="20" emitted="0" left="20" flow="1200.00"/>
      <edge id=":6/1_0" traveltime="0.16" sampledSeconds="3.18" density="17.50" occupancy="12.25" noStops="0" speed="19.04" entered="20" emitted="0" left="20" flow="1200.00"/>
      <edge id=":7/1_1" traveltime="0.16" sampledSeconds="3.18" density="17.51" occupancy="12.25" noStops="0" speed="19.04" entered="20" emitted="0" left="20" flow="1200.00"/>
      <edge id=":8/1_1" traveltime="0.16" sampledSeconds="3.15" density="17.34" occupancy="12.14" noStops="0" speed="19.22" entered="20" emitted="0" left="20" flow="1200.00"/>
      <edge id=":9/1_1" traveltime="0.16" sampledSeconds="3.35" density="18.40" occupancy="12.88" noStops="0" speed="19.02" entered="21" emitted="0" left="21" flow="1260.00"/>
      <edge id="1/1to2/1" traveltime="51.20" sampledSeconds="1031.06" density="17.54" occupancy="12.28" noStops="0" speed="19.14" entered="20" emitted="0" left="20" flow="1208.19"/>
      <edge id="10/1to1/1" traveltime="51.22" sampledSeconds="1034.89" density="17.60" occupancy="12.32" noStops="0" speed="19.13" entered="20" emitted="0" left="20" flow="1212.21"/>
      <edge id="2/1to3/1" traveltime="51.25" sampledSeconds="1087.94" density="18.50" occupancy="12.95" noStops="0" speed="19.12" entered="21" emitted="0" left="23" flow="1273.62"/>
      <edge id="3/1to4/1" traveltime="51.24" sampledSeconds="1085.03" density="18.45" occupancy="12.92" noStops="0" speed="19.13" entered="23" emitted="0" left="20" flow="1270.59"/>
      <edge id="4/1to5/1" traveltime="51.22" sampledSeconds="1024.67" density="17.43" occupancy="12.20" noStops="0" speed="19.13" entered="20" emitted="0" left="20" flow="1200.30"/>
      <edge id="5/1to6/1" traveltime="51.23" sampledSeconds="1024.15" density="17.42" occupancy="12.19" noStops="0" speed="19.13" entered="20" emitted="0" left="20" flow="1199.53"/>
      <edge id="6/1to7/1" traveltime="51.27" sampledSeconds="1025.23" density="17.44" occupancy="12.21" noStops="0" speed="19.11" entered="20" emitted="0" left="20" flow="1199.85"/>
      <edge id="7/1to8/1" traveltime="51.26" sampledSeconds="1022.81" density="17.40" occupancy="12.18" noStops="0" speed="19.12" entered="20" emitted="0" left="20" flow="1197.27"/>
      <edge id="8/1to9/1" traveltime="51.25" sampledSeconds="1032.97" density="17.57" occupancy="12.30" noStops="0" speed="19.12" entered="20" emitted="0" left="21" flow="1209.38"/>
      <edge id="9/1to10/1" traveltime="51.22" sampledSeconds="1038.87" density="17.67" occupancy="12.37" noStops="0" speed="19.13" entered="21" emitted="0" left="20" flow="1216.92"/>
   </interval>
   <interval begin="660" end="720" id="dump_60">
      <edge id=":1/1_0" traveltime="0.16" sampledSeconds="3.19" density="17.54" occupancy="12.28" noStops="0" speed="19.00" entered="20" emitted="0" left="20" flow="1200.00"/>
      <edge id=":10/1_1" traveltime="0.16" sampledSeconds="3.19" density="17.52" occupancy="12.27" noStops="0" speed="19.02" entered="20" emitted="0" left="20" flow="1200.00"/>
      <edge id=":2/1_0" traveltime="0.16" sampledSeconds="3.21" density="17.65" occupancy="12.36" noStops="0" speed="18.88" entered="20" emitted="0" left="20" flow="1200.00"/>
      <edge id=":3/1_0" traveltime="0.16" sampledSeconds="3.01" density="16.55" occupancy="11.59" noStops="0" speed="19.13" entered="19" emitted="0" left="19" flow="1140.00"/>
      <edge id=":4/1_0" traveltime="0.16" sampledSeconds="3.59" density="19.75" occupancy="13.82" noStops="0" speed="18.57" entered="22" emitted="0" left="22" flow="1320.00"/>
      <edge id=":5/1_0" traveltime="0.16" sampledSeconds="3.17" density="17.46" occupancy="12.22" noStops="0" speed="19.09" entered="20" emitted="0" left="20" flow="1200.00"/>
      <edge id=":6/1_0" traveltime="0.16" sampledSeconds="3.18" density="17.47" occupancy="12.23" noStops="0" speed="19.07" entered="20" emitted="0" left="20" flow="1200.00"/>
      <edge id=":7/1_1" traveltime="0.16" sampledSeconds="3.17" density="17.45" occupancy="12.22" noStops="0" speed="19.10" entered="20" emitted="0" left="20" flow="1200.00"/>
      <edge id=":8/1_1" traveltime="0.16" sampledSeconds="3.17" density="17.42" occupancy="12.19" noStops="0" speed="19.14" entered="20" emitted="0" left="20" flow="1200.00"/>
      <edge id=":9/1_1" traveltime="0.16" sampledSeconds="3.05" density="16.75" occupancy="11.73" noStops="0" speed="18.91" entered="19" emitted="0" left="19" flow="1140.00"/>
      <edge id="1/1to2/1" traveltime="51.27" sampledSeconds="1031.14" density="17.54" occupancy="12.28" noStops="0" speed="19.11" entered="20" emitted="0" left="20" flow="1206.75"/>
      <edge id="10/1to1/1" traveltime="51.25" sampledSeconds="1040.34" density="17.69" occupancy="12.39" noStops="0" speed="19.12" entered="20" emitted="0" left="20" flow="1217.95"/>
      <edge id="2/1to3/1" traveltime="51.24" sampledSeconds="1037.07" density="17.64" occupancy="12.35" noStops="0" speed="19.12" entered="20" emitted="0" left="19" flow="1214.28"/>
      <edge id="3/1to4/1" traveltime="51.35" sampledSeconds="1071.06" density="18.22" occupancy="12.75" noStops="0" speed="19.08" entered="19" emitted="0" left="22" flow="1251.42"/>
      <edge id="4/1to5/1" traveltime="51.27" sampledSeconds="1101.31" density="18.73" occupancy="13.11" noStops="0" speed="19.11" entered="22" emitted="0" left="20" flow="1288.88"/>