<?xml version="1.0"?>

<!-- generated on 07/22/10 13:13:13 by SUMO sumo Version dev-SVN-r8163
<configuration>

    <input>
        <net-file value="net.net.xml"/>
        <route-files value="input_routes.rou.xml"/>
        <additional-files value="input_additional.add.xml"/>
    </input>

    <time>
        <begin value="0"/>
        <end value="10000"/>
    </time>

    <report>
        <no-duration-log value="true"/>
        <no-step-log value="true"/>
    </report>

</configuration>
-->

<netstats>
    <interval begin="0.00" end="60.00" id="dump_60">
        <edge id="1/1to2/1" sampledSeconds="630.85" traveltime="60.25" density="10.73" occupancy="7.51" waitingTime="0.00" speed="16.26" departed="21" arrived="0" entered="0" left="2" laneChangedFrom="0" laneChangedTo="0"/>
        <edge id="2/1to3/1" sampledSeconds="3.83" traveltime="50.77" density="0.07" occupancy="0.05" waitingTime="0.00" speed="19.30" departed="0" arrived="0" entered="2" left="0" laneChangedFrom="0" laneChangedTo="0"/>
    </interval>
    <interval begin="60.00" end="120.00" id="dump_60">
        <edge id="1/1to2/1" sampledSeconds="1166.07" traveltime="56.10" density="19.83" occupancy="13.88" waitingTime="0.00" speed="17.47" departed="21" arrived="0" entered="0" left="20" laneChangedFrom="0" laneChangedTo="0"/>
        <edge id="2/1to3/1" sampledSeconds="691.27" traveltime="51.19" density="11.76" occupancy="8.23" waitingTime="0.00" speed="19.14" departed="0" arrived="0" entered="20" left="5" laneChangedFrom="0" laneChangedTo="0"/>
        <edge id="3/1to4/1" sampledSeconds="29.69" traveltime="51.19" density="0.50" occupancy="0.35" waitingTime="0.00" speed="19.14" departed="0" arrived="0" entered="5" left="0" laneChangedFrom="0" laneChangedTo="0"/>
    </interval>
    <interval begin="120.00" end="180.00" id="dump_60">
        <edge id="1/1to2/1" sampledSeconds="1140.26" traveltime="56.14" density="19.39" occupancy="13.58" waitingTime="0.00" speed="17.45" departed="20" arrived="0" entered="0" left="21" laneChangedFrom="0" laneChangedTo="0"/>
        <edge id="2/1to3/1" sampledSeconds="1071.77" traveltime="51.19" density="18.23" occupancy="12.76" waitingTime="0.00" speed="19.14" departed="0" arrived="0" entered="21" left="20" laneChangedFrom="0" laneChangedTo="0"/>
        <edge id="3/1to4/1" sampledSeconds="818.01" traveltime="51.20" density="13.91" occupancy="9.74" waitingTime="0.00" speed="19.14" departed="0" arrived="0" entered="20" left="8" laneChangedFrom="0" laneChangedTo="0"/>
        <edge id="4/1to5/1" sampledSeconds="83.21" traveltime="51.22" density="1.42" occupancy="0.99" waitingTime="0.00" speed="19.13" departed="0" arrived="0" entered="8" left="0" laneChangedFrom="0" laneChangedTo="0"/>
    </interval>
    <interval begin="180.00" end="240.00" id="dump_60">
        <edge id="1/1to2/1" sampledSeconds="1138.89" traveltime="56.06" density="19.37" occupancy="13.56" waitingTime="0.00" speed="17.48" departed="21" arrived="0" entered="0" left="21" laneChangedFrom="0" laneChangedTo="0"/>
        <edge id="2/1to3/1" sampledSeconds="1044.57" traveltime="51.24" density="17.77" occupancy="12.44" waitingTime="0.00" speed="19.13" departed="0" arrived="0" entered="21" left="21" laneChangedFrom="0" laneChangedTo="0"/>
        <edge id="3/1to4/1" sampledSeconds="1071.72" traveltime="51.25" density="18.23" occupancy="12.76" waitingTime="0.00" speed="19.12" departed="0" arrived="0" entered="21" left="21" laneChangedFrom="0" laneChangedTo="0"/>
        <edge id="4/1to5/1" sampledSeconds="917.83" traveltime="51.24" density="15.61" occupancy="10.93" waitingTime="0.00" speed="19.12" departed="0" arrived="0" entered="21" left="11" laneChangedFrom="0" laneChangedTo="0"/>
        <edge id="5/1to6/1" sampledSeconds="162.30" traveltime="51.23" density="2.76" occupancy="1.93" waitingTime="0.00" speed="19.13" departed="0" arrived="0" entered="11" left="0" laneChangedFrom="0" laneChangedTo="0"/>
    </interval>
    <interval begin="240.00" end="300.00" id="dump_60">
        <edge id="1/1to2/1" sampledSeconds="1115.40" traveltime="56.05" density="18.97" occupancy="13.28" waitingTime="0.00" speed="17.48" departed="20" arrived="0" entered="0" left="20" laneChangedFrom="0" laneChangedTo="0"/>
        <edge id="2/1to3/1" sampledSeconds="1046.74" traveltime="51.22" density="17.80" occupancy="12.46" waitingTime="0.00" speed="19.13" departed="0" arrived="0" entered="20" left="21" laneChangedFrom="0" laneChangedTo="0"/>
        <edge id="3/1to4/1" sampledSeconds="1045.57" traveltime="51.23" density="17.78" occupancy="12.45" waitingTime="0.00" speed="19.13" departed="0" arrived="0" entered="21" left="20" laneChangedFrom="0" laneChangedTo="0"/>
        <edge id="4/1to5/1" sampledSeconds="1067.18" traveltime="51.24" density="18.15" occupancy="12.71" waitingTime="0.00" speed="19.13" departed="0" arrived="0" entered="20" left="21" laneChangedFrom="0" laneChangedTo="0"/>
        <edge id="5/1to6/1" sampledSeconds="991.17" traveltime="51.22" density="16.86" occupancy="11.80" waitingTime="0.00" speed="19.13" departed="0" arrived="0" entered="21" left="14" laneChangedFrom="0" laneChangedTo="0"/>
        <edge id="6/1to7/1" sampledSeconds="268.72" traveltime="51.20" density="4.57" occupancy="3.20" waitingTime="0.00" speed="19.14" departed="0" arrived="0" entered="14" left="0" laneChangedFrom="0" laneChangedTo="0"/>
    </interval>
    <interval begin="300.00" end="360.00" id="dump_60">
        <edge id="1/1to2/1" sampledSeconds="1144.65" traveltime="56.06" density="19.47" occupancy="13.63" waitingTime="0.00" speed="17.48" departed="20" arrived="0" entered="0" left="20" laneChangedFrom="0" laneChangedTo="0"/>
        <edge id="2/1to3/1" sampledSeconds="1026.54" traveltime="51.22" density="17.46" occupancy="12.22" waitingTime="0.00" speed="19.13" departed="0" arrived="0" entered="20" left="20" laneChangedFrom="0" laneChangedTo="0"/>
        <edge id="3/1to4/1" sampledSeconds="1041.33" traveltime="51.24" density="17.71" occupancy="12.40" waitingTime="0.00" speed="19.13" departed="0" arrived="0" entered="20" left="21" laneChangedFrom="0" laneChangedTo="0"/>
        <edge id="4/1to5/1" sampledSeconds="1049.28" traveltime="51.23" density="17.85" occupancy="12.49" waitingTime="0.00" speed="19.13" departed="0" arrived="0" entered="21" left="20" laneChangedFrom="0" laneChangedTo="0"/>
        <edge id="5/1to6/1" sampledSeconds="1061.75" traveltime="51.22" density="18.06" occupancy="12.64" waitingTime="0.00" speed="19.13" departed="0" arrived="0" entered="20" left="21" laneChangedFrom="0" laneChangedTo="0"/>
        <edge id="6/1to7/1" sampledSeconds="1040.61" traveltime="51.23" density="17.70" occupancy="12.39" waitingTime="0.00" speed="19.13" departed="0" arrived="0" entered="21" left="17" laneChangedFrom="0" laneChangedTo="0"/>
        <edge id="7/1to8/1" sampledSeconds="399.07" traveltime="51.22" density="6.79" occupancy="4.75" waitingTime="0.00" speed="19.13" departed="0" arrived="0" entered="17" left="0" laneChangedFrom="0" laneChangedTo="0"/>
    </interval>
    <interval begin="360.00" end="420.00" id="dump_60">
        <edge id="1/1to2/1" sampledSeconds="1131.65" traveltime="56.11" density="19.25" occupancy="13.47" waitingTime="0.00" speed="17.46" departed="21" arrived="0" entered="0" left="21" laneChangedFrom="0" laneChangedTo="0"/>
        <edge id="2/1to3/1" sampledSeconds="1054.53" traveltime="51.23" density="17.94" occupancy="12.55" waitingTime="0.00" speed="19.13" departed="0" arrived="0" entered="21" left="20" laneChangedFrom="0" laneChangedTo="0"/>
        <edge id="3/1to4/1" sampledSeconds="1030.04" traveltime="51.19" density="17.52" occupancy="12.26" waitingTime="0.00" speed="19.14" departed="0" arrived="0" entered="20" left="20" laneChangedFrom="0" laneChangedTo="0"/>
        <edge id="4/1to5/1" sampledSeconds="1037.05" traveltime="51.25" density="17.64" occupancy="12.35" waitingTime="0.00" speed="19.12" departed="0" arrived="0" entered="20" left="21" laneChangedFrom="0" laneChangedTo="0"/>
        <edge id="5/1to6/1" sampledSeconds="1051.07" traveltime="51.20" density="17.88" occupancy="12.51" waitingTime="0.00" speed="19.14" departed="0" arrived="0" entered="21" left="20" laneChangedFrom="0" laneChangedTo="0"/>
        <edge id="6/1to7/1" sampledSeconds="1056.05" traveltime="51.22" density="17.96" occupancy="12.57" waitingTime="0.00" speed="19.13" departed="0" arrived="0" entered="20" left="21" laneChangedFrom="0" laneChangedTo="0"/>
        <edge id="7/1to8/1" sampledSeconds="1065.85" traveltime="51.24" density="18.13" occupancy="12.69" waitingTime="0.00" speed="19.13" departed="0" arrived="0" entered="21" left="19" laneChangedFrom="0" laneChangedTo="0"/>
        <edge id="8/1to9/1" sampledSeconds="549.33" traveltime="51.20" density="9.34" occupancy="6.54" waitingTime="0.00" speed="19.14" departed="0" arrived="0" entered="19" left="2" laneChangedFrom="0" laneChangedTo="0"/>
        <edge id="9/1to10/1" sampledSeconds="4.62" traveltime="51.82" density="0.08" occupancy="0.06" waitingTime="0.00" speed="18.91" departed="0" arrived="0" entered="2" left="0" laneChangedFrom="0" laneChangedTo="0"/>
    </interval>
    <interval begin="420.00" end="480.00" id="dump_60">
        <edge id="1/1to2/1" sampledSeconds="1147.62" traveltime="56.13" density="19.52" occupancy="13.66" waitingTime="0.00" speed="17.46" departed="21" arrived="0" entered="0" left="20" laneChangedFrom="0" laneChangedTo="0"/>
        <edge id="10/1to1/1" sampledSeconds="31.35" traveltime="51.34" density="0.53" occupancy="0.37" waitingTime="0.00" speed="19.09" departed="0" arrived="0" entered="5" left="0" laneChangedFrom="0" laneChangedTo="0"/>
        <edge id="2/1to3/1" sampledSeconds="1044.03" traveltime="51.20" density="17.76" occupancy="12.43" waitingTime="0.00" speed="19.14" departed="0" arrived="0" entered="20" left="20" laneChangedFrom="0" laneChangedTo="0"/>
        <edge id="3/1to4/1" sampledSeconds="1053.78" traveltime="51.20" density="17.92" occupancy="12.55" waitingTime="0.00" speed="19.14" departed="0" arrived="0" entered="20" left="20" laneChangedFrom="0" laneChangedTo="0"/>
        <edge id="4/1to5/1" sampledSeconds="1033.41" traveltime="51.23" density="17.58" occupancy="12.30" waitingTime="0.00" speed="19.13" departed="0" arrived="0" entered="20" left="20" laneChangedFrom="0" laneChangedTo="0"/>
        <edge id="5/1to6/1" sampledSeconds="1033.27" traveltime="51.22" density="17.57" occupancy="12.30" waitingTime="0.00" speed="19.13" departed="0" arrived="0" entered="20" left="21" laneChangedFrom="0" laneChangedTo="0"/>
        <edge id="6/1to7/1" sampledSeconds="1051.41" traveltime="51.24" density="17.88" occupancy="12.52" waitingTime="0.00" speed="19.13" departed="0" arrived="0" entered="20" left="20" laneChangedFrom="0" laneChangedTo="0"/>
        <edge id="7/1to8/1" sampledSeconds="1051.44" traveltime="51.18" density="17.88" occupancy="12.52" waitingTime="0.00" speed="19.15" departed="0" arrived="0" entered="20" left="22" laneChangedFrom="0" laneChangedTo="0"/>
        <edge id="8/1to9/1" sampledSeconds="1069.97" traveltime="51.18" density="18.20" occupancy="12.74" waitingTime="0.00" speed="19.15" departed="0" arrived="0" entered="22" left="21" laneChangedFrom="0" laneChangedTo="0"/>
        <edge id="9/1to10/1" sampledSeconds="698.24" traveltime="51.17" density="11.88" occupancy="8.31" waitingTime="0.00" speed="19.15" departed="0" arrived="0" entered="20" left="5" laneChangedFrom="0" laneChangedTo="0"/>
    </interval>
    <interval begin="480.00" end="540.00" id="dump_60">
        <edge id="1/1to2/1" sampledSeconds="1164.65" traveltime="54.30" density="19.81" occupancy="13.87" waitingTime="0.00" speed="18.05" departed="12" arrived="0" entered="8" left="22" laneChangedFrom="0" laneChangedTo="0"/>
        <edge id="10/1to1/1" sampledSeconds="822.77" traveltime="51.21" density="13.99" occupancy="9.80" waitingTime="0.00" speed="19.14" departed="0" arrived="0" entered="20" left="8" laneChangedFrom="0" laneChangedTo="0"/>
        <edge id="2/1to3/1" sampledSeconds="1057.51" traveltime="51.23" density="17.99" occupancy="12.59" waitingTime="0.00" speed="19.13" departed="0" arrived="0" entered="21" left="21" laneChangedFrom="0" laneChangedTo="0"/>
        <edge id="3/1to4/1" sampledSeconds="1046.20" traveltime="51.22" density="17.79" occupancy="12.46" waitingTime="0.00" speed="19.13" departed="0" arrived="0" entered="21" left="20" laneChangedFrom="0" laneChangedTo="0"/>
        <edge id="4/1to5/1" sampledSeconds="1050.45" traveltime="51.21" density="17.87" occupancy="12.51" waitingTime="0.00" speed="19.14" departed="0" arrived="0" entered="20" left="20" laneChangedFrom="0" laneChangedTo="0"/>
        <edge id="5/1to6/1" sampledSeconds="1039.17" traveltime="51.20" density="17.67" occupancy="12.37" waitingTime="0.00" speed="19.14" departed="0" arrived="0" entered="20" left="19" laneChangedFrom="0" laneChangedTo="0"/>
        <edge id="6/1to7/1" sampledSeconds="1032.18" traveltime="51.21" density="17.56" occupancy="12.29" waitingTime="0.00" speed="19.14" departed="0" arrived="0" entered="20" left="20" laneChangedFrom="0" laneChangedTo="0"/>
        <edge id="7/1to8/1" sampledSeconds="1049.46" traveltime="51.24" density="17.85" occupancy="12.49" waitingTime="0.00" speed="19.13" departed="0" arrived="0" entered="20" left="20" laneChangedFrom="0" laneChangedTo="0"/>
        <edge id="8/1to9/1" sampledSeconds="1047.07" traveltime="51.18" density="17.81" occupancy="12.47" waitingTime="0.00" speed="19.15" departed="0" arrived="0" entered="20" left="20" laneChangedFrom="0" laneChangedTo="0"/>
        <edge id="9/1to10/1" sampledSeconds="1071.28" traveltime="51.23" density="18.22" occupancy="12.75" waitingTime="0.00" speed="19.13" departed="0" arrived="0" entered="21" left="20" laneChangedFrom="0" laneChangedTo="0"/>
    </interval>
    <interval begin="540.00" end="600.00" id="dump_60">
        <edge id="1/1to2/1" sampledSeconds="1082.01" traveltime="51.21" density="18.40" occupancy="12.88" waitingTime="0.00" speed="19.14" departed="0" arrived="0" entered="21" left="21" laneChangedFrom="0" laneChangedTo="0"/>
        <edge id="10/1to1/1" sampledSeconds="1071.11" traveltime="51.19" density="18.22" occupancy="12.75" waitingTime="0.00" speed="19.14" departed="0" arrived="0" entered="21" left="21" laneChangedFrom="0" laneChangedTo="0"/>
        <edge id="2/1to3/1" sampledSeconds="1107.65" traveltime="51.22" density="18.84" occupancy="13.19" waitingTime="0.00" speed="19.13" departed="0" arrived="0" entered="22" left="22" laneChangedFrom="0" laneChangedTo="0"/>
        <edge id="3/1to4/1" sampledSeconds="1063.10" traveltime="51.21" density="18.08" occupancy="12.66" waitingTime="0.00" speed="19.14" departed="0" arrived="0" entered="22" left="21" laneChangedFrom="0" laneChangedTo="0"/>
        <edge id="4/1to5/1" sampledSeconds="1052.58" traveltime="51.20" density="17.90" occupancy="12.53" waitingTime="0.00" speed="19.14" departed="0" arrived="0" entered="21" left="20" laneChangedFrom="0" laneChangedTo="0"/>
        <edge id="5/1to6/1" sampledSeconds="1044.44" traveltime="51.24" density="17.76" occupancy="12.43" waitingTime="0.00" speed="19.12" departed="0" arrived="0" entered="20" left="21" laneChangedFrom="0" laneChangedTo="0"/>
        <edge id="6/1to7/1" sampledSeconds="1043.15" traveltime="51.19" density="17.74" occupancy="12.42" waitingTime="0.00" speed="19.14" departed="0" arrived="0" entered="21" left="20" laneChangedFrom="0" laneChangedTo="0"/>
        <edge id="7/1to8/1" sampledSeconds="1031.54" traveltime="51.25" density="17.54" occupancy="12.28" waitingTime="0.00" speed="19.12" departed="0" arrived="0" entered="20" left="20" laneChangedFrom="0" laneChangedTo="0"/>
        <edge id="8/1to9/1" sampledSeconds="1046.33" traveltime="51.20" density="17.80" occupancy="12.46" waitingTime="0.00" speed="19.14" departed="0" arrived="0" entered="20" left="21" laneChangedFrom="0" laneChangedTo="0"/>
        <edge id="9/1to10/1" sampledSeconds="1045.09" traveltime="51.22" density="17.77" occupancy="12.44" waitingTime="0.00" speed="19.13" departed="0" arrived="0" entered="21" left="21" laneChangedFrom="0" laneChangedTo="0"/>
    </interval>
    <interval begin="600.00" end="660.00" id="dump_60">
        <edge id="1/1to2/1" sampledSeconds="1068.13" traveltime="51.23" density="18.17" occupancy="12.72" waitingTime="0.00" speed="19.13" departed="0" arrived="0" entered="20" left="21" laneChangedFrom="0" laneChangedTo="0"/>
        <edge id="10/1to1/1" sampledSeconds="1044.62" traveltime="51.21" density="17.77" occupancy="12.44" waitingTime="0.00" speed="19.14" departed="0" arrived="0" entered="21" left="20" laneChangedFrom="0" laneChangedTo="0"/>
        <edge id="2/1to3/1" sampledSeconds="1078.07" traveltime="51.23" density="18.34" occupancy="12.83" waitingTime="0.00" speed="19.13" departed="0" arrived="0" entered="21" left="21" laneChangedFrom="0" laneChangedTo="0"/>
        <edge id="3/1to4/1" sampledSeconds="1109.53" traveltime="51.19" density="18.87" occupancy="13.21" waitingTime="0.00" speed="19.14" departed="0" arrived="0" entered="21" left="21" laneChangedFrom="0" laneChangedTo="0"/>
        <edge id="4/1to5/1" sampledSeconds="1067.59" traveltime="51.22" density="18.16" occupancy="12.71" waitingTime="0.00" speed="19.13" departed="0" arrived="0" entered="21" left="21" laneChangedFrom="0" laneChangedTo="0"/>
        <edge id="5/1to6/1" sampledSeconds="1059.45" traveltime="51.23" density="18.02" occupancy="12.61" waitingTime="0.00" speed="19.13" departed="0" arrived="0" entered="21" left="20" laneChangedFrom="0" laneChangedTo="0"/>
        <edge id="6/1to7/1" sampledSeconds="1039.70" traveltime="51.22" density="17.68" occupancy="12.38" waitingTime="0.00" speed="19.13" departed="0" arrived="0" entered="20" left="21" laneChangedFrom="0" laneChangedTo="0"/>
        <edge id="7/1to8/1" sampledSeconds="1047.04" traveltime="51.21" density="17.81" occupancy="12.47" waitingTime="0.00" speed="19.14" departed="0" arrived="0" entered="21" left="20" laneChangedFrom="0" laneChangedTo="0"/>
        <edge id="8/1to9/1" sampledSeconds="1030.22" traveltime="51.21" density="17.52" occupancy="12.27" waitingTime="0.00" speed="19.14" departed="0" arrived="0" entered="20" left="20" laneChangedFrom="0" laneChangedTo="0"/>
        <edge id="9/1to10/1" sampledSeconds="1043.00" traveltime="51.25" density="17.74" occupancy="12.42" waitingTime="0.00" speed="19.12" departed="0" arrived="0" entered="20" left="21" laneChangedFrom="0" laneChangedTo="0"/>
    </interval>
    <interval begin="660.00" end="720.00" id="dump_60">
        <edge id="1/1to2/1" sampledSeconds="1047.97" traveltime="51.27" density="17.82" occupancy="12.48" waitingTime="0.00" speed="19.11" departed="0" arrived="0" entered="20" left="21" laneChangedFrom="0" laneChangedTo="0"/>
        <edge id="10/1to1/1" sampledSeconds="1038.30" traveltime="51.22" density="17.66" occupancy="12.36" waitingTime="0.00" speed="19.13" departed="0" arrived="0" entered="20" left="20" laneChangedFrom="0" laneChangedTo="0"/>
        <edge id="2/1to3/1" sampledSeconds="1061.45" traveltime="51.24" density="18.05" occupancy="12.64" waitingTime="0.00" speed="19.12" departed="0" arrived="0" entered="20" left="21" laneChangedFrom="0" laneChangedTo="0"/>
        <edge id="3/1to4/1" sampledSeconds="1072.77" traveltime="51.20" density="18.25" occupancy="12.77" waitingTime="0.00" speed="19.14" departed="0" arrived="0" entered="21" left="22" laneChangedFrom="0" laneChangedTo="0"/>
        <edge id="4/1to5/1" sampledSeconds="1110.91" traveltime="51.23" density="18.89" occupancy="13.23" waitingTime="0.00" speed="19.13" departed="0" arrived="0" entered="22" left="22" laneChangedFrom="0" laneChangedTo="0"/>
        <edge id="5/1to6/1" sampledSeconds="1074.28" traveltime="51.25" density="18.27" occupancy="12.79" waitingTime="0.00" speed="19.12" departed="0" arrived="0" entered="22" left="21" laneChangedFrom="0" laneChangedTo="0"/>
        <edge id="6/1to7/1" sampledSeconds="1057.30" traveltime="51.19" density="17.98" occupancy="12.59" waitingTime="0.00" speed="19.14" departed="0" arrived="0" entered="21" left="21" laneChangedFrom="0" laneChangedTo="0"/>
        <edge id="7/1to8/1" sampledSeconds="1041.23" traveltime="51.23" density="17.71" occupancy="12.40" waitingTime="0.00" speed="19.13" departed="0" arrived="0" entered="21" left="21" laneChangedFrom="0" laneChangedTo="0"/>
        <edge id="8/1to9/1" sampledSeconds="1051.04" traveltime="51.22" density="17.88" occupancy="12.51" waitingTime="0.00" speed="19.13" departed="0" arrived="0" entered="21" left="20" laneChangedFrom="0" laneChangedTo="0"/>
        <edge id="9/1to10/1" sampledSeconds="1031.65" traveltime="51.24" density="17.55" occupancy="12.28" waitingTime="0.00" speed="19.12" departed="0" arrived="0" entered="20" left="20" laneChangedFrom="0" laneChangedTo="0"/>
    </interval>
    <interval begin="720.00" end="780.00" id="dump_60">
        <edge id="1/1to2/1" sampledSeconds="1034.82" traveltime="51.23" density="17.60" occupancy="12.32" waitingTime="0.00" speed="19.13" departed="0" arrived="0" entered="21" left="20" laneChangedFrom="0" laneChangedTo="0"/>
        <edge id="10/1to1/1" sampledSeconds="1033.33" traveltime="51.23" density="17.57" occupancy="12.30" waitingTime="0.00" speed="19.13" departed="0" arrived="0" entered="20" left="21" laneChangedFrom="0" laneChangedTo="0"/>
        <edge id="2/1to3/1" sampledSeconds="1050.33" traveltime="51.23" density="17.86" occupancy="12.50" waitingTime="0.00" speed="19.13" departed="0" arrived="0" entered="21" left="20" laneChangedFrom="0" laneChangedTo="0"/>
        <edge id="3/1to4/1" sampledSeconds="1055.63" traveltime="51.24" density="17.95" occupancy="12.57" waitingTime="0.00" speed="19.12" departed="0" arrived="0" entered="20" left="21" laneChangedFrom="0" laneChangedTo="0"/>
        <edge id="4/1to5/1" sampledSeconds="1069.40" traveltime="51.21" density="18.19" occupancy="12.73" waitingTime="0.00" speed="19.13" departed="0" arrived="0" entered="21" left="21" laneChangedFrom="0" laneChangedTo="0"/>
        <edge id="5/1to6/1" sampledSeconds="1105.58" traveltime="51.25" density="18.80" occupancy="13.16" waitingTime="0.00" speed="19.12" departed="0" arrived="0" entered="21" left="22" laneChangedFrom="0" laneChangedTo="0"/>
        <edge id="6/1to7/1" sampledSeconds="1087.88" traveltime="51.25" density="18.50" occupancy="12.95" waitingTime="0.00" speed="19.12" departed="0" arrived="0" entered="22" left="20" laneChangedFrom="0" laneChangedTo="0"/>
        <edge id="7/1to8/1" sampledSeconds="1054.58" traveltime="51.22" density="17.94" occupancy="12.56" waitingTime="0.00" speed="19.13" departed="0" arrived="0" entered="20" left="21" laneChangedFrom="0" laneChangedTo="0"/>
        <edge id="8/1to9/1" sampledSeconds="1042.72" traveltime="51.23" density="17.73" occupancy="12.41" waitingTime="0.00" speed="19.13" departed="0" arrived="0" entered="20" left="21" laneChangedFrom="0" laneChangedTo="0"/>
        <edge id="9/1to10/1" sampledSeconds="1053.06" traveltime="51.22" density="17.91" occupancy="12.54" waitingTime="0.00" speed="19.13" departed="0" arrived="0" entered="21" left="20" laneChangedFrom="0" laneChangedTo="0"/>
    </interval>
    <interval begin="780.00" end="840.00" id="dump_60">
        <edge id="1/1to2/1" sampledSeconds="1034.75" traveltime="51.28" density="17.60" occupancy="12.32" waitingTime="0.00" speed="19.11" departed="0" arrived="0" entered="20" left="20" laneChangedFrom="0" laneChangedTo="0"/>
        <edge id="10/1to1/1" sampledSeconds="1053.78" traveltime="51.24" density="17.92" occupancy="12.55" waitingTime="0.00" speed="19.12" departed="0" arrived="0" entered="20" left="21" laneChangedFrom="0" laneChangedTo="0"/>
        <edge id="2/1to3/1" sampledSeconds="1033.59" traveltime="51.20" density="17.58" occupancy="12.31" waitingTime="0.00" speed="19.14" departed="0" arrived="0" entered="20" left="21" laneChangedFrom="0" laneChangedTo="0"/>
        <edge id="3/1to4/1" sampledSeconds="1048.93" traveltime="51.21" density="17.84" occupancy="12.49" waitingTime="0.00" speed="19.14" departed="0" arrived="0" entered="21" left="20" laneChangedFrom="0" laneChangedTo="0"/>
        <edge id="4/1to5/1" sampledSeconds="1051.50" traveltime="51.23" density="17.88" occupancy="12.52" waitingTime="0.00" speed="19.13" departed="0" arrived="0" entered="20" left="21" laneChangedFrom="0" laneChangedTo="0"/>
        <edge id="5/1to6/1" sampledSeconds="1070.74" traveltime="51.21" density="18.21" occupancy="12.75" waitingTime="0.00" speed="19.14" departed="0" arrived="0" entered="21" left="21" laneChangedFrom="0" laneChangedTo="0"/>
        <edge id="6/1to7/1" sampledSeconds="1096.62" traveltime="51.17" density="18.65" occupancy="13.06" waitingTime="0.00" speed="19.15" departed="0" arrived="0" entered="21" left="22" laneChangedFrom="0" laneChangedTo="0"/>
        <edge id="7/1to8/1" sampledSeconds="1097.70" traveltime="51.22" density="18.67" occupancy="13.07" waitingTime="0.00" speed="19.13" departed="0" arrived="0" entered="22" left="20" laneChangedFrom="0" laneChangedTo="0"/>
        <edge id="8/1to9/1" sampledSeconds="1053.86" traveltime="51.24" density="17.92" occupancy="12.55" waitingTime="0.00" speed="19.13" departed="0" arrived="0" entered="21" left="20" laneChangedFrom="0" laneChangedTo="0"/>
        <edge id="9/1to10/1" sampledSeconds="1045.81" traveltime="51.21" density="17.79" occupancy="12.45" waitingTime="0.00" speed="19.14" departed="0" arrived="0" entered="20" left="21" laneChangedFrom="0" laneChangedTo="0"/>
    </interval>
    <interval begin="840.00" end="900.00" id="dump_60">
        <edge id="1/1to2/1" sampledSeconds="1052.37" traveltime="51.24" density="17.90" occupancy="12.53" waitingTime="0.00" speed="19.12" departed="0" arrived="0" entered="21" left="20" laneChangedFrom="0" laneChangedTo="0"/>
        <edge id="10/1to1/1" sampledSeconds="1049.42" traveltime="51.24" density="17.85" occupancy="12.49" waitingTime="0.00" speed="19.13" departed="0" arrived="0" entered="21" left="20" laneChangedFrom="0" laneChangedTo="0"/>
        <edge id="2/1to3/1" sampledSeconds="1038.14" traveltime="51.20" density="17.66" occupancy="12.36" waitingTime="0.00" speed="19.14" departed="0" arrived="0" entered="20" left="19" laneChangedFrom="0" laneChangedTo="0"/>
        <edge id="3/1to4/1" sampledSeconds="1030.98" traveltime="51.20" density="17.53" occupancy="12.27" waitingTime="0.00" speed="19.14" departed="0" arrived="0" entered="19" left="20" laneChangedFrom="0" laneChangedTo="0"/>
        <edge id="4/1to5/1" sampledSeconds="1048.69" traveltime="51.24" density="17.84" occupancy="12.49" waitingTime="0.00" speed="19.12" departed="0" arrived="0" entered="20" left="20" laneChangedFrom="0" laneChangedTo="0"/>
        <edge id="5/1to6/1" sampledSeconds="1048.58" traveltime="51.23" density="17.83" occupancy="12.48" waitingTime="0.00" speed="19.13" departed="0" arrived="0" entered="20" left="20" laneChangedFrom="0" laneChangedTo="0"/>
        <edge id="6/1to7/1" sampledSeconds="1070.55" traveltime="51.24" density="18.21" occupancy="12.75" waitingTime="0.00" speed="19.12" departed="0" arrived="0" entered="20" left="21" laneChangedFrom="0" laneChangedTo="0"/>
        <edge id="7/1to8/1" sampledSeconds="1088.77" traveltime="51.21" density="18.52" occupancy="12.96" waitingTime="0.00" speed="19.14" departed="0" arrived="0" entered="21" left="22" laneChangedFrom="0" laneChangedTo="0"/>
        <edge id="8/1to9/1" sampledSeconds="1105.59" traveltime="51.20" density="18.80" occupancy="13.16" waitingTime="0.00" speed="19.14" departed="0" arrived="0" entered="22" left="22" laneChangedFrom="0" laneChangedTo="0"/>
        <edge id="9/1to10/1" sampledSeconds="1054.36" traveltime="51.22" density="17.93" occupancy="12.55" waitingTime="0.00" speed="19.13" departed="0" arrived="0" entered="22" left="20" laneChangedFrom="0" laneChangedTo="0"/>
    </interval>
    <interval begin="900.00" end="960.00" id="dump_60">
        <edge id="1/1to2/1" sampledSeconds="1055.94" traveltime="51.22" density="17.96" occupancy="12.57" waitingTime="0.00" speed="19.13" departed="0" arrived="0" entered="20" left="20" laneChangedFrom="0" laneChangedTo="0"/>
        <edge id="10/1to1/1" sampledSeconds="1059.29" traveltime="51.20" density="18.02" occupancy="12.61" waitingTime="0.00" speed="19.14" departed="0" arrived="0" entered="22" left="20" laneChangedFrom="0" laneChangedTo="0"/>
        <edge id="2/1to3/1" sampledSeconds="1045.67" traveltime="51.26" density="17.78" occupancy="12.45" waitingTime="0.00" speed="19.12" departed="0" arrived="0" entered="20" left="21" laneChangedFrom="0" laneChangedTo="0"/>
        <edge id="3/1to4/1" sampledSeconds="1044.58" traveltime="51.25" density="17.77" occupancy="12.44" waitingTime="0.00" speed="19.12" departed="0" arrived="0" entered="21" left="20" laneChangedFrom="0" laneChangedTo="0"/>
        <edge id="4/1to5/1" sampledSeconds="1030.23" traveltime="51.25" density="17.52" occupancy="12.27" waitingTime="0.00" speed="19.12" departed="0" arrived="0" entered="20" left="20" laneChangedFrom="0" laneChangedTo="0"/>
        <edge id="5/1to6/1" sampledSeconds="1044.28" traveltime="51.22" density="17.76" occupancy="12.43" waitingTime="0.00" speed="19.13" departed="0" arrived="0" entered="20" left="21" laneChangedFrom="0" laneChangedTo="0"/>
        <edge id="6/1to7/1" sampledSeconds="1047.31" traveltime="51.24" density="17.81" occupancy="12.47" waitingTime="0.00" speed="19.12" departed="0" arrived="0" entered="21" left="20" laneChangedFrom="0" laneChangedTo="0"/>
        <edge id="7/1to8/1" sampledSeconds="1070.17" traveltime="51.19" density="18.20" occupancy="12.74" waitingTime="0.00" speed="19.14" departed="0" arrived="0" entered="20" left="21" laneChangedFrom="0" laneChangedTo="0"/>
        <edge id="8/1to9/1" sampledSeconds="1080.23" traveltime="51.24" density="18.37" occupancy="12.86" waitingTime="0.00" speed="19.13" departed="0" arrived="0" entered="21" left="21" laneChangedFrom="0" laneChangedTo="0"/>