<?xml version="1.0" encoding="UTF-8"?>

<!-- generated on 2023-11-09 16:02:21 by Eclipse SUMO netedit Version v1_19_0+0034-128786327d5
-->

<routes xmlns:xsi="http://www.w3.org/2001/XMLSchema-instance" xsi:noNamespaceSchemaLocation="http://sumo.dlr.de/xsd/routes_file.xsd">
    <!-- Routes -->
    <route id="route_0" edges="Edge0 Edge1 Edge2" color="yellow">
        <stop chargingStation="chargingStationA" duration="70.00" until="12.00" extension="10.00" triggered="person" parking="1" expected="custom line" permitted="A B" tripId="tripA" line="lineA" split="splitA" jump="4.00" actType="walking"/>
    </route>
    <route id="route_1" edges="EdgeCenter0 EdgeCenter1" color="yellow">
        <stop chargingStation="chargingStationB" duration="60.00" until="20.00" extension="20.00" triggered="container" parking="1" expected="conA conB" permitted="C D" expectedContainers="custom line" tripId="tripB" line="lineB" split="splitB" onDemand="1" jump="8.40" actType="singing"/>
    </route>
</routes>
