<?xml version="1.0" encoding="UTF-8"?>
<edges version="0.27" xmlns:xsi="http://www.w3.org/2001/XMLSchema-instance" xsi:noNamespaceSchemaLocation="http://sumo.dlr.de/xsd/edges_file.xsd">
    <edge id="-center" from="gneJ2" to="gneJ1" priority="1" numLanes="1" speed="13.89">
		<neigh lane="center_0"/>
	</edge>
    <edge id="-east" from="gneJ3" to="gneJ2" priority="1" numLanes="1" speed="13.89"/>
    <edge id="-west" from="gneJ1" to="gneJ0" priority="1" numLanes="1" speed="13.89"/>
    <edge id="center" from="gneJ1" to="gneJ2" priority="1" numLanes="1" speed="13.89">
		<neigh lane="-center_0"/>
	</edge>
    <edge id="east" from="gneJ2" to="gneJ3" priority="1" numLanes="1" speed="13.89"/>
    <edge id="west" from="gneJ0" to="gneJ1" priority="1" numLanes="1" speed="13.89"/>
</edges>
