<?xml version="1.0" encoding="UTF-8"?>

<!-- generated on Mon Feb 17 15:30:49 2020 by Eclipse SUMO netconvert Version v1_5_0+0130-ceb0a01
This data file and the accompanying materials
are made available under the terms of the Eclipse Public License v2.0
which accompanies this distribution, and is available at
http://www.eclipse.org/legal/epl-v20.html
SPDX-License-Identifier: EPL-2.0
<configuration xmlns:xsi="http://www.w3.org/2001/XMLSchema-instance" xsi:noNamespaceSchemaLocation="http://sumo.dlr.de/xsd/netconvertConfiguration.xsd">

    <input>
        <node-files value="input_nodes.nod.xml"/>
        <edge-files value="input_edges.edg.xml,input_edges2.edg.xml"/>
    </input>

    <output>
        <write-license value="true"/>
        <output-file value="net.net.xml"/>
    </output>

    <report>
        <xml-validation value="never"/>
        <aggregate-warnings value="5"/>
    </report>

</configuration>
-->

<net version="1.6" junctionCornerDetail="5" limitTurnSpeed="5.50" xmlns:xsi="http://www.w3.org/2001/XMLSchema-instance" xsi:noNamespaceSchemaLocation="http://sumo.dlr.de/xsd/net_file.xsd">

    <location netOffset="0.00,0.00" convBoundary="0.00,0.00,100.00,0.00" origBoundary="0.00,0.00,100.00,0.00" projParameter="!"/>

    <edge id=":1.30_0" function="internal">
        <lane id=":1.30_0_0" index="0" speed="28.00" length="0.10" shape="30.00,-4.80 30.00,-4.80"/>
        <lane id=":1.30_0_1" index="1" speed="28.00" length="0.10" shape="30.00,-1.60 30.00,-1.60"/>
    </edge>
    <edge id=":1.35_0" function="internal">
        <lane id=":1.35_0_0" index="0" speed="28.00" length="0.10" shape="35.00,-4.80 35.00,-4.80"/>
        <lane id=":1.35_0_1" index="1" speed="28.00" length="0.10" shape="35.00,-1.60 35.00,-1.60"/>
    </edge>

    <edge id="1" from="0" to="1.30" priority="-1">
        <lane id="1_0" index="0" speed="28.00" length="30.00" shape="0.00,-4.80 30.00,-4.80"/>
        <lane id="1_1" index="1" speed="28.00" length="30.00" shape="0.00,-1.60 30.00,-1.60"/>
    </edge>
    <edge id="1.30" from="1.30" to="1.35" priority="-1">
        <lane id="1.30_0" index="0" speed="28.00" length="5.00" shape="30.00,-4.80 35.00,-4.80"/>
        <lane id="1.30_1" index="1" speed="28.00" length="5.00" shape="30.00,-1.60 35.00,-1.60"/>
    </edge>
    <edge id="1.35" from="1.35" to="1" priority="-1">
        <lane id="1.35_0" index="0" speed="28.00" length="65.00" shape="35.00,-4.80 100.00,-4.80"/>
        <lane id="1.35_1" index="1" speed="28.00" length="65.00" shape="35.00,-1.60 100.00,-1.60"/>
    </edge>

    <junction id="0" type="dead_end" x="0.00" y="0.00" incLanes="" intLanes="" shape="0.00,0.00 0.00,-6.40"/>
    <junction id="1" type="dead_end" x="100.00" y="0.00" incLanes="1.35_0 1.35_1" intLanes="" shape="100.00,-6.40 100.00,0.00"/>
    <junction id="1.30" type="priority" x="30.00" y="0.00" incLanes="1_0 1_1" intLanes=":1.30_0_0 :1.30_0_1" shape="30.00,0.00 30.00,-6.40 30.00,0.00">
        <request index="0" response="00" foes="00" cont="0"/>
        <request index="1" response="00" foes="00" cont="0"/>
    </junction>
    <junction id="1.35" type="priority" x="35.00" y="0.00" incLanes="1.30_0 1.30_1" intLanes=":1.35_0_0 :1.35_0_1" shape="35.00,0.00 35.00,-6.40 35.00,0.00">
        <request index="0" response="00" foes="00" cont="0"/>
        <request index="1" response="00" foes="00" cont="0"/>
    </junction>

    <connection from="1" to="1.30" fromLane="0" toLane="0" via=":1.30_0_0" dir="s" state="M"/>
    <connection from="1" to="1.30" fromLane="1" toLane="1" via=":1.30_0_1" dir="s" state="M"/>
    <connection from="1.30" to="1.35" fromLane="0" toLane="0" via=":1.35_0_0" dir="s" state="M"/>
    <connection from="1.30" to="1.35" fromLane="1" toLane="1" via=":1.35_0_1" dir="s" state="M"/>

    <connection from=":1.30_0" to="1.30" fromLane="0" toLane="0" dir="s" state="M"/>
    <connection from=":1.30_0" to="1.30" fromLane="1" toLane="1" dir="s" state="M"/>
    <connection from=":1.35_0" to="1.35" fromLane="0" toLane="0" dir="s" state="M"/>
    <connection from=":1.35_0" to="1.35" fromLane="1" toLane="1" dir="s" state="M"/>

</net>
