<?xml version="1.0" encoding="UTF-8"?>

<!-- generated on 2025-07-02 13:53:51 by Eclipse SUMO netedit Version v1_23_1+0816-0b77c4bd3ad
<neteditConfiguration xmlns:xsi="http://www.w3.org/2001/XMLSchema-instance" xsi:noNamespaceSchemaLocation="http://sumo.dlr.de/xsd/neteditConfiguration.xsd">

    <input>
        <sumo-net-file value="net.net.xml"/>
    </input>

    <output>
        <output-file value="net.net.xml"/>
    </output>

    <processing>
        <geometry.min-radius.fix.railways value="false"/>
        <geometry.avoid-overlap value="false"/>
        <geometry.max-grade.fix value="false"/>
        <offset.disable-normalization value="true"/>
        <lefthand value="0"/>
    </processing>

    <junctions>
        <no-internal-links value="true"/>
        <no-turnarounds value="true"/>
        <junctions.corner-detail value="5"/>
        <junctions.limit-turn-speed value="5.50"/>
        <rectangular-lane-cut value="0"/>
    </junctions>

    <pedestrian>
        <walkingareas value="0"/>
    </pedestrian>

</neteditConfiguration>
-->

<net version="1.20" junctionCornerDetail="5" limitTurnSpeed="5.50" avoidOverlap="0" xmlns:xsi="http://www.w3.org/2001/XMLSchema-instance" xsi:noNamespaceSchemaLocation="http://sumo.dlr.de/xsd/net_file.xsd">

    <location netOffset="0.00,0.00" convBoundary="-500.00,-100.00,300.00,400.00" origBoundary="-10000000000.00,-10000000000.00,10000000000.00,10000000000.00" projParameter="!"/>

    <edge id="-E0" from="J1" to="J18" priority="-1" spreadType="center" bidi="E0">
        <lane id="-E0_0" index="0" allow="rail" speed="13.89" length="19.47" shape="-202.16,0.00 -219.47,0.00"/>
    </edge>
    <edge id="-E00" from="J18" to="J0" priority="-1" spreadType="center" bidi="E00">
        <lane id="-E00_0" index="0" allow="rail" speed="13.89" length="180.53" shape="-219.47,0.00 -400.00,0.00"/>
    </edge>
    <edge id="-E1" from="J2" to="J1" priority="-1" spreadType="center" bidi="E1">
        <lane id="-E1_0" index="0" allow="rail" speed="13.89" length="100.00" shape="-100.00,0.00 -194.64,0.00"/>
    </edge>
    <edge id="-E10" from="J10" to="J9" priority="-1" spreadType="center" bidi="E10">
        <lane id="-E10_0" index="0" allow="rail" speed="13.89" length="100.00" shape="200.00,299.34 200.00,200.66"/>
    </edge>
    <edge id="-E11" from="J11" to="J10" priority="-1" spreadType="center" bidi="E11">
        <lane id="-E11_0" index="0" allow="rail" speed="13.89" length="141.42" shape="100.47,399.53 199.53,300.47"/>
    </edge>
    <edge id="-E12" from="J12" to="J11" priority="-1" spreadType="center" length="3000.00" bidi="E12">
        <lane id="-E12_0" index="0" allow="rail" speed="13.89" length="3000.00" shape="-200.00,400.00 99.34,400.00"/>
    </edge>
    <edge id="-E13" from="J13" to="J12" priority="-1" spreadType="center" length="1000.00" bidi="E13">
        <lane id="-E13_0" index="0" allow="rail" speed="13.89" length="1000.00" shape="-299.62,400.00 -200.00,400.00"/>
    </edge>
    <edge id="-E14" from="J14" to="J13" priority="-1" spreadType="center" length="3000.00" bidi="E14">
        <lane id="-E14_0" index="0" allow="rail" speed="13.89" length="3000.00" shape="-499.12,300.44 -300.34,399.83"/>
    </edge>
    <edge id="-E15" from="J15" to="J14" priority="-1" spreadType="center" length="3000.00" bidi="E15">
        <lane id="-E15_0" index="0" allow="rail" speed="13.89" length="3000.00" shape="-500.00,0.66 -500.00,299.01"/>
    </edge>
    <edge id="-E16" from="J16" to="J17" priority="-1" spreadType="center" length="3000.00" bidi="E160">
        <lane id="-E16_0" index="0" allow="rail" speed="13.89" length="3000.00" shape="-100.66,-100.00 -399.34,-100.00"/>
    </edge>
    <edge id="-E16.316" from="J17" to="J15" priority="-1" spreadType="center" length="1400.00" bidi="E16">
        <lane id="-E16.316_0" index="0" allow="rail" speed="13.89" length="1400.00" shape="-400.47,-99.53 -499.53,-0.47"/>
    </edge>
    <edge id="-E17" from="J3" to="J16" priority="-1" spreadType="center" bidi="E17">
        <lane id="-E17_0" index="0" allow="rail" speed="13.89" length="141.42" shape="-3.79,-3.79 -99.53,-99.53"/>
    </edge>
    <edge id="-E2" from="J3" to="J2" priority="-1" spreadType="center" bidi="E2">
        <lane id="-E2_0" index="0" allow="rail" speed="13.89" length="100.00" shape="-5.36,0.00 -100.00,0.00"/>
    </edge>
    <edge id="-E3" from="J4" to="J3" priority="-1" spreadType="center" bidi="E3">
        <lane id="-E3_0" index="0" allow="rail" speed="13.89" length="100.00" shape="94.64,0.00 2.16,0.00"/>
    </edge>
    <edge id="-E4" from="J5" to="J4" priority="-1" spreadType="center" bidi="E4">
        <lane id="-E4_0" index="0" allow="rail" speed="13.89" length="200.00" shape="300.00,0.00 102.16,0.00"/>
    </edge>
    <edge id="-E5" from="J6" to="J1" priority="-1" spreadType="center" bidi="E5">
        <lane id="-E5_0" index="0" allow="rail" speed="13.89" length="141.42" shape="-100.47,99.53 -196.21,3.79"/>
    </edge>
    <edge id="-E6" from="J7" to="J6" priority="-1" spreadType="center" bidi="E6">
        <lane id="-E6_0" index="0" allow="rail" speed="13.89" length="100.00" shape="-2.16,100.00 -99.34,100.00"/>
    </edge>
    <edge id="-E7" from="J4" to="J7" priority="-1" spreadType="center" bidi="E7">
        <lane id="-E7_0" index="0" allow="rail" speed="13.89" length="141.42" shape="96.21,3.79 3.79,96.21"/>
    </edge>
    <edge id="-E8" from="J8" to="J7" priority="-1" spreadType="center" bidi="E8">
        <lane id="-E8_0" index="0" allow="rail" speed="13.89" length="100.00" shape="99.34,100.00 5.36,100.00"/>
    </edge>
    <edge id="-E9" from="J9" to="J8" priority="-1" spreadType="center" bidi="E9">
        <lane id="-E9_0" index="0" allow="rail" speed="13.89" length="141.42" shape="199.53,199.53 100.47,100.47"/>
    </edge>
    <edge id="E0" from="J18" to="J1" priority="-1" spreadType="center" bidi="-E0">
        <lane id="E0_0" index="0" allow="rail" speed="13.89" length="19.47" shape="-219.47,0.00 -202.16,0.00"/>
    </edge>
    <edge id="E00" from="J0" to="J18" priority="-1" spreadType="center" bidi="-E00">
        <lane id="E00_0" index="0" allow="rail" speed="13.89" length="180.53" shape="-400.00,0.00 -219.47,0.00"/>
    </edge>
    <edge id="E1" from="J1" to="J2" priority="-1" spreadType="center" bidi="-E1">
        <lane id="E1_0" index="0" allow="rail" speed="13.89" length="100.00" shape="-194.64,0.00 -100.00,0.00"/>
    </edge>
    <edge id="E10" from="J9" to="J10" priority="-1" spreadType="center" bidi="-E10">
        <lane id="E10_0" index="0" allow="rail" speed="13.89" length="100.00" shape="200.00,200.66 200.00,299.34"/>
    </edge>
    <edge id="E11" from="J10" to="J11" priority="-1" spreadType="center" bidi="-E11">
        <lane id="E11_0" index="0" allow="rail" speed="13.89" length="141.42" shape="199.53,300.47 100.47,399.53"/>
    </edge>
    <edge id="E12" from="J11" to="J12" priority="-1" spreadType="center" length="3000.00" bidi="-E12">
        <lane id="E12_0" index="0" allow="rail" speed="13.89" length="3000.00" shape="99.34,400.00 -200.00,400.00"/>
    </edge>
    <edge id="E13" from="J12" to="J13" priority="-1" spreadType="center" length="1000.00" bidi="-E13">
        <lane id="E13_0" index="0" allow="rail" speed="13.89" length="1000.00" shape="-200.00,400.00 -299.62,400.00"/>
    </edge>
    <edge id="E14" from="J13" to="J14" priority="-1" spreadType="center" length="3000.00" bidi="-E14">
        <lane id="E14_0" index="0" allow="rail" speed="13.89" length="3000.00" shape="-300.34,399.83 -499.12,300.44"/>
    </edge>
    <edge id="E15" from="J14" to="J15" priority="-1" spreadType="center" length="3000.00" bidi="-E15">
        <lane id="E15_0" index="0" allow="rail" speed="13.89" length="3000.00" shape="-500.00,299.01 -500.00,0.66"/>
    </edge>
    <edge id="E16" from="J15" to="J17" priority="-1" spreadType="center" length="1400.00" bidi="-E16.316">
        <lane id="E16_0" index="0" allow="rail" speed="13.89" length="1400.00" shape="-499.53,-0.47 -400.47,-99.53"/>
    </edge>
    <edge id="E160" from="J17" to="J16" priority="-1" spreadType="center" length="3000.00" bidi="-E16">
        <lane id="E160_0" index="0" allow="rail" speed="13.89" length="3000.00" shape="-399.34,-100.00 -100.66,-100.00"/>
    </edge>
    <edge id="E17" from="J16" to="J3" priority="-1" spreadType="center" bidi="-E17">
        <lane id="E17_0" index="0" allow="rail" speed="13.89" length="141.42" shape="-99.53,-99.53 -3.79,-3.79"/>
    </edge>
    <edge id="E2" from="J2" to="J3" priority="-1" spreadType="center" bidi="-E2">
        <lane id="E2_0" index="0" allow="rail" speed="13.89" length="100.00" shape="-100.00,0.00 -5.36,0.00"/>
    </edge>
    <edge id="E3" from="J3" to="J4" priority="-1" spreadType="center" bidi="-E3">
        <lane id="E3_0" index="0" allow="rail" speed="13.89" length="100.00" shape="2.16,0.00 94.64,0.00"/>
    </edge>
    <edge id="E4" from="J4" to="J5" priority="-1" spreadType="center" bidi="-E4">
        <lane id="E4_0" index="0" allow="rail" speed="13.89" length="200.00" shape="102.16,0.00 300.00,0.00"/>
    </edge>
    <edge id="E5" from="J1" to="J6" priority="-1" spreadType="center" bidi="-E5">
        <lane id="E5_0" index="0" allow="rail" speed="13.89" length="141.42" shape="-196.21,3.79 -100.47,99.53"/>
    </edge>
    <edge id="E6" from="J6" to="J7" priority="-1" spreadType="center" bidi="-E6">
        <lane id="E6_0" index="0" allow="rail" speed="13.89" length="100.00" shape="-99.34,100.00 -2.16,100.00"/>
    </edge>
    <edge id="E7" from="J7" to="J4" priority="-1" spreadType="center" bidi="-E7">
        <lane id="E7_0" index="0" allow="rail" speed="13.89" length="141.42" shape="3.79,96.21 96.21,3.79"/>
    </edge>
    <edge id="E8" from="J7" to="J8" priority="-1" spreadType="center" bidi="-E8">
        <lane id="E8_0" index="0" allow="rail" speed="13.89" length="100.00" shape="5.36,100.00 99.34,100.00"/>
    </edge>
    <edge id="E9" from="J8" to="J9" priority="-1" spreadType="center" bidi="-E9">
        <lane id="E9_0" index="0" allow="rail" speed="13.89" length="141.42" shape="100.47,100.47 199.53,199.53"/>
    </edge>

    <junction id="J0" type="dead_end" x="-400.00" y="0.00" incLanes="-E00_0" intLanes="" shape="-400.00,1.60 -400.00,-1.60 -400.00,1.60 -400.00,-1.60"/>
    <junction id="J1" type="priority" x="-200.00" y="0.00" incLanes="-E5_0 -E1_0 E0_0" intLanes="" shape="-197.34,4.92 -195.08,2.66 -195.50,2.07 -195.50,1.87 -195.35,1.72 -195.07,1.63 -194.64,1.60 -194.64,-1.60 -202.16,-1.60 -202.16,1.60 -200.07,2.00 -199.43,2.49 -198.86,3.14 -198.21,3.96">
        <request index="0" response="0010" foes="0010"/>
        <request index="1" response="0000" foes="1001"/>
        <request index="2" response="0000" foes="0000"/>
        <request index="3" response="0010" foes="0010"/>
    </junction>
    <junction id="J10" type="priority" x="200.00" y="300.00" incLanes="E10_0 -E11_0" intLanes="" shape="201.60,299.34 198.40,299.34 200.66,301.60 201.18,300.93 201.37,300.57 201.50,300.18 201.57,299.77">
        <request index="0" response="00" foes="00"/>
        <request index="1" response="00" foes="00"/>
    </junction>
    <junction id="J11" type="priority" x="100.00" y="400.00" incLanes="E11_0 -E12_0" intLanes="" shape="101.60,400.66 99.34,398.40 99.34,401.60 100.18,401.50 100.57,401.37 100.93,401.18 101.28,400.95">
        <request index="0" response="00" foes="00"/>
        <request index="1" response="00" foes="00"/>
    </junction>
    <junction id="J12" type="priority" x="-200.00" y="400.00" incLanes="E12_0 -E13_0" intLanes="" shape="-200.00,401.60 -200.00,398.40 -200.00,401.60">
        <request index="0" response="00" foes="00"/>
        <request index="1" response="00" foes="00"/>
    </junction>
    <junction id="J13" type="priority" x="-300.00" y="400.00" incLanes="E13_0 -E14_0" intLanes="" shape="-299.62,401.60 -299.62,398.40 -301.05,401.26 -300.55,401.50 -300.37,401.55 -300.17,401.59 -299.94,401.60">
        <request index="0" response="00" foes="00"/>
        <request index="1" response="00" foes="00"/>
    </junction>
    <junction id="J14" type="priority" x="-500.00" y="300.00" incLanes="E14_0 -E15_0" intLanes="" shape="-499.83,301.87 -498.40,299.01 -501.60,299.01 -501.40,300.21 -501.16,300.72 -500.81,301.16 -500.37,301.55">
        <request index="0" response="00" foes="00"/>
        <request index="1" response="00" foes="00"/>
    </junction>
    <junction id="J15" type="priority" x="-500.00" y="0.00" incLanes="E15_0 -E16.316_0" intLanes="" shape="-501.60,0.66 -498.40,0.66 -500.66,-1.60 -501.18,-0.93 -501.37,-0.57 -501.50,-0.18 -501.57,0.23">
        <request index="0" response="00" foes="00"/>
        <request index="1" response="00" foes="00"/>
    </junction>
    <junction id="J16" type="priority" x="-100.00" y="-100.00" incLanes="-E17_0 E160_0" intLanes="" shape="-100.66,-98.40 -98.40,-100.66 -99.07,-101.18 -99.43,-101.37 -99.82,-101.50 -100.23,-101.57 -100.66,-101.60">
        <request index="0" response="00" foes="00"/>
        <request index="1" response="00" foes="00"/>
    </junction>
    <junction id="J17" type="priority" x="-400.00" y="-100.00" incLanes="-E16_0 E16_0" intLanes="" shape="-399.34,-98.40 -399.34,-101.60 -400.18,-101.50 -400.57,-101.37 -400.93,-101.18 -401.28,-100.95 -401.60,-100.66">
        <request index="0" response="00" foes="00"/>
        <request index="1" response="00" foes="00"/>
    </junction>
    <junction id="J18" type="priority" x="-219.47" y="0.00" incLanes="-E0_0 E00_0" intLanes="" shape="-219.47,1.60 -219.47,-1.60 -219.47,1.60">
        <request index="0" response="00" foes="00"/>
        <request index="1" response="00" foes="00"/>
    </junction>
    <junction id="J2" type="priority" x="-100.00" y="0.00" incLanes="-E2_0 E1_0" intLanes="" shape="-100.00,1.60 -100.00,-1.60 -100.00,1.60">
        <request index="0" response="00" foes="00"/>
        <request index="1" response="00" foes="00"/>
    </junction>
    <junction id="J3" type="priority" x="0.00" y="0.00" incLanes="-E3_0 E17_0 E2_0" intLanes="" shape="2.16,1.60 2.16,-1.60 0.96,-1.97 0.21,-2.43 -0.65,-3.08 -1.60,-3.91 -2.66,-4.92 -4.92,-2.66 -4.50,-2.07 -4.50,-1.87 -4.65,-1.72 -4.93,-1.63 -5.36,-1.60 -5.36,1.60">
        <request index="0" response="0000" foes="0000"/>
        <request index="1" response="1000" foes="1000"/>
        <request index="2" response="1000" foes="1000"/>
        <request index="3" response="0000" foes="0110"/>
    </junction>
    <junction id="J4" type="priority" x="100.00" y="0.00" incLanes="-E4_0 E3_0 E7_0" intLanes="" shape="102.16,1.60 102.16,-1.60 94.64,-1.60 94.64,1.60 95.35,1.72 95.50,1.87 95.50,2.07 95.36,2.34 95.08,2.66 97.34,4.92 99.35,3.08 100.21,2.43 100.96,1.97 101.61,1.69">
        <request index="0" response="0000" foes="0000"/>
        <request index="1" response="0000" foes="1000"/>
        <request index="2" response="0000" foes="1000"/>
        <request index="3" response="0110" foes="0110"/>
    </junction>
    <junction id="J5" type="dead_end" x="300.00" y="0.00" incLanes="E4_0" intLanes="" shape="300.00,-1.60 300.00,1.60 300.00,-1.60 300.00,1.60"/>
    <junction id="J6" type="priority" x="-100.00" y="100.00" incLanes="-E6_0 E5_0" intLanes="" shape="-99.34,101.60 -99.34,98.40 -101.60,100.66 -100.93,101.18 -100.57,101.37 -100.18,101.50 -99.77,101.57">
        <request index="0" response="00" foes="00"/>
        <request index="1" response="00" foes="00"/>
    </junction>
    <junction id="J7" type="priority" x="0.00" y="100.00" incLanes="-E8_0 -E7_0 E6_0" intLanes="" shape="5.36,101.60 5.36,98.40 4.65,98.28 4.50,98.13 4.50,97.93 4.64,97.66 4.92,97.34 2.66,95.08 0.65,96.92 -0.21,97.57 -0.96,98.03 -1.61,98.31 -2.16,98.40 -2.16,101.60">
        <request index="0" response="0000" foes="0010"/>
        <request index="1" response="1001" foes="1001"/>
        <request index="2" response="0000" foes="0000"/>
        <request index="3" response="0000" foes="0010"/>
    </junction>
    <junction id="J8" type="priority" x="100.00" y="100.00" incLanes="-E9_0 E8_0" intLanes="" shape="99.34,101.60 101.60,99.34 100.93,98.82 100.57,98.63 100.18,98.50 99.77,98.43 99.34,98.40">
        <request index="0" response="00" foes="00"/>
        <request index="1" response="00" foes="00"/>
    </junction>
    <junction id="J9" type="priority" x="200.00" y="200.00" incLanes="-E10_0 E9_0" intLanes="" shape="198.40,200.66 201.60,200.66 201.50,199.82 201.37,199.43 201.18,199.07 200.95,198.72 200.66,198.40">
        <request index="0" response="00" foes="00"/>
        <request index="1" response="00" foes="00"/>
    </junction>

    <connection from="-E0" to="-E00" fromLane="0" toLane="0" dir="s" state="M"/>
    <connection from="-E1" to="-E0" fromLane="0" toLane="0" dir="s" state="M"/>
    <connection from="-E10" to="-E9" fromLane="0" toLane="0" dir="r" state="M"/>
    <connection from="-E11" to="-E10" fromLane="0" toLane="0" dir="r" state="M"/>
    <connection from="-E12" to="-E11" fromLane="0" toLane="0" dir="r" state="M"/>
    <connection from="-E13" to="-E12" fromLane="0" toLane="0" dir="s" state="M"/>
    <connection from="-E14" to="-E13" fromLane="0" toLane="0" dir="s" state="M"/>
    <connection from="-E15" to="-E14" fromLane="0" toLane="0" dir="r" state="M"/>
    <connection from="-E16" to="-E16.316" fromLane="0" toLane="0" dir="r" state="M"/>
    <connection from="-E16.316" to="-E15" fromLane="0" toLane="0" dir="r" state="M"/>
    <connection from="-E17" to="-E16" fromLane="0" toLane="0" dir="r" state="M"/>
    <connection from="-E2" to="-E1" fromLane="0" toLane="0" dir="s" state="M"/>
    <connection from="-E3" to="-E2" fromLane="0" toLane="0" dir="s" state="M"/>
    <connection from="-E3" to="-E17" fromLane="0" toLane="0" dir="l" state="M"/>
    <connection from="-E4" to="-E7" fromLane="0" toLane="0" dir="r" state="M"/>
    <connection from="-E4" to="-E3" fromLane="0" toLane="0" dir="s" state="M"/>
    <connection from="-E5" to="-E0" fromLane="0" toLane="0" dir="r" state="M"/>
    <connection from="-E6" to="-E5" fromLane="0" toLane="0" dir="l" state="M"/>
    <connection from="-E7" to="-E6" fromLane="0" toLane="0" dir="l" state="M"/>
    <connection from="-E8" to="-E6" fromLane="0" toLane="0" dir="s" state="M"/>
    <connection from="-E9" to="-E8" fromLane="0" toLane="0" dir="r" state="M"/>
    <connection from="E0" to="E1" fromLane="0" toLane="0" dir="s" state="M"/>
    <connection from="E0" to="E5" fromLane="0" toLane="0" dir="l" state="M"/>
    <connection from="E00" to="E0" fromLane="0" toLane="0" dir="s" state="M"/>
    <connection from="E1" to="E2" fromLane="0" toLane="0" dir="s" state="M"/>
    <connection from="E10" to="E11" fromLane="0" toLane="0" dir="l" state="M"/>
    <connection from="E11" to="E12" fromLane="0" toLane="0" dir="l" state="M"/>
    <connection from="E12" to="E13" fromLane="0" toLane="0" dir="s" state="M"/>
    <connection from="E13" to="E14" fromLane="0" toLane="0" dir="s" state="M"/>
    <connection from="E14" to="E15" fromLane="0" toLane="0" dir="l" state="M"/>
    <connection from="E15" to="E16" fromLane="0" toLane="0" dir="l" state="M"/>
    <connection from="E16" to="E160" fromLane="0" toLane="0" dir="l" state="M"/>
    <connection from="E160" to="E17" fromLane="0" toLane="0" dir="l" state="M"/>
    <connection from="E17" to="E3" fromLane="0" toLane="0" dir="r" state="M"/>
    <connection from="E2" to="E3" fromLane="0" toLane="0" dir="s" state="M"/>
    <connection from="E3" to="E4" fromLane="0" toLane="0" dir="s" state="M"/>
    <connection from="E5" to="E6" fromLane="0" toLane="0" dir="r" state="M"/>
    <connection from="E6" to="E7" fromLane="0" toLane="0" dir="r" state="M"/>
    <connection from="E6" to="E8" fromLane="0" toLane="0" dir="s" state="M"/>
    <connection from="E7" to="E4" fromLane="0" toLane="0" dir="l" state="M"/>
    <connection from="E8" to="E9" fromLane="0" toLane="0" dir="l" state="M"/>
    <connection from="E9" to="E10" fromLane="0" toLane="0" dir="l" state="M"/>

</net>
