<additional xmlns:xsi="http://www.w3.org/2001/XMLSchema-instance" xsi:noNamespaceSchemaLocation="https://sumo.dlr.de/xsd/additional_file.xsd">
    <instantInductionLoop id="instantInductionLoop_gneE0_0_7" lane="gneE0_0" pos="14.77" file="instantInductionLoop_gneE0_0_7.txt" friendlyPos="0"/>
    <instantInductionLoop id="instantInductionLoop_gneE1_0_6" lane="gneE1_0" pos="41.50" file="instantInductionLoop_gneE1_0_6.txt" friendlyPos="0"/>
    <instantInductionLoop id="instantInductionLoop_gneE2_0_0" lane="gneE2_0" pos="19.94" file="instantInductionLoop_gneE2_0_0.txt" friendlyPos="0"/>
    <instantInductionLoop id="instantInductionLoop_gneE2_1_1" lane="gneE2_1" pos="25.78" file="instantInductionLoop_gneE2_1_1.txt" friendlyPos="0"/>
    <instantInductionLoop id="instantInductionLoop_gneE2_2_2" lane="gneE2_2" pos="29.90" file="instantInductionLoop_gneE2_2_2.txt" friendlyPos="0"/>
    <instantInductionLoop id="instantInductionLoop_gneE2_3_3" lane="gneE2_3" pos="34.11" file="instantInductionLoop_gneE2_3_3.txt" friendlyPos="0"/>
    <instantInductionLoop id="instantInductionLoop_gneE2_4_4" lane="gneE2_4" pos="36.17" file="instantInductionLoop_gneE2_4_4.txt" friendlyPos="0"/>
    <instantInductionLoop id="instantInductionLoop_gneE4_0_5" lane="gneE4_0" pos="10.31" file="instantInductionLoop_gneE4_0_5.txt" friendlyPos="0"/>
</additional>
