<?xml version="1.0" encoding="UTF-8"?>

<!-- generated on 2022-06-03 10:02:46 by Eclipse SUMO netedit Version v1_13_0+0591-4e659f0956f
-->

<routes xmlns:xsi="http://www.w3.org/2001/XMLSchema-instance" xsi:noNamespaceSchemaLocation="http://sumo.dlr.de/xsd/routes_file.xsd">
    <!-- Vehicles, persons and containers (sorted by depart) -->
    <containerFlow id="cf_0" begin="0.00" end="3600.00" containersPerHour="1800.00">
        <tranship edges="gneE2 gneE4 gneE5"/>
    </containerFlow>
</routes>
