<?xml version="1.0" encoding="UTF-8"?>

<!-- generated on 2023-11-10 15:05:59 by Eclipse SUMO netedit Version v1_19_0+0072-041d30c218b
-->

<routes xmlns:xsi="http://www.w3.org/2001/XMLSchema-instance" xsi:noNamespaceSchemaLocation="http://sumo.dlr.de/xsd/routes_file.xsd">
    <!-- Vehicles, persons and containers (sorted by depart) -->
    <vehicle id="vehicle_0" depart="0.00">
        <route edges="Edge3 Edge4 Edge5" color="yellow"/>
        <stop parkingArea="parkingAreaA" duration="70.00" until="12.00" extension="10.00" triggered="person" parking="1" expected="perA perB" permitted="A B" tripId="customTripID" line="lineA" split="splitA" onDemand="1" jump="4.00" actType="walking"/>
    </vehicle>
    <vehicle id="vehicle_1" depart="0.00">
        <route edges="EdgeCenter0 EdgeCenter1" color="yellow"/>
        <stop parkingArea="parkingAreaB" duration="60.00" until="20.00" extension="20.00" triggered="container" parking="1" expected="conA conB" permitted="C D" tripId="customTripID" line="lineB" split="splitB" jump="8.40" actType="singing"/>
    </vehicle>
</routes>
