<routes>
    <vType id="t0" sigma="0"/>
    <vehicle id="stopped" depart="0" type="t0">
        <route edges="end"/>
        <stop lane="end_1" endPos="-10" duration="100"/>
    </vehicle>
    <vehicle id="ego" depart="0" type="t0" arrivalLane="0">
        <route edges="beg end"/>
    </vehicle>
</routes>
