<?xml version="1.0" encoding="UTF-8"?>

<!-- generated on 2022-06-03 16:04:46 by Eclipse SUMO netedit Version v1_13_0+0610-e5b7f68bfcb
-->

<additional xmlns:xsi="http://www.w3.org/2001/XMLSchema-instance" xsi:noNamespaceSchemaLocation="http://sumo.dlr.de/xsd/additional_file.xsd">
    <!-- RouteProbes -->
    <routeProbe id="routeProbe_01" begin="0.00" period="50.00" edge="gneE1" file="fileA.txt">
        <param key="KeyA1" value="valueA1"/>
        <param key="KeyA2" value="valueA3"/>
        <param key="KeyA3" value="valueA2"/>
    </routeProbe>
    <routeProbe id="routeProbe_02" begin="3.00" period="50.00" edge="gneE1" file="fileB.txt">
        <param key="KeyB1" value="valueB1"/>
        <param key="KeyB2" value="valueB3"/>
        <param key="KeyB3" value="valueB2"/>
    </routeProbe>
</additional>
