<routes>
   <route id="1">beg end</route>
</routes>
