<?xml version="1.0" encoding="UTF-8"?>

<!-- generated on 07.12.2018 15:17:45 by Eclipse SUMO netedit Version v1_0_0+1208-d42a3cd999
<configuration xmlns:xsi="http://www.w3.org/2001/XMLSchema-instance" xsi:noNamespaceSchemaLocation="http://sumo.dlr.de/xsd/netconvertConfiguration.xsd">

    <input>
        <sumo-net-file value="C:/Users/SUMO-Test/.texttest/tmp/netedit.gui.07Dec151734.3292/netedit.gui/netElements/edges/load/speed\input_net.net.xml"/>
    </input>

    <output>
        <output-file value="C:/Users/SUMO-Test/.texttest/tmp/netedit.gui.07Dec151734.3292/netedit.gui/netElements/edges/load/speed\net.net.xml"/>
    </output>

    <processing>
        <geometry.max-grade.fix value="false"/>
        <offset.disable-normalization value="true"/>
        <lefthand value="false"/>
    </processing>

    <junctions>
        <no-internal-links value="true"/>
        <no-turnarounds value="true"/>
        <junctions.corner-detail value="5"/>
        <junctions.limit-turn-speed value="5.5"/>
        <rectangular-lane-cut value="false"/>
    </junctions>

    <pedestrian>
        <walkingareas value="false"/>
    </pedestrian>

    <netedit>
        <sumo-additionals-file value="C:/Users/SUMO-Test/.texttest/tmp/netedit.gui.07Dec151734.3292/netedit.gui/netElements/edges/load/speed\input_additionals.add.xml"/>
        <additionals-output value="C:/Users/SUMO-Test/.texttest/tmp/netedit.gui.07Dec151734.3292/netedit.gui/netElements/edges/load/speed\additionals.xml"/>
        <shapes-output value="C:/Users/SUMO-Test/.texttest/tmp/netedit.gui.07Dec151734.3292/netedit.gui/netElements/edges/load/speed\shapes.xml"/>
    </netedit>

    <visualisation>
        <gui-settings-file value="C:/Users/SUMO-Test/.texttest/tmp/netedit.gui.07Dec151734.3292/netedit.gui/netElements/edges/load/speed\gui-settings.xml"/>
        <window-size value="700,500"/>
        <window-pos value="50,50"/>
        <gui-testing value="true"/>
        <gui-testing-debug value="true"/>
    </visualisation>

    <report>
        <no-warnings value="true"/>
        <error-log value="C:/Users/SUMO-Test/.texttest/tmp/netedit.gui.07Dec151734.3292/netedit.gui/netElements/edges/load/speed\log.txt"/>
    </report>

</configuration>
-->

<net version="1.6" junctionCornerDetail="5" limitTurnSpeed="5.50" xmlns:xsi="http://www.w3.org/2001/XMLSchema-instance" xsi:noNamespaceSchemaLocation="http://sumo.dlr.de/xsd/net_file.xsd">

    <location netOffset="0.00,-50.00" convBoundary="0.00,0.00,50.00,0.00" origBoundary="-10000000000.00,-10000000000.00,10000000000.00,10000000000.00" projParameter="!"/>

    <edge id="gneE12" from="gneJ21" to="gneJ22" priority="-1">
        <lane id="gneE12_0" index="0" speed="60.00" length="50.00" shape="0.00,-1.60 50.00,-1.60"/>
    </edge>
    <edge id="gneE13" from="gneJ22" to="gneJ21" priority="-1">
        <lane id="gneE13_0" index="0" speed="40.00" length="50.00" shape="50.00,1.60 0.00,1.60"/>
    </edge>

    <junction id="gneJ21" type="dead_end" x="0.00" y="0.00" incLanes="gneE13_0" intLanes="" shape="0.00,0.00 0.00,3.20 0.00,0.00"/>
    <junction id="gneJ22" type="dead_end" x="50.00" y="0.00" incLanes="gneE12_0" intLanes="" shape="50.00,0.00 50.00,-3.20 50.00,0.00"/>

</net>
