<?xml version="1.0" encoding="UTF-8"?>

<!-- generated on 2024-09-26 16:28:47 by Eclipse SUMO netedit Version v1_20_0+2163-b3a702dda2d
<neteditConfiguration xmlns:xsi="http://www.w3.org/2001/XMLSchema-instance" xsi:noNamespaceSchemaLocation="http://sumo.dlr.de/xsd/neteditConfiguration.xsd">

    <input>
        <sumo-net-file value="net.net.xml"/>
    </input>

    <output>
        <output-file value="net.net.xml"/>
        <output.street-names value="true"/>
    </output>

    <processing>
        <geometry.min-radius.fix.railways value="false"/>
        <geometry.max-grade.fix value="false"/>
        <offset.disable-normalization value="true"/>
        <lefthand value="0"/>
    </processing>

    <junctions>
        <no-turnarounds value="true"/>
        <junctions.corner-detail value="5"/>
        <junctions.limit-turn-speed value="5.50"/>
        <rectangular-lane-cut value="0"/>
    </junctions>

    <pedestrian>
        <walkingareas value="0"/>
    </pedestrian>

</neteditConfiguration>
-->

<net version="1.20" junctionCornerDetail="5" limitTurnSpeed="5.50" xmlns:xsi="http://www.w3.org/2001/XMLSchema-instance" xsi:noNamespaceSchemaLocation="http://sumo.dlr.de/xsd/net_file.xsd">

    <location netOffset="0.00,0.00" convBoundary="0.00,0.00,700.00,0.00" origBoundary="-10000000000.00,-10000000000.00,10000000000.00,10000000000.00" projParameter="!"/>

    <edge id=":A_0" function="internal" bidi=":A_1">
        <lane id=":A_0_0" index="0" allow="rail" speed="13.89" length="0.10" shape="100.00,0.00 100.00,0.00"/>
    </edge>
    <edge id=":A_1" function="internal" bidi=":A_0">
        <lane id=":A_1_0" index="0" allow="rail" speed="13.89" length="0.10" shape="100.00,0.00 100.00,0.00"/>
    </edge>
    <edge id=":B_0" function="internal" bidi=":B_1">
        <lane id=":B_0_0" index="0" allow="rail" speed="13.89" length="0.10" shape="200.00,0.00 200.00,0.00"/>
    </edge>
    <edge id=":B_1" function="internal" bidi=":B_0">
        <lane id=":B_1_0" index="0" allow="rail" speed="13.89" length="0.10" shape="200.00,0.00 200.00,0.00"/>
    </edge>
    <edge id=":C_0" function="internal" bidi=":C_2">
        <lane id=":C_0_0" index="0" allow="rail" speed="13.89" length="0.10" shape="300.00,0.00 300.00,0.00"/>
    </edge>
    <edge id=":C_1" function="internal">
        <lane id=":C_1_0" index="0" allow="rail" speed="13.89" length="0.10" shape="300.00,0.00 300.00,0.00"/>
    </edge>
    <edge id=":C_2" function="internal" bidi=":C_0">
        <lane id=":C_2_0" index="0" allow="rail" speed="13.89" length="0.10" shape="300.00,0.00 300.00,0.00"/>
    </edge>
    <edge id=":D_0" function="internal" bidi=":D_1">
        <lane id=":D_0_0" index="0" allow="rail" speed="13.89" length="0.10" shape="400.00,0.00 400.00,0.00"/>
    </edge>
    <edge id=":D_1" function="internal" bidi=":D_0">
        <lane id=":D_1_0" index="0" allow="rail" speed="13.89" length="0.10" shape="400.00,0.00 400.00,0.00"/>
    </edge>
    <edge id=":D_2" function="internal">
        <lane id=":D_2_0" index="0" allow="rail" speed="13.89" length="0.10" shape="400.00,0.00 400.00,0.00"/>
    </edge>
    <edge id=":E_0" function="internal" bidi=":E_2">
        <lane id=":E_0_0" index="0" allow="rail" speed="13.89" length="0.10" shape="500.00,0.00 500.00,0.00"/>
    </edge>
    <edge id=":E_1" function="internal">
        <lane id=":E_1_0" index="0" allow="rail" speed="13.89" length="0.10" shape="500.00,0.00 500.00,0.00"/>
    </edge>
    <edge id=":E_2" function="internal" bidi=":E_0">
        <lane id=":E_2_0" index="0" allow="rail" speed="13.89" length="0.10" shape="500.00,0.00 500.00,0.00"/>
    </edge>
    <edge id=":F_0" function="internal" bidi=":F_1">
        <lane id=":F_0_0" index="0" allow="rail" speed="13.89" length="0.10" shape="600.00,0.00 600.00,0.00"/>
    </edge>
    <edge id=":F_1" function="internal" bidi=":F_0">
        <lane id=":F_1_0" index="0" allow="rail" speed="13.89" length="0.10" shape="600.00,0.00 600.00,0.00"/>
    </edge>
    <edge id=":F_2" function="internal">
        <lane id=":F_2_0" index="0" allow="rail" speed="13.89" length="0.10" shape="600.00,0.00 600.00,0.00"/>
    </edge>

    <edge id="-a" from="A" to="J0" priority="-1" spreadType="center" bidi="a">
        <lane id="-a_0" index="0" allow="rail" speed="13.89" length="100.00" shape="100.00,0.00 0.00,0.00"/>
    </edge>
    <edge id="-b" from="B" to="A" priority="-1" spreadType="center" bidi="b">
        <lane id="-b_0" index="0" allow="rail" speed="13.89" length="100.00" shape="200.00,0.00 100.00,0.00"/>
    </edge>
    <edge id="-c" from="C" to="B" priority="-1" spreadType="center" bidi="c">
        <lane id="-c_0" index="0" allow="rail" speed="13.89" length="100.00" shape="300.00,0.00 200.00,0.00"/>
    </edge>
    <edge id="-d" from="D" to="C" priority="-1" spreadType="center" bidi="d">
        <lane id="-d_0" index="0" allow="rail" speed="13.89" length="100.00" shape="400.00,0.00 300.00,0.00"/>
    </edge>
    <edge id="-e" from="E" to="D" priority="-1" spreadType="center" bidi="e">
        <lane id="-e_0" index="0" allow="rail" speed="13.89" length="100.00" shape="500.00,0.00 400.00,0.00"/>
    </edge>
    <edge id="-f" from="F" to="E" priority="-1" spreadType="center" bidi="f">
        <lane id="-f_0" index="0" allow="rail" speed="13.89" length="100.00" shape="600.00,0.00 500.00,0.00"/>
    </edge>
    <edge id="-g" from="G" to="F" priority="-1" spreadType="center" bidi="g">
        <lane id="-g_0" index="0" allow="rail" speed="13.89" length="100.00" shape="700.00,0.00 600.00,0.00"/>
    </edge>
    <edge id="a" from="J0" to="A" priority="-1" spreadType="center" bidi="-a">
        <lane id="a_0" index="0" allow="rail" speed="13.89" length="100.00" shape="0.00,0.00 100.00,0.00"/>
    </edge>
    <edge id="b" from="A" to="B" priority="-1" spreadType="center" bidi="-b">
        <lane id="b_0" index="0" allow="rail" speed="13.89" length="100.00" shape="100.00,0.00 200.00,0.00"/>
    </edge>
    <edge id="c" from="B" to="C" priority="-1" spreadType="center" bidi="-c">
        <lane id="c_0" index="0" allow="rail" speed="13.89" length="100.00" shape="200.00,0.00 300.00,0.00"/>
    </edge>
    <edge id="d" from="C" to="D" priority="-1" spreadType="center" bidi="-d">
        <lane id="d_0" index="0" allow="rail" speed="13.89" length="100.00" shape="300.00,0.00 400.00,0.00"/>
    </edge>
    <edge id="e" from="D" to="E" priority="-1" spreadType="center" bidi="-e">
        <lane id="e_0" index="0" allow="rail" speed="13.89" length="100.00" shape="400.00,0.00 500.00,0.00"/>
    </edge>
    <edge id="f" from="E" to="F" priority="-1" spreadType="center" bidi="-f">
        <lane id="f_0" index="0" allow="rail" speed="13.89" length="100.00" shape="500.00,0.00 600.00,0.00"/>
    </edge>
    <edge id="g" from="F" to="G" priority="-1" spreadType="center" bidi="-g">
        <lane id="g_0" index="0" allow="rail" speed="13.89" length="100.00" shape="600.00,0.00 700.00,0.00"/>
    </edge>

    <junction id="A" type="rail_signal" x="100.00" y="0.00" incLanes="-b_0 a_0" intLanes=":A_0_0 :A_1_0" shape="100.00,1.60 100.00,-1.60 100.00,1.60">
        <request index="0" response="00" foes="00" cont="0"/>
        <request index="1" response="00" foes="00" cont="0"/>
    </junction>
    <junction id="B" type="priority" x="200.00" y="0.00" incLanes="-c_0 b_0" intLanes=":B_0_0 :B_1_0" shape="200.00,1.60 200.00,-1.60 200.00,1.60">
        <request index="0" response="00" foes="00" cont="0"/>
        <request index="1" response="00" foes="00" cont="0"/>
    </junction>
    <junction id="C" type="rail_signal" x="300.00" y="0.00" incLanes="-d_0 c_0" intLanes=":C_0_0 :C_1_0 :C_2_0" shape="300.00,1.60 300.00,-1.60 300.00,1.60">
        <request index="0" response="000" foes="000" cont="0"/>
        <request index="1" response="100" foes="100" cont="0"/>
        <request index="2" response="000" foes="010" cont="0"/>
    </junction>
    <junction id="D" type="rail_signal" x="400.00" y="0.00" incLanes="-e_0 d_0" intLanes=":D_0_0 :D_1_0 :D_2_0" shape="400.00,1.60 400.00,-1.60 400.00,1.60">
        <request index="0" response="000" foes="100" cont="0"/>
        <request index="1" response="000" foes="000" cont="0"/>
        <request index="2" response="001" foes="001" cont="0"/>
    </junction>
    <junction id="E" type="rail_signal" x="500.00" y="0.00" incLanes="-f_0 e_0" intLanes=":E_0_0 :E_1_0 :E_2_0" shape="500.00,1.60 500.00,-1.60 500.00,1.60">
        <request index="0" response="000" foes="000" cont="0"/>
        <request index="1" response="100" foes="100" cont="0"/>
        <request index="2" response="000" foes="010" cont="0"/>
    </junction>
    <junction id="F" type="rail_signal" x="600.00" y="0.00" incLanes="-g_0 f_0" intLanes=":F_0_0 :F_1_0 :F_2_0" shape="600.00,1.60 600.00,-1.60 600.00,1.60">
        <request index="0" response="000" foes="100" cont="0"/>
        <request index="1" response="000" foes="000" cont="0"/>
        <request index="2" response="001" foes="001" cont="0"/>
    </junction>
    <junction id="G" type="dead_end" x="700.00" y="0.00" incLanes="g_0" intLanes="" shape="700.00,-1.60 700.00,1.60 700.00,-1.60 700.00,1.60"/>
    <junction id="J0" type="dead_end" x="0.00" y="0.00" incLanes="-a_0" intLanes="" shape="0.00,1.60 0.00,-1.60 0.00,1.60 0.00,-1.60"/>

    <connection from="-b" to="-a" fromLane="0" toLane="0" uncontrolled="1" via=":A_0_0" dir="s" state="M"/>
    <connection from="-c" to="-b" fromLane="0" toLane="0" via=":B_0_0" dir="s" state="M"/>
    <connection from="-d" to="-c" fromLane="0" toLane="0" via=":C_0_0" tl="C" linkIndex="0" dir="s" state="O"/>
    <connection from="-d" to="d" fromLane="0" toLane="0" via=":C_1_0" dir="t" state="M"/>
    <connection from="-e" to="-d" fromLane="0" toLane="0" uncontrolled="1" via=":D_0_0" dir="s" state="M"/>
    <connection from="-f" to="-e" fromLane="0" toLane="0" via=":E_0_0" tl="E" linkIndex="0" dir="s" state="O"/>
    <connection from="-f" to="f" fromLane="0" toLane="0" via=":E_1_0" dir="t" state="M"/>
    <connection from="-g" to="-f" fromLane="0" toLane="0" uncontrolled="1" via=":F_0_0" dir="s" state="M"/>
    <connection from="a" to="b" fromLane="0" toLane="0" via=":A_1_0" tl="A" linkIndex="0" dir="s" state="O"/>
    <connection from="b" to="c" fromLane="0" toLane="0" via=":B_1_0" dir="s" state="M"/>
    <connection from="c" to="d" fromLane="0" toLane="0" uncontrolled="1" via=":C_2_0" dir="s" state="M"/>
    <connection from="d" to="e" fromLane="0" toLane="0" via=":D_1_0" tl="D" linkIndex="0" dir="s" state="O"/>
    <connection from="d" to="-d" fromLane="0" toLane="0" via=":D_2_0" dir="t" state="M"/>
    <connection from="e" to="f" fromLane="0" toLane="0" keepClear="0" uncontrolled="1" via=":E_2_0" dir="s" state="M"/>
    <connection from="f" to="g" fromLane="0" toLane="0" via=":F_1_0" tl="F" linkIndex="0" dir="s" state="O"/>
    <connection from="f" to="-f" fromLane="0" toLane="0" via=":F_2_0" dir="t" state="M"/>

    <connection from=":A_0" to="-a" fromLane="0" toLane="0" dir="s" state="M"/>
    <connection from=":A_1" to="b" fromLane="0" toLane="0" dir="s" state="M"/>
    <connection from=":B_0" to="-b" fromLane="0" toLane="0" dir="s" state="M"/>
    <connection from=":B_1" to="c" fromLane="0" toLane="0" dir="s" state="M"/>
    <connection from=":C_0" to="-c" fromLane="0" toLane="0" dir="s" state="M"/>
    <connection from=":C_1" to="d" fromLane="0" toLane="0" dir="t" state="M"/>
    <connection from=":C_2" to="d" fromLane="0" toLane="0" dir="s" state="M"/>
    <connection from=":D_0" to="-d" fromLane="0" toLane="0" dir="s" state="M"/>
    <connection from=":D_1" to="e" fromLane="0" toLane="0" dir="s" state="M"/>
    <connection from=":D_2" to="-d" fromLane="0" toLane="0" dir="t" state="M"/>
    <connection from=":E_0" to="-e" fromLane="0" toLane="0" dir="s" state="M"/>
    <connection from=":E_1" to="f" fromLane="0" toLane="0" dir="t" state="M"/>
    <connection from=":E_2" to="f" fromLane="0" toLane="0" dir="s" state="M"/>
    <connection from=":F_0" to="-f" fromLane="0" toLane="0" dir="s" state="M"/>
    <connection from=":F_1" to="g" fromLane="0" toLane="0" dir="s" state="M"/>
    <connection from=":F_2" to="-f" fromLane="0" toLane="0" dir="t" state="M"/>

</net>
