<?xml version="1.0" encoding="UTF-8"?>

<!-- generated on 2024-09-26 22:58:51 by Eclipse SUMO sumo Version v1_20_0+0608-d1da7d7d312
This data file and the accompanying materials
are made available under the terms of the Eclipse Public License v2.0
which accompanies this distribution, and is available at
http://www.eclipse.org/legal/epl-v20.html
This file may also be made available under the following Secondary
Licenses when the conditions for such availability set forth in the Eclipse
Public License 2.0 are satisfied: GNU General Public License, version 2
or later which is available at
https://www.gnu.org/licenses/old-licenses/gpl-2.0-standalone.html
SPDX-License-Identifier: EPL-2.0 OR GPL-2.0-or-later
<configuration xmlns:xsi="http://www.w3.org/2001/XMLSchema-instance" xsi:noNamespaceSchemaLocation="http://sumo.dlr.de/xsd/sumoConfiguration.xsd">

    <input>
        <net-file value="net.net.xml"/>
        <route-files value="input_routes.rou.xml"/>
    </input>

    <output>
        <write-license value="true"/>
        <tripinfo-output value="tripinfos.xml"/>
        <railsignal-block-output value="railsignal_blocks.xml"/>
        <railsignal-vehicle-output value="railsignal_vehicles.xml"/>
    </output>

    <processing>
        <default.speeddev value="0"/>
    </processing>

    <report>
        <xml-validation value="never"/>
        <duration-log.disable value="true"/>
        <no-step-log value="true"/>
    </report>

</configuration>
-->

<railsignal-block-output>
    <railSignal id="A">
        <link linkIndex="0" from="a_0" to=":A_1_0">
            <driveWay id="A.0" vehicle="t0" edges="b c d e f -f f g">
                <forward lanes=":A_1_0 b_0 :B_1_0 c_0 :C_2_0 d_0"/>
                <bidi lanes=":A_0_0 -b_0 :B_0_0 -c_0 :C_0_0 -d_0 :D_0_0 -e_0 :E_0_0 -f_0 f_0 -f_0 :F_0_0 -g_0"/>
                <flank lanes=""/>
                <conflictLinks signals=""/>
                <foes driveWays="A.0 A.1"/>
            </driveWay>
            <driveWay id="A.1" vehicle="t1" edges="b c d -d d e f g">
                <forward lanes=":A_1_0 b_0 :B_1_0 c_0 :C_2_0 d_0 :D_2_0 -d_0 :C_1_0 d_0"/>
                <bidi lanes=":A_0_0 -b_0 :B_0_0 -c_0 :C_0_0 -d_0 d_0 -d_0 :D_0_0 -e_0 :E_0_0 -f_0 :F_0_0 -g_0"/>
                <flank lanes=""/>
                <conflictLinks signals=""/>
                <foes driveWays="A.0 A.1"/>
            </driveWay>
        </link>
    </railSignal>
    <railSignal id="C">
        <link linkIndex="0" from="-d_0" to=":C_0_0"/>
    </railSignal>
    <railSignal id="D">
        <link linkIndex="0" from="d_0" to=":D_1_0">
            <driveWay id="D.0" vehicle="t0" edges="e f -f f g">
                <forward lanes=":D_1_0 e_0 :E_2_0 f_0 :F_2_0 -f_0 :E_1_0 f_0"/>
                <bidi lanes=":D_0_0 -e_0 :E_0_0 -f_0 f_0 -f_0 :F_0_0 -g_0"/>
                <flank lanes=""/>
                <conflictLinks signals=""/>
                <foes driveWays="D.0 D.1"/>
            </driveWay>
            <driveWay id="D.1" vehicle="t1" edges="e f g">
                <forward lanes=":D_1_0 e_0 :E_2_0 f_0"/>
                <bidi lanes=":D_0_0 -e_0 :E_0_0 -f_0 :F_0_0 -g_0"/>
                <flank lanes=""/>
                <conflictLinks signals=""/>
                <foes driveWays="D.0 D.1"/>
            </driveWay>
        </link>
    </railSignal>
    <railSignal id="E">
        <link linkIndex="0" from="-f_0" to=":E_0_0"/>
    </railSignal>
    <railSignal id="F">
        <link linkIndex="0" from="f_0" to=":F_1_0">
            <driveWay id="F.0" vehicle="t0" edges="g">
                <forward lanes=":F_1_0 g_0"/>
                <bidi lanes=":F_0_0 -g_0"/>
                <flank lanes=""/>
                <conflictLinks signals=""/>
                <foes driveWays="F.0"/>
            </driveWay>
        </link>
    </railSignal>
    <departJunction id="J0">
        <driveWay id="J0.d0" vehicle="t0" edges="a b c d e f -f f g">
            <forward lanes="a_0"/>
            <bidi lanes="-a_0 :A_0_0 -b_0 :B_0_0 -c_0 :C_0_0 -d_0 :D_0_0 -e_0 :E_0_0 -f_0 f_0 -f_0 :F_0_0 -g_0"/>
            <flank lanes=""/>
            <conflictLinks signals="A_0"/>
            <foes driveWays="J0.d0 J0.d1"/>
        </driveWay>
        <driveWay id="J0.d1" vehicle="t1" edges="a b c d -d d e f g">
            <forward lanes="a_0"/>
            <bidi lanes="-a_0 :A_0_0 -b_0 :B_0_0 -c_0 :C_0_0 -d_0 d_0 -d_0 :D_0_0 -e_0 :E_0_0 -f_0 :F_0_0 -g_0"/>
            <flank lanes=""/>
            <conflictLinks signals=""/>
            <foes driveWays="J0.d0 J0.d1"/>
        </driveWay>
    </departJunction>
</railsignal-block-output>
