<?xml version="1.0" encoding="UTF-8"?>

<!-- generated on 2024-06-06 14:15:49 by Eclipse SUMO netedit Version v1_20_0+0390-2c3e3231e7b
-->

<routes xmlns:xsi="http://www.w3.org/2001/XMLSchema-instance" xsi:noNamespaceSchemaLocation="http://sumo.dlr.de/xsd/routes_file.xsd">
    <!-- Vehicles, persons and containers (sorted by depart) -->
    <vType id="t0" vClass="rail" length="50"/>
    <vehicle id="v_0" type="t0" depart="0.00">
        <route edges="E6 E0 E1 E2 E3"/>
    </vehicle>
    <vehicle id="v_1" type="t0" depart="0.00">
        <route edges="E6 E0 E1 E4 E5"/>
    </vehicle>
    <vehicle id="v_2" type="t0" depart="0.00">
        <route edges="E6 E0 E1 E2 E3"/>
    </vehicle>
    <vehicle id="v_3" type="t0" depart="0.00">
        <route edges="E6 E0 E1 E4 E5"/>
    </vehicle>
</routes>
