<?xml version="1.0" encoding="UTF-8"?>

<!-- generated on 2023-01-13 08:07:04 by Eclipse SUMO netconvert Version v1_15_0+1615-074980ce6e7
This data file and the accompanying materials
are made available under the terms of the Eclipse Public License v2.0
which accompanies this distribution, and is available at
http://www.eclipse.org/legal/epl-v20.html
This file may also be made available under the following Secondary
Licenses when the conditions for such availability set forth in the Eclipse
Public License 2.0 are satisfied: GNU General Public License, version 2
or later which is available at
https://www.gnu.org/licenses/old-licenses/gpl-2.0-standalone.html
SPDX-License-Identifier: EPL-2.0 OR GPL-2.0-or-later
<configuration xmlns:xsi="http://www.w3.org/2001/XMLSchema-instance" xsi:noNamespaceSchemaLocation="http://sumo.dlr.de/xsd/netconvertConfiguration.xsd">

    <input>
        <opendrive-files value="opendrive.xodr"/>
    </input>

    <output>
        <write-license value="true"/>
        <output-file value="net.net.xml"/>
        <opendrive-output value="foreign.net"/>
        <output.original-names value="true"/>
    </output>

    <junctions>
        <no-turnarounds value="true"/>
    </junctions>

    <report>
        <verbose value="true"/>
        <xml-validation value="never"/>
    </report>

</configuration>
-->

<OpenDRIVE>
    <header revMajor="1" revMinor="4" name="" version="1.00" date="Fri Jan 13 08:07:04 2023" north="0.00" south="0.00" east="50.00" west="0.00"/>
    <road name="a1" length="50.00000000" id="20" junction="-1">
        <link>
            <predecessor elementType="junction" elementId="1"/>
        </link>
        <type s="0" type="town"/>
        <planView>
            <geometry s="0.00000000" x="0.00000000" y="0.00000000" hdg="0.00000000" length="50.00000000">
                <line/>
            </geometry>
        </planView>
        <elevationProfile>
            <elevation s="0" a="0.00" b="0" c="0" d="0"/>
        </elevationProfile>
        <lateralProfile/>
        <lanes>
            <laneSection s="0">
                <center>
                    <lane id="0" type="none" level="true">
                        <link/>
                        <roadMark sOffset="0" type="solid" weight="standard" color="standard" width="0.13"/>
                    </lane>
                </center>
                <right>
                    <lane id="-1" type="driving" level="true">
                        <link/>
                        <width sOffset="0" a="3.00" b="0" c="0" d="0"/>
                        <roadMark sOffset="0" type="solid" weight="standard" color="standard" width="0.13"/>
                        <speed sOffset="0" max="13.89"/>
                    </lane>
                 </right>
            </laneSection>
        </lanes>
        <objects/>
        <signals/>
        <userData code="sumoId" value="-1"/>
    </road>
    <road name="a1" length="50.00000000" id="21" junction="-1">
        <link>
            <predecessor elementType="junction" elementId="2"/>
        </link>
        <type s="0" type="town"/>
        <planView>
            <geometry s="0.00000000" x="50.00000000" y="0.00000000" hdg="3.14159265" length="50.00000000">
                <line/>
            </geometry>
        </planView>
        <elevationProfile>
            <elevation s="0" a="0.00" b="0" c="0" d="0"/>
        </elevationProfile>
        <lateralProfile/>
        <lanes>
            <laneSection s="0">
                <center>
                    <lane id="0" type="none" level="true">
                        <link/>
                        <roadMark sOffset="0" type="solid" weight="standard" color="standard" width="0.13"/>
                    </lane>
                </center>
                <right>
                    <lane id="-1" type="driving" level="true">
                        <link/>
                        <width sOffset="0" a="3.00" b="0" c="0" d="0"/>
                        <roadMark sOffset="0" type="solid" weight="standard" color="standard" width="0.13"/>
                        <speed sOffset="0" max="13.89"/>
                    </lane>
                 </right>
            </laneSection>
        </lanes>
        <objects/>
        <signals/>
        <userData code="sumoId" value="1"/>
    </road>


</OpenDRIVE>
