<?xml version="1.0" encoding="UTF-8"?>

<!-- generated on 2024-04-12 13:00:48 by Eclipse SUMO netconvert Version v1_19_0+1806-3a769482ef6
This data file and the accompanying materials
are made available under the terms of the Eclipse Public License v2.0
which accompanies this distribution, and is available at
http://www.eclipse.org/legal/epl-v20.html
This file may also be made available under the following Secondary
Licenses when the conditions for such availability set forth in the Eclipse
Public License 2.0 are satisfied: GNU General Public License, version 2
or later which is available at
https://www.gnu.org/licenses/old-licenses/gpl-2.0-standalone.html
SPDX-License-Identifier: EPL-2.0 OR GPL-2.0-or-later
<configuration xmlns:xsi="http://www.w3.org/2001/XMLSchema-instance" xsi:noNamespaceSchemaLocation="http://sumo.dlr.de/xsd/netconvertConfiguration.xsd">

    <input>
        <osm-files value="osm.xml.gz"/>
    </input>

    <output>
        <write-license value="true"/>
        <ptstop-output value="additional.xml"/>
        <ptline-output value="ptlines.xml"/>
    </output>

    <projection>
        <proj.utm value="true"/>
    </projection>

    <junctions>
        <no-internal-links value="true"/>
    </junctions>

    <railway>
        <railway.topology.repair.minimal value="true"/>
    </railway>

    <report>
        <xml-validation value="never"/>
    </report>

</configuration>
-->

<net version="1.20" junctionCornerDetail="5" limitTurnSpeed="5.50" xmlns:xsi="http://www.w3.org/2001/XMLSchema-instance" xsi:noNamespaceSchemaLocation="http://sumo.dlr.de/xsd/net_file.xsd">

    <location netOffset="-383486.50,-5817986.08" convBoundary="0.00,0.00,42568.69,9271.40" origBoundary="13.282937,52.500358,13.909089,52.590899" projParameter="+proj=utm +zone=33 +ellps=WGS84 +datum=WGS84 +units=m +no_defs"/>

    <type id="railway.light_rail" priority="19" numLanes="1" speed="27.78" allow="rail_urban" oneway="1"/>

    <edge id="-114919150#2" from="988669016" to="3608523249" priority="19" type="railway.light_rail" spreadType="center" bidi="114919150#2" distance="5371.66">
        <lane id="-114919150#2_0" index="0" allow="rail_urban" speed="16.67" length="1.55" shape="5807.29,2693.96 5807.10,2693.90"/>
        <param key="railway:track_ref" value="15"/>
    </edge>
    <edge id="-114919150#3" from="2183466847" to="988669016" priority="19" type="railway.light_rail" spreadType="center" shape="5978.67,2718.34 5947.32,2716.60 5933.23,2715.41 5891.67,2711.43 5871.30,2708.74 5840.22,2702.74 5834.19,2701.14 5808.48,2694.31 5806.82,2693.81" bidi="114919150#3" distance="5545.72">
        <lane id="-114919150#3_0" index="0" allow="rail_urban" speed="16.67" length="174.06" shape="5977.17,2718.25 5947.32,2716.60 5933.23,2715.41 5891.67,2711.43 5871.30,2708.74 5840.22,2702.74 5834.19,2701.14 5808.48,2694.31 5806.96,2693.85"/>
        <param key="railway:track_ref" value="15"/>
    </edge>
    <edge id="-136651800#0" from="320929422" to="433559387" priority="19" type="railway.light_rail" spreadType="center" shape="14194.63,559.54 14281.63,629.39 14341.09,678.49 14454.53,775.16" bidi="136651800#0" distance="2538.35">
        <lane id="-136651800#0_0" index="0" allow="rail_urban" speed="22.22" length="337.72" shape="14194.75,559.63 14281.63,629.39 14341.09,678.49 14453.40,774.19"/>
    </edge>
    <edge id="-136651800#1" from="10307451214" to="320929422" priority="19" type="railway.light_rail" spreadType="center" bidi="136651800#1" distance="2567.42">
        <lane id="-136651800#1_0" index="0" allow="rail_urban" speed="22.22" length="29.06" shape="14172.02,541.51 14194.51,559.45"/>
    </edge>
    <edge id="-136651800#2" from="9350976825" to="10307451214" priority="19" type="railway.light_rail" spreadType="center" shape="13779.39,226.12 13805.22,243.06 13830.89,260.82 13856.43,280.35 13881.66,301.13 14020.64,418.88 14066.55,456.91 14111.59,492.99 14171.91,541.42" bidi="136651800#2" distance="3071.19">
        <lane id="-136651800#2_0" index="0" allow="rail_urban" speed="22.22" length="503.77" shape="13779.51,226.20 13805.22,243.06 13830.89,260.82 13856.43,280.35 13881.66,301.13 14020.64,418.88 14066.55,456.91 14111.59,492.99 14171.79,541.33"/>
    </edge>
    <edge id="-136651800#3" from="9350976822" to="9350976825" priority="19" type="railway.light_rail" spreadType="center" shape="13643.53,141.60 13647.20,143.95 13650.31,145.96 13705.49,180.03 13710.89,183.37 13740.80,201.92 13765.55,217.26 13770.92,220.69 13779.39,226.12" bidi="136651800#3" distance="3231.20">
        <lane id="-136651800#3_0" index="0" allow="rail_urban" speed="22.22" length="160.01" shape="13643.65,141.68 13647.20,143.95 13650.31,145.96 13705.49,180.03 13710.89,183.37 13740.80,201.92 13765.55,217.26 13770.92,220.69 13779.27,226.04"/>
    </edge>
    <edge id="-136651800#4" from="9335641611" to="9350976822" priority="19" type="railway.light_rail" spreadType="center" shape="13443.90,49.86 13469.95,58.44 13500.74,70.87 13541.19,87.71 13583.83,107.45 13630.74,133.38 13635.00,136.13 13643.53,141.60" bidi="136651800#4" distance="3451.43">
        <lane id="-136651800#4_0" index="0" allow="rail_urban" speed="22.22" length="220.23" shape="13444.04,49.91 13469.95,58.44 13500.74,70.87 13541.19,87.71 13583.83,107.45 13630.74,133.38 13635.00,136.13 13643.40,141.52"/>
    </edge>
    <edge id="-136651800#5" from="339397292" to="9335641611" priority="19" type="railway.light_rail" spreadType="center" bidi="136651800#5" distance="3462.34">
        <lane id="-136651800#5_0" index="0" allow="rail_urban" speed="22.22" length="10.90" shape="13434.94,47.03 13443.76,49.82"/>
    </edge>
    <edge id="-140643608" from="3064780087" to="279245170" priority="19" type="railway.light_rail" spreadType="center" shape="29264.91,1875.33 28685.29,1797.01 28651.74,1793.74 28632.99,1792.56 28620.78,1791.80 28609.39,1791.71 28543.31,1791.16 28488.35,1788.14 28477.77,1786.77 28424.27,1779.88 28268.74,1759.11 28217.97,1752.72 28171.68,1745.30 28038.62,1716.34 27895.18,1697.40 27695.98,1664.69 27464.46,1632.58 27457.35,1631.58 27448.88,1630.45 26840.80,1548.67 26829.25,1547.22" bidi="140643608">
        <lane id="-140643608_0" index="0" allow="rail_urban" speed="22.22" length="2459.09" shape="29264.78,1875.32 28685.29,1797.01 28651.74,1793.74 28632.99,1792.56 28620.78,1791.80 28609.39,1791.71 28543.31,1791.16 28488.35,1788.14 28477.77,1786.77 28424.27,1779.88 28268.74,1759.11 28217.97,1752.72 28171.68,1745.30 28038.62,1716.34 27895.18,1697.40 27695.98,1664.69 27464.46,1632.58 27457.35,1631.58 27448.88,1630.45 26840.80,1548.67 26829.37,1547.24"/>
    </edge>
    <edge id="-181866396" from="2311276499" to="3522277946" priority="19" type="railway.light_rail" spreadType="center" shape="38266.15,2804.78 38231.06,2806.79 38099.23,2819.02 38087.17,2820.15 38047.28,2823.76 37862.20,2838.22" bidi="181866396">
        <lane id="-181866396_0" index="0" allow="rail_urban" speed="22.22" length="405.35" shape="38266.00,2804.79 38231.06,2806.79 38099.23,2819.02 38087.17,2820.15 38047.28,2823.76 37862.35,2838.21"/>
    </edge>
    <edge id="-181866404" from="5322821868" to="268425129" priority="19" type="railway.light_rail" spreadType="center" shape="37102.14,2909.14 37088.63,2909.87 37062.70,2912.57 37019.89,2915.99 36992.96,2917.54 36961.14,2917.21 36938.20,2915.73 36917.65,2913.37 36868.06,2906.73 36826.64,2901.14 36805.95,2898.62 36718.89,2887.06" bidi="181866404">
        <lane id="-181866404_0" index="0" allow="rail_urban" speed="22.22" length="385.51" shape="37102.01,2909.14 37088.63,2909.87 37062.70,2912.57 37019.89,2915.99 36992.96,2917.54 36961.14,2917.21 36938.20,2915.73 36917.65,2913.37 36868.06,2906.73 36826.64,2901.14 36805.95,2898.62 36718.99,2887.08"/>
    </edge>
    <edge id="-217562762" from="268425129" to="2268474905" priority="19" type="railway.light_rail" spreadType="center" shape="36718.89,2887.06 36633.11,2871.96 36580.00,2864.27 36355.58,2833.55 36008.14,2786.22 35818.25,2760.34 35812.04,2759.37 35518.67,2719.93 35318.04,2692.83 35091.19,2661.95 34497.04,2581.34 34489.09,2580.22 34377.71,2565.43 34204.73,2541.80 34166.86,2537.59 34131.13,2532.82 34094.94,2530.17 34065.54,2526.62 34058.57,2525.69 33894.90,2503.84 33709.36,2479.02 33617.68,2466.54 33344.91,2429.51 33230.88,2414.08 33223.97,2413.23 33215.68,2412.03 32855.00,2362.88 32713.92,2345.09" bidi="217562762">
        <lane id="-217562762_0" index="0" allow="rail_urban" speed="22.22" length="4041.63" shape="36718.78,2887.05 36633.11,2871.96 36580.00,2864.27 36355.58,2833.55 36008.14,2786.22 35818.25,2760.34 35812.04,2759.37 35518.67,2719.93 35318.04,2692.83 35091.19,2661.95 34497.04,2581.34 34489.09,2580.22 34377.71,2565.43 34204.73,2541.80 34166.86,2537.59 34131.13,2532.82 34094.94,2530.17 34065.54,2526.62 34058.57,2525.69 33894.90,2503.84 33709.36,2479.02 33617.68,2466.54 33344.91,2429.51 33230.88,2414.08 33223.97,2413.23 33215.68,2412.03 32855.00,2362.88 32713.92,2345.09"/>
    </edge>
    <edge id="-222150746#0" from="3890993182" to="3522277904" priority="19" type="railway.light_rail" spreadType="center" shape="38727.41,2905.13 38695.46,2889.18 38640.25,2865.24 38590.03,2847.41 38550.77,2835.36 38501.08,2823.36 38449.82,2813.38 38413.98,2808.22 38384.68,2805.69 38355.09,2804.10 38339.27,2802.89">
        <lane id="-222150746#0_0" index="0" allow="rail_urban" speed="22.22" length="404.70" shape="38727.41,2905.13 38695.46,2889.18 38640.25,2865.24 38590.03,2847.41 38550.77,2835.36 38501.08,2823.36 38449.82,2813.38 38413.98,2808.22 38384.68,2805.69 38355.09,2804.10 38339.56,2802.91"/>
    </edge>
    <edge id="-222150746#1" from="251671882" to="3890993182" priority="19" type="railway.light_rail" spreadType="center" shape="39521.20,4332.77 39391.71,3994.95 39274.01,3693.64 39171.44,3431.64 39147.23,3370.79 39138.44,3351.71 39085.82,3243.58 39042.42,3179.43 39014.24,3141.55 38950.74,3070.05 38919.33,3039.68 38863.77,2992.37 38834.05,2970.73 38818.47,2959.84 38777.28,2933.90 38727.41,2905.13">
        <lane id="-222150746#1_0" index="0" allow="rail_urban" speed="22.22" length="1672.36" shape="39521.15,4332.64 39391.71,3994.95 39274.01,3693.64 39171.44,3431.64 39147.23,3370.79 39138.44,3351.71 39085.82,3243.58 39042.42,3179.43 39014.24,3141.55 38950.74,3070.05 38919.33,3039.68 38863.77,2992.37 38834.05,2970.73 38818.47,2959.84 38777.28,2933.90 38727.41,2905.13"/>
    </edge>
    <edge id="-222917863#0" from="6222789807" to="2316037026" priority="19" type="railway.light_rail" spreadType="center" bidi="222917863#0">
        <lane id="-222917863#0_0" index="0" allow="rail_urban" speed="22.22" length="108.00" shape="11451.39,480.08 11552.15,445.95"/>
    </edge>
    <edge id="-222917863#1" from="2316037031" to="6222789807" priority="19" type="railway.light_rail" spreadType="center" bidi="222917863#1">
        <lane id="-222917863#1_0" index="0" allow="rail_urban" speed="22.22" length="9.85" shape="11442.03,483.17 11451.11,480.17"/>
    </edge>
    <edge id="-23256160" from="251671880" to="251671882" priority="19" type="railway.light_rail" spreadType="center">
        <lane id="-23256160_0" index="0" allow="rail_urban" speed="22.22" length="15.02" shape="39526.86,4346.52 39521.25,4332.89"/>
    </edge>
    <edge id="-23256161#0" from="3890993188" to="3891006471" priority="19" type="railway.light_rail" spreadType="center" shape="39724.37,4814.03 39704.38,4774.71 39669.45,4696.93 39657.21,4669.38 39617.05,4576.38 39589.73,4508.95 39572.89,4463.44" bidi="23256161#0">
        <lane id="-23256161#0_0" index="0" allow="rail_urban" speed="22.22" length="382.10" shape="39724.30,4813.90 39704.38,4774.71 39669.45,4696.93 39657.21,4669.38 39617.05,4576.38 39589.73,4508.95 39572.94,4463.57"/>
    </edge>
    <edge id="-23256161#1" from="31012638" to="3890993188" priority="19" type="railway.light_rail" spreadType="center" shape="40992.02,6450.26 40966.73,6409.67 40933.36,6368.21 40897.40,6331.18 40844.27,6284.27 40792.68,6249.06 40723.90,6207.05 40643.15,6153.87 40604.41,6126.97 40568.98,6099.29 40517.42,6056.33 40494.49,6033.61 40472.03,6010.91 40444.96,5981.27 40418.66,5951.68 40383.84,5908.78 40353.10,5865.93 40342.73,5851.19 40306.19,5793.59 40279.81,5752.33 40114.93,5494.48 40066.32,5421.48 40025.42,5354.97 39970.28,5262.82 39943.41,5218.54 39909.67,5163.41 39857.32,5071.92 39823.63,5010.58 39794.20,4953.11 39724.37,4814.03" bidi="23256161#1">
        <lane id="-23256161#1_0" index="0" allow="rail_urban" speed="22.22" length="2100.90" shape="40992.02,6450.26 40966.73,6409.67 40933.36,6368.21 40897.40,6331.18 40844.27,6284.27 40792.68,6249.06 40723.90,6207.05 40643.15,6153.87 40604.41,6126.97 40568.98,6099.29 40517.42,6056.33 40494.49,6033.61 40472.03,6010.91 40444.96,5981.27 40418.66,5951.68 40383.84,5908.78 40353.10,5865.93 40342.73,5851.19 40306.19,5793.59 40279.81,5752.33 40114.93,5494.48 40066.32,5421.48 40025.42,5354.97 39970.28,5262.82 39943.41,5218.54 39909.67,5163.41 39857.32,5071.92 39823.63,5010.58 39794.20,4953.11 39724.43,4814.17"/>
    </edge>
    <edge id="-23635777" from="2961331679" to="256045965" priority="19" type="railway.light_rail" spreadType="center" shape="42035.96,8605.70 41945.85,8541.89 41761.23,8411.06 41673.53,8352.29 41498.53,8227.73 41451.45,8194.92 41416.20,8168.07 41383.53,8141.68 41350.13,8111.23 41323.75,8084.81 41296.17,8053.10 41273.76,8026.75 41252.94,7997.95 41240.48,7977.79 41229.66,7960.01 41210.24,7923.48 41204.53,7909.49 41201.86,7902.95 41199.95,7897.82 41194.20,7882.23 41157.02,7771.27 41135.59,7697.34 41119.53,7610.86 41106.99,7459.36 41106.58,7336.56 41106.18,7206.14 41105.71,7053.94 41104.85,6953.17 41104.79,6847.34 41104.57,6799.42 41102.37,6772.63 41098.83,6739.07 41094.13,6709.84 41087.82,6677.17 41081.69,6651.81 41074.59,6626.66 41058.79,6581.27 41038.06,6531.90 41011.82,6481.99" bidi="23635777">
        <lane id="-23635777_0" index="0" allow="rail_urban" speed="22.22" length="2553.23" shape="42035.84,8605.61 41945.85,8541.89 41761.23,8411.06 41673.53,8352.29 41498.53,8227.73 41451.45,8194.92 41416.20,8168.07 41383.53,8141.68 41350.13,8111.23 41323.75,8084.81 41296.17,8053.10 41273.76,8026.75 41252.94,7997.95 41240.48,7977.79 41229.66,7960.01 41210.24,7923.48 41204.53,7909.49 41201.86,7902.95 41199.95,7897.82 41194.20,7882.23 41157.02,7771.27 41135.59,7697.34 41119.53,7610.86 41106.99,7459.36 41106.58,7336.56 41106.18,7206.14 41105.71,7053.94 41104.85,6953.17 41104.79,6847.34 41104.57,6799.42 41102.37,6772.63 41098.83,6739.07 41094.13,6709.84 41087.82,6677.17 41081.69,6651.81 41074.59,6626.66 41058.79,6581.27 41038.06,6531.90 41011.82,6481.99"/>
    </edge>
    <edge id="-23635778" from="256045965" to="31012638" priority="19" type="railway.light_rail" spreadType="center" bidi="23635778">
        <lane id="-23635778_0" index="0" allow="rail_urban" speed="22.22" length="37.40" shape="41011.82,6481.99 40992.02,6450.26"/>
    </edge>
    <edge id="-24988543#1" from="3803351065" to="4863934088" priority="19" type="railway.light_rail" spreadType="center" bidi="24988543#1">
        <lane id="-24988543#1_0" index="0" allow="rail_urban" speed="16.67" length="20.72" shape="4495.33,2164.88 4513.65,2159.51"/>
    </edge>
    <edge id="-24988543#2" from="269040743" to="3803351065" priority="19" type="railway.light_rail" spreadType="center" shape="4375.98,2184.43 4384.40,2183.40 4410.93,2179.79 4471.78,2170.58 4486.72,2167.21 4495.20,2164.92" bidi="24988543#2">
        <lane id="-24988543#2_0" index="0" allow="rail_urban" speed="16.67" length="120.90" shape="4377.39,2184.26 4384.40,2183.40 4410.93,2179.79 4471.78,2170.58 4486.72,2167.21 4495.07,2164.95"/>
    </edge>
    <edge id="-25946682#1" from="4863934107" to="3998225891" priority="19" type="railway.light_rail" spreadType="center" bidi="25946682#1">
        <lane id="-25946682#1_0" index="0" allow="rail_urban" speed="16.67" length="1.55" shape="7548.93,2173.58 7548.76,2173.47"/>
    </edge>
    <edge id="-25946682#2" from="27411996" to="4863934107" priority="19" type="railway.light_rail" spreadType="center" shape="7571.77,2189.43 7556.05,2177.98 7548.77,2173.48" bidi="25946682#2">
        <lane id="-25946682#2_0" index="0" allow="rail_urban" speed="16.67" length="28.02" shape="7570.57,2188.56 7556.05,2177.98 7548.89,2173.55"/>
    </edge>
    <edge id="-26291396" from="2268474856" to="287995128" priority="19" type="railway.light_rail" spreadType="center" shape="32108.85,2261.22 32012.64,2249.17 32006.26,2248.37 31999.56,2247.57 31893.40,2232.42 31862.52,2228.62 31825.04,2225.87 31790.10,2225.08 31755.81,2226.19 31714.83,2228.10 31559.27,2235.92 31313.45,2240.19 31034.31,2243.95 31009.37,2244.26 30957.71,2243.27 30911.82,2240.17 30511.06,2187.37 30353.84,2156.97 30015.04,2086.30 29984.39,2078.50 29920.93,2059.30 29784.43,2015.44 29618.21,1963.07" bidi="26291396">
        <lane id="-26291396_0" index="0" allow="rail_urban" speed="22.22" length="2525.76" shape="32108.71,2261.21 32012.64,2249.17 32006.26,2248.37 31999.56,2247.57 31893.40,2232.42 31862.52,2228.62 31825.04,2225.87 31790.10,2225.08 31755.81,2226.19 31714.83,2228.10 31559.27,2235.92 31313.45,2240.19 31034.31,2243.95 31009.37,2244.26 30957.71,2243.27 30911.82,2240.17 30511.06,2187.37 30353.84,2156.97 30015.04,2086.30 29984.39,2078.50 29920.93,2059.30 29784.43,2015.44 29618.21,1963.07"/>
    </edge>
    <edge id="-26291402" from="287995128" to="287995137" priority="19" type="railway.light_rail" spreadType="center" bidi="26291402">
        <lane id="-26291402_0" index="0" allow="rail_urban" speed="22.22" length="88.94" shape="29618.21,1963.07 29533.52,1936.36"/>
    </edge>
    <edge id="-273275700" from="266326479" to="2781518458" priority="19" type="railway.light_rail" spreadType="center" shape="3228.70,657.62 3274.57,738.39 3304.38,794.86" bidi="273275700">
        <lane id="-273275700_0" index="0" allow="rail_urban" speed="16.67" length="156.74" shape="3229.44,658.93 3274.57,738.39 3304.31,794.73"/>
        <param key="railway:track_ref" value="6"/>
    </edge>
    <edge id="-275712155#1" from="6765174981" to="6765221585" priority="19" type="railway.light_rail" spreadType="center" bidi="275712155#1">
        <lane id="-275712155#1_0" index="0" allow="rail_urban" speed="22.22" length="24.97" shape="1338.16,530.53 1316.13,522.86"/>
        <param key="railway:track_ref" value="335"/>
    </edge>
    <edge id="-275712155#2" from="27215879" to="6765174981" priority="19" type="railway.light_rail" spreadType="center" shape="1350.69,534.78 1346.01,533.20 1345.43,532.95 1338.30,530.58" bidi="275712155#2">
        <lane id="-275712155#2_0" index="0" allow="rail_urban" speed="22.22" length="13.09" shape="1349.27,534.30 1346.01,533.20 1345.43,532.95 1338.44,530.62"/>
        <param key="railway:track_ref" value="335"/>
    </edge>
    <edge id="-29183195#0" from="10769448938" to="320931613" priority="19" type="railway.light_rail" spreadType="center" shape="15645.75,1296.18 15686.07,1294.66 15800.49,1288.11 15987.18,1277.49" bidi="29183195#0">
        <lane id="-29183195#0_0" index="0" allow="rail_urban" speed="22.22" length="341.95" shape="15645.75,1296.18 15686.07,1294.66 15800.49,1288.11 15985.69,1277.57"/>
    </edge>
    <edge id="-29183195#1" from="653541382" to="10769448938" priority="19" type="railway.light_rail" spreadType="center" shape="14814.36,1078.21 14823.59,1084.57 14839.41,1095.49 14880.75,1121.35 14926.14,1147.65 14977.45,1174.26 15028.96,1197.39 15066.30,1213.01 15118.31,1231.72 15147.89,1240.16 15182.67,1247.90 15269.04,1265.32 15329.46,1276.20 15391.22,1285.42 15432.88,1289.61 15468.32,1293.18 15531.98,1296.03 15607.62,1297.62 15621.02,1297.11 15645.75,1296.18" bidi="29183195#1">
        <lane id="-29183195#1_0" index="0" allow="rail_urban" speed="22.22" length="875.03" shape="14815.59,1079.06 14823.59,1084.57 14839.41,1095.49 14880.75,1121.35 14926.14,1147.65 14977.45,1174.26 15028.96,1197.39 15066.30,1213.01 15118.31,1231.72 15147.89,1240.16 15182.67,1247.90 15269.04,1265.32 15329.46,1276.20 15391.22,1285.42 15432.88,1289.61 15468.32,1293.18 15531.98,1296.03 15607.62,1297.62 15621.02,1297.11 15645.75,1296.18"/>
    </edge>
    <edge id="-302224337" from="3064780089" to="3064780087" priority="19" type="railway.light_rail" spreadType="center" bidi="302224337">
        <lane id="-302224337_0" index="0" allow="rail_urban" speed="22.22" length="8.03" shape="29272.80,1876.17 29265.04,1875.35"/>
    </edge>
    <edge id="-302224338" from="287995137" to="3064780089" priority="19" type="railway.light_rail" spreadType="center" shape="29533.38,1936.31 29479.82,1919.65 29423.26,1903.07 29388.43,1895.00 29353.09,1888.24 29272.90,1876.18" bidi="302224338">
        <lane id="-302224338_0" index="0" allow="rail_urban" speed="22.22" length="267.86" shape="29533.24,1936.27 29479.82,1919.65 29423.26,1903.07 29388.43,1895.00 29353.09,1888.24 29273.00,1876.20"/>
    </edge>
    <edge id="-30691617#1" from="9350976817" to="6222788678" priority="19" type="railway.light_rail" spreadType="center" shape="13640.45,127.35 13619.63,117.55 13585.49,102.94 13542.17,84.25 13502.17,67.63 13471.02,55.23 13448.21,47.57" bidi="30691617#1" distance="3360.15">
        <lane id="-30691617#1_0" index="0" allow="rail_urban" speed="22.22" length="208.23" shape="13640.32,127.28 13619.63,117.55 13585.49,102.94 13542.17,84.25 13502.17,67.63 13471.02,55.23 13449.59,48.03"/>
    </edge>
    <edge id="-30691617#2" from="29803450" to="9350976817" priority="19" type="railway.light_rail" spreadType="center" shape="13779.09,214.68 13772.07,209.33 13764.91,203.67 13739.70,185.62 13713.03,167.81 13679.08,147.60 13655.85,134.75 13640.45,127.35" bidi="30691617#2" distance="3524.32">
        <lane id="-30691617#2_0" index="0" allow="rail_urban" speed="22.22" length="164.17" shape="13779.09,214.68 13772.07,209.33 13764.91,203.67 13739.70,185.62 13713.03,167.81 13679.08,147.60 13655.85,134.75 13640.58,127.41"/>
    </edge>
    <edge id="-30691617#3" from="10299278009" to="29803450" priority="19" type="railway.light_rail" spreadType="center" shape="13963.25,365.58 13886.92,300.86 13834.53,256.93 13779.09,214.68" bidi="30691617#3" distance="3762.47">
        <lane id="-30691617#3_0" index="0" allow="rail_urban" speed="22.22" length="238.15" shape="13963.14,365.48 13886.92,300.86 13834.53,256.93 13779.09,214.68"/>
    </edge>
    <edge id="-30691617#4" from="320930289" to="10299278009" priority="19" type="railway.light_rail" spreadType="center" shape="14127.17,496.81 14099.88,476.74 14071.71,455.39 14046.53,435.44 14022.41,415.20 13963.25,365.58" bidi="30691617#4" distance="3972.52">
        <lane id="-30691617#4_0" index="0" allow="rail_urban" speed="22.22" length="210.05" shape="14127.05,496.72 14099.88,476.74 14071.71,455.39 14046.53,435.44 14022.41,415.20 13963.36,365.67"/>
    </edge>
    <edge id="-30691617#5" from="10299260607" to="320930289" priority="19" type="railway.light_rail" spreadType="center" bidi="30691617#5" distance="3983.48">
        <lane id="-30691617#5_0" index="0" allow="rail_urban" speed="22.22" length="10.96" shape="14135.94,503.14 14127.29,496.90"/>
    </edge>
    <edge id="-30691617#6" from="10307451213" to="10299260607" priority="19" type="railway.light_rail" spreadType="center" shape="14283.88,617.30 14208.62,557.28 14172.56,529.86 14136.06,503.22" bidi="30691617#6" distance="4170.23">
        <lane id="-30691617#6_0" index="0" allow="rail_urban" speed="22.22" length="186.75" shape="14283.76,617.20 14208.62,557.28 14172.56,529.86 14136.18,503.31"/>
    </edge>
    <edge id="-30691617#7" from="10307451212" to="10307451213" priority="19" type="railway.light_rail" spreadType="center" shape="14362.58,680.55 14318.57,645.22 14283.88,617.30" bidi="30691617#7" distance="4271.20">
        <lane id="-30691617#7_0" index="0" allow="rail_urban" speed="22.22" length="100.97" shape="14362.47,680.45 14318.57,645.22 14284.00,617.39"/>
    </edge>
    <edge id="-30691617#8" from="433559384" to="10307451212" priority="19" type="railway.light_rail" spreadType="center" shape="14462.90,764.97 14387.92,701.15 14362.58,680.55" bidi="30691617#8" distance="4402.32">
        <lane id="-30691617#8_0" index="0" allow="rail_urban" speed="22.22" length="131.12" shape="14461.76,764.00 14387.92,701.15 14362.70,680.64"/>
    </edge>
    <edge id="-32590419#1" from="3901768667" to="320457289" priority="19" type="railway.light_rail" spreadType="center" bidi="32590419#1">
        <lane id="-32590419#1_0" index="0" allow="rail_urban" speed="16.67" length="9.40" shape="9204.81,1449.44 9198.56,1454.20"/>
    </edge>
    <edge id="-32590419#2" from="3808493525" to="3901768667" priority="19" type="railway.light_rail" spreadType="center" shape="9343.25,1371.28 9320.15,1383.14 9299.49,1394.25 9279.25,1405.26 9256.02,1418.67 9230.41,1433.41 9209.43,1445.91 9204.93,1449.35" bidi="32590419#2">
        <lane id="-32590419#2_0" index="0" allow="rail_urban" speed="16.67" length="158.92" shape="9343.11,1371.35 9320.15,1383.14 9299.49,1394.25 9279.25,1405.26 9256.02,1418.67 9230.41,1433.41 9209.43,1445.91 9205.04,1449.26"/>
    </edge>
    <edge id="-32590419#3" from="30215273" to="3808493525" priority="19" type="railway.light_rail" spreadType="center" shape="9361.44,1361.77 9351.22,1367.16 9343.25,1371.28" bidi="32590419#3">
        <lane id="-32590419#3_0" index="0" allow="rail_urban" speed="16.67" length="20.53" shape="9360.13,1362.45 9351.22,1367.16 9343.38,1371.21"/>
    </edge>
    <edge id="-32591076#2" from="2183466850" to="276689615" priority="19" type="railway.light_rail" spreadType="center" bidi="32591076#2" distance="5270.17">
        <lane id="-32591076#2_0" index="0" allow="rail_urban" speed="16.67" length="15.71" shape="5978.85,2732.42 5992.91,2731.85"/>
    </edge>
    <edge id="-32591076#3" from="988669017" to="2183466850" priority="19" type="railway.light_rail" spreadType="center" bidi="32591076#3" distance="5279.87">
        <lane id="-32591076#3_0" index="0" allow="rail_urban" speed="16.67" length="9.70" shape="5970.42,2732.68 5978.56,2732.43"/>
    </edge>
    <edge id="-356053025#0" from="3890993178" to="5322821868" priority="19" type="railway.light_rail" spreadType="center" shape="37233.47,2898.07 37231.17,2898.27 37188.03,2900.97 37138.17,2905.67 37134.35,2905.98 37104.86,2908.56 37102.14,2909.14" bidi="356053025#0">
        <lane id="-356053025#0_0" index="0" allow="rail_urban" speed="22.22" length="131.84" shape="37233.32,2898.09 37231.17,2898.27 37188.03,2900.97 37138.17,2905.67 37134.35,2905.98 37104.86,2908.56 37102.26,2909.11"/>
    </edge>
    <edge id="-356053025#1" from="5315577050" to="3890993178" priority="19" type="railway.light_rail" spreadType="center" bidi="356053025#1">
        <lane id="-356053025#1_0" index="0" allow="rail_urban" speed="22.22" length="4.11" shape="37237.42,2897.76 37233.62,2898.06"/>
    </edge>
    <edge id="-36379092" from="424265253" to="5322821867" priority="19" type="railway.light_rail" spreadType="center" shape="37439.11,2879.83 37440.50,2879.67 37449.49,2878.18 37464.74,2875.41 37489.66,2871.46 37500.27,2870.61" bidi="36379092">
        <lane id="-36379092_0" index="0" allow="rail_urban" speed="11.11" length="61.89" shape="37439.25,2879.81 37440.50,2879.67 37449.49,2878.18 37464.74,2875.41 37489.66,2871.46 37500.12,2870.62"/>
    </edge>
    <edge id="-366012955" from="3993887847" to="2961331679" priority="19" type="railway.light_rail" spreadType="center" shape="42518.78,9183.60 42517.49,9180.82 42446.38,9055.07 42378.24,8934.37 42337.25,8871.59 42296.79,8819.75 42227.15,8747.47 42087.78,8642.86 42083.81,8640.16 42035.96,8605.70" bidi="366012955">
        <lane id="-366012955_0" index="0" allow="rail_urban" speed="22.22" length="765.28" shape="42518.78,9183.60 42517.49,9180.82 42446.38,9055.07 42378.24,8934.37 42337.25,8871.59 42296.79,8819.75 42227.15,8747.47 42087.78,8642.86 42083.81,8640.16 42036.08,8605.78"/>
    </edge>
    <edge id="-371846332#1" from="30214862" to="9332902037" priority="19" type="railway.light_rail" spreadType="center" shape="10234.16,1053.66 10229.00,1056.75 10216.46,1064.49 10203.84,1071.26" bidi="371846332#1">
        <lane id="-371846332#1_0" index="0" allow="rail_urban" speed="16.67" length="35.07" shape="10234.16,1053.66 10229.00,1056.75 10216.46,1064.49 10205.14,1070.56"/>
    </edge>
    <edge id="-377118650#1" from="267982104" to="4355225315" priority="19" type="railway.light_rail" spreadType="center" bidi="377118650#1">
        <lane id="-377118650#1_0" index="0" allow="rail_urban" speed="16.67" length="15.83" shape="3644.51,1630.76 3650.21,1643.82"/>
    </edge>
    <edge id="-377118650#2" from="267982103" to="267982104" priority="19" type="railway.light_rail" spreadType="center" shape="3634.31,1603.88 3640.36,1620.31 3644.46,1630.65" bidi="377118650#2">
        <lane id="-377118650#2_0" index="0" allow="rail_urban" speed="16.67" length="28.62" shape="3634.83,1605.28 3640.36,1620.31 3644.41,1630.53"/>
    </edge>
    <edge id="-377474960#0" from="3808493527" to="320457304" priority="19" type="railway.light_rail" spreadType="center" bidi="377474960#0">
        <lane id="-377474960#0_0" index="0" allow="rail_urban" speed="16.67" length="18.21" shape="9346.52,1377.60 9360.66,1368.97"/>
    </edge>
    <edge id="-377474960#1" from="3901768668" to="3808493527" priority="19" type="railway.light_rail" spreadType="center" shape="9211.97,1459.52 9216.54,1456.56 9240.52,1441.78 9346.39,1377.67" bidi="377474960#1">
        <lane id="-377474960#1_0" index="0" allow="rail_urban" speed="16.67" length="157.38" shape="9212.10,1459.44 9216.54,1456.56 9240.52,1441.78 9346.27,1377.75"/>
    </edge>
    <edge id="-377474960#2" from="320457306" to="3901768668" priority="19" type="railway.light_rail" spreadType="center" shape="9199.25,1467.78 9205.13,1463.93 9211.97,1459.52" bidi="377474960#2">
        <lane id="-377474960#2_0" index="0" allow="rail_urban" speed="16.67" length="15.16" shape="9200.48,1466.98 9205.13,1463.93 9211.84,1459.60"/>
    </edge>