<?xml version="1.0" encoding="UTF-8"?>

<!-- generated on 2024-03-18 16:27:20 by Eclipse SUMO netconvert Version v1_19_0+1377-53a6e3ab519
This data file and the accompanying materials
are made available under the terms of the Eclipse Public License v2.0
which accompanies this distribution, and is available at
http://www.eclipse.org/legal/epl-v20.html
This file may also be made available under the following Secondary
Licenses when the conditions for such availability set forth in the Eclipse
Public License 2.0 are satisfied: GNU General Public License, version 2
or later which is available at
https://www.gnu.org/licenses/old-licenses/gpl-2.0-standalone.html
SPDX-License-Identifier: EPL-2.0 OR GPL-2.0-or-later
<configuration xmlns:xsi="http://www.w3.org/2001/XMLSchema-instance" xsi:noNamespaceSchemaLocation="http://sumo.dlr.de/xsd/netconvertConfiguration.xsd">

    <input>
        <osm-files value="osm.xml.gz"/>
    </input>

    <output>
        <write-license value="true"/>
        <ptstop-output value="additional.xml"/>
        <ptline-output value="ptlines.xml"/>
    </output>

    <projection>
        <proj.utm value="true"/>
    </projection>

    <junctions>
        <no-internal-links value="true"/>
    </junctions>

    <railway>
        <railway.topology.repair.minimal value="true"/>
    </railway>

    <report>
        <xml-validation value="never"/>
    </report>

</configuration>
-->

<ptLines xmlns:xsi="http://www.w3.org/2001/XMLSchema-instance" xsi:noNamespaceSchemaLocation="http://sumo.dlr.de/xsd/ptlines_file.xsd">
    <ptLine id="2015944" name="S5: S Strausberg Nord =&gt; S Westkreuz" line="S5" type="light_rail" vClass="rail_urban" period="600" color="242,87,33" completeness="1.00">
        <route edges="-550961652 -366012955 -23635777 -23635778 -23256161#1 -23256161#0 -385764617 -23256160 -222150746#1 -222150746#0 -385764616 -181866396 -538597481 -713903648 36379092 -550337516 -356053025#1 -356053025#0 -181866404 -217562762 217562764 -26291396 -26291402 -302224338 -302224337 -140643608 47973407 4699387 36789617 713891633 36785392 550340844 550340843 1163081915#0 1163081915#1 1163081917 36785394 1163081912 550965668 550965673 396007088 396007083 36784503 9931389 29182927 233865126 233865147 29183194 385393647 385393643 29183195#0 29183195#1 262167706 136651807 136651800#0 136651800#1 136651800#2 136651800#3 136651800#4 136651800#5 30691605 446700168#0 446700168#1 407544828 628775713 628774814#0 628774814#1 628774814#2 -653881643#1 -653881643#0 -520764261#2 -520764261#1 -520764261#0 136698261 678992907 346444754#0 346444754#1 346444754#2 222917863#0 222917863#1 654481303 222917861#0 222917861#1 222917861#2 222917861#3 84547061 4741937#0 4741937#1 505939992 588080171#0 588080171#1 136697964 281692033 363038684 898204971 898204970 898205017 898205016 153950519 32590375 345095784 32572697 32572698 377474960#0 377474960#1 377474960#2 377474961 32590416 32590417 32590420 32590421 32590424 32590425 32590428 32590429 32590432 32590433 32590436 25946659#0 25946659#1 72984388 32590497 32590498 32590499 32590501#0 32590501#1 32590648 32590649#0 32590649#1 32590649#2 32590639 32590640#0 32590640#1 32590640#2 32590652 32590653#0 32590653#1 32590895 32590896 32590903 32590904#0 32590904#1 29384710 25946685 25946677 25946678 25946662 25946663 29384521#0 29384521#1 29384522#0 29384522#1 29384522#2 25386366 31025768#0 31025768#1 32591068 32591069#0 32591069#1 32591076#0 32591076#1 32591076#2 32591076#3 85258728#0 85258728#1 24757714#0 24757714#1 24757728 219922209 219922213 24757711 24757712#0 24757712#1 24988542#0 24988542#1 24988543#0 24988543#1 24988543#2 24757445 437578299#0 437578299#1 24757446#0 24757446#1 24757438 24757439#0 24757439#1 32515020 32515021#0 32515021#1 377118650#0 377118650#1 377118650#2 25834482 24654690 51268883 422692537 51268880#0 51268880#1 51268880#2 51268880#3 51268880#4 273275700 273275698#0 273275698#1 273275698#2 273275698#3 273275698#4 438400101#0 438400101#1 377124041#0 377124041#1 57728640 37427016 37427019 37427020 275724840#0 275724840#1 37427025 37427026 275722376#0 275722376#1 275722376#2 275716890 37427031 37427032#0 37427032#1 37427052 37427053#0 37427053#1 275711863 37427044 26258565#0 26258565#1 4480565 4405237#0 4405237#1 4405237#2 4405237#3 28861240"/>
        <busStop id="-1117011642" name="Strausberg Nord"/>
        <busStop id="-1117011687" name="Strausberg Stadt"/>
        <busStop id="-1117011661" name="Hegermühle"/>
        <busStop id="-1117011739" name="Strausberg"/>
        <busStop id="-1117011644" name="Petershagen Nord"/>
        <busStop id="1117011767" name="Fredersdorf (bei Berlin)"/>
        <busStop id="-1117011926" name="Neuenhagen"/>
        <busStop id="1117011811" name="Hoppegarten (Mark)"/>
        <busStop id="1117011631" name="Birkenstein"/>
        <busStop id="1117011628" name="Mahlsdorf"/>
        <busStop id="1117011702" name="Kaulsdorf"/>
        <busStop id="29881347" name="Wuhletal"/>
        <busStop id="1117011725" name="Biesdorf"/>
        <busStop id="1117011829" name="Friedrichsfelde Ost"/>
        <busStop id="320929401" name="Lichtenberg"/>
        <busStop id="1117011896" name="Nöldnerplatz"/>
        <busStop id="-5316085166" name="Ostkreuz"/>
        <busStop id="6127606967" name="Warschauer Straße"/>
        <busStop id="2837556545" name="Ostbahnhof"/>
        <busStop id="1745157972" name="Jannowitzbrücke"/>
        <busStop id="574265352" name="Alexanderplatz"/>
        <busStop id="1745157971" name="Hackescher Markt"/>
        <busStop id="2603331695" name="Friedrichstraße"/>
        <busStop id="2813070486" name="Hauptbahnhof"/>
        <busStop id="1745174995" name="Bellevue"/>
        <busStop id="1745174999" name="Tiergarten"/>
        <busStop id="1745221448" name="Zoologischer Garten"/>
        <busStop id="1745221431" name="Savignyplatz"/>
        <busStop id="1920671945" name="Charlottenburg"/>
        <busStop id="1745221443" name="Westkreuz"/>
    </ptLine>
    <ptLine id="2015959" name="S5: S Westkreuz =&gt; S Strausberg Nord" line="S5" type="light_rail" vClass="rail_urban" period="600" color="242,87,33" completeness="1.00">
        <route edges="141175716#0 141175716#1 24867662#0 24867662#1 24867662#2 24867663 25369057 275714489 275713980#0 275713980#1 4475817 37427047 275714516 275712154 721032806 275712155#0 275712155#1 275712155#2 37427058 4475818 4475819 4490167 275716889#0 275716889#1 4490165 312249582#0 312249582#1 4490169 275724841 4490170 4490239 4490240 57728648 4490242 4490243 4490244 4490245#0 4490245#1 4490246 4490247 4490248 4490249 4490250 4434429#0 4434429#1 4490252 4490251 273275699#0 273275699#1 4490254 273275701#0 273275701#1 4490255 4490256#0 4490256#1 4490256#2 4490256#3 8094153 4448412#0 4448412#1 8094156 8094157 4448413#0 4448413#1 4381161 31027672 25834481#0 25834481#1 377118649#0 377118649#1 32515018 32515019 4490258 4490257#0 4490257#1 4490257#2 437578300#0 437578300#1 4490323 24757444#0 24757444#1 4490324 157388729#0 157388729#1 157388727 4490333 219922208 219922205#0 219922205#1 4315430#0 4315430#1 114919150#0 114919150#1 114919150#2 114919150#3 85258732 32591077#0 32591077#1 32591070 32591071#0 32591071#1 4471826 4471824 4471823#0 4471823#1 25946658#0 25946658#1 4471821 4471820 4471819#0 4471819#1 4471818 23809672 25946681 25946682#0 25946682#1 25946682#2 32590901 32590902 32590893 32590894#0 32590894#1 23809673 4471817#0 4471817#1 4471817#2 4471817#3 25086879 32590638#0 32590638#1 32590645 32590647#0 32590647#1 32590493 32590494 32590495 32590496#0 32590496#1 72984377#0 72984377#1 72984377#2 32590437 32590438 32590434 32590435#0 32590435#1 32590430 32590431#0 32590431#1 32590426 32590427 32590422 32590423 32590418 377474958 32590419#0 32590419#1 32590419#2 32590419#3 377474959 32572699 32572700#0 32572700#1 32590373 31912616#0 31912616#1 898205012 898205011 898204980 898204979 371846332#0 371846332#1 505939991 136697960#0 136697960#1 588080156 136697955 653874274 440405446#0 440405446#1 440405446#2 440405446#3 440405446#4 440405446#5 654481299 654481300#0 654481300#1 678992906#0 678992906#1 407544848#0 407544848#1 407544848#2 407544848#3 446682260#0 446682260#1 446682260#2 446682257 678992905#0 678992905#1 678992905#2 306723903 306723907#0 306723907#1 30691616 30691617#0 30691617#1 30691617#2 30691617#3 30691617#4 30691617#5 30691617#6 30691617#7 30691617#8 136651804#0 136651804#1 136651804#2 24565640 385393639 385393634 174931174 24565641 29183304 233865125 233865123 10195166 4699426 550965672 550965669 1163081910 1163081913 396007085 1163081914 1163081916#0 1163081916#1 550340846 550340845#0 550340845#1 25375343 1163081918 713891632 713891631 25375344 36789615 36789616#0 36789616#1 140643608 302224337 302224338 26291402 26291396 217562763 217562762 181866404 356053025#0 356053025#1 550337516 -36379092 713903648 538597481 181866396 385764616 385764614#0 385764614#1 385764615 385764618 23256161#0 23256161#1 23635778 23635777 366012955 550961652"/>
        <busStop id="47786602" name="Westkreuz"/>
        <busStop id="1920671950" name="Charlottenburg"/>
        <busStop id="3998225896" name="Savignyplatz"/>
        <busStop id="2781518430" name="Zoologischer Garten"/>
        <busStop id="4946539227" name="Tiergarten"/>
        <busStop id="4946539242" name="Bellevue"/>
        <busStop id="27412648" name="Hauptbahnhof"/>
        <busStop id="27412232" name="Friedrichstraße"/>
        <busStop id="27411240" name="Hackescher Markt"/>
        <busStop id="27411231" name="Alexanderplatz"/>
        <busStop id="4946539224" name="Jannowitzbrücke"/>
        <busStop id="1745157973" name="Ostbahnhof"/>
        <busStop id="3714150030" name="Warschauer Straße"/>
        <busStop id="4439191866" name="Ostkreuz"/>
        <busStop id="1117011753" name="Nöldnerplatz"/>
        <busStop id="1117011942" name="Lichtenberg"/>
        <busStop id="7896839337" name="Friedrichsfelde Ost"/>
        <busStop id="1117011619" name="Biesdorf"/>
        <busStop id="1117011616" name="Wuhletal"/>
        <busStop id="1117011604" name="Kaulsdorf"/>
        <busStop id="1117011882" name="Mahlsdorf"/>
        <busStop id="1855744014" name="Birkenstein"/>
        <busStop id="1117011722" name="Hoppegarten (Mark)"/>
        <busStop id="1117011763" name="Neuenhagen"/>
        <busStop id="1117011659" name="Fredersdorf (bei Berlin)"/>
        <busStop id="1117011644" name="Petershagen Nord"/>
        <busStop id="1117011739" name="Strausberg"/>
        <busStop id="1117011661" name="Hegermühle"/>
        <busStop id="1117011687" name="Strausberg Stadt"/>
        <busStop id="1117011642" name="Strausberg Nord"/>
    </ptLine>
</ptLines>
