<?xml version="1.0" encoding="UTF-8"?>

<!-- generated on Mon Jan 28 08:43:55 2019 by Eclipse SUMO Version v1_0_1+0645-93703db
This data file and the accompanying materials
are made available under the terms of the Eclipse Public License v2.0
which accompanies this distribution, and is available at
http://www.eclipse.org/legal/epl-v20.html
SPDX-License-Identifier: EPL-2.0
<configuration xmlns:xsi="http://www.w3.org/2001/XMLSchema-instance" xsi:noNamespaceSchemaLocation="http://sumo.dlr.de/xsd/sumoConfiguration.xsd">

    <input>
        <net-file value="net.net.xml"/>
        <route-files value="input_routes.rou.xml"/>
    </input>

    <output>
        <write-license value="true"/>
        <fcd-output value="fcd.xml"/>
        <railsignal-block-output value="railsignal_blocks.xml"/>
    </output>

    <processing>
        <default.speeddev value="0"/>
    </processing>

    <report>
        <xml-validation value="never"/>
        <duration-log.disable value="true"/>
        <no-step-log value="true"/>
    </report>

</configuration>
-->

<railsignal-block-output>
    <railSignal id="B">
        <link linkIndex="0" from="beg_0" to=":B_0_0">
            <forwardBlock lanes=":B_0_0 middle_0"/>
            <bidiBlock lanes=""/>
            <backwardBlock lanes=""/>
            <conflictLanes lanes=":B_0_0 middle_0"/>
            <conflictLinks logicIndex=""/>
        </link>
    </railSignal>
    <railSignal id="C">
        <link linkIndex="0" from="middle_0" to=":C_0_0">
            <forwardBlock lanes=":C_0_0 end_0"/>
            <bidiBlock lanes=""/>
            <backwardBlock lanes=""/>
            <conflictLanes lanes=":C_0_0 end_0"/>
            <conflictLinks logicIndex=""/>
        </link>
    </railSignal>
</railsignal-block-output>
