<trips>
	<trip depart="0" from="beg" to="rend">
        <stop busStop="busStop#1" duration="10"/>
    </trip>
</trips>
