<?xml version="1.0"?>

<!-- generated on 01/28/09 10:27:26 by SUMO sumo Version dev-SVN-r6670
<configuration>

   <input>
      <net-file>net.net.xml</net-file>
      <additional-files>input_additional.add.xml,input_routes.rou.xml,input_additional2.add.xml</additional-files>
   </input>

   <time>
      <begin>0</begin>
      <end>1000</end>
   </time>

   <processing>
      <no-duration-log>true</no-duration-log>
      <no-step-log>true</no-step-log>
   </processing>

</configuration>
-->

<vehicle-type-probes>
    <timestep time="0" id="test1" vtype="DEFAULT_VEHTYPE">
        <vehicle id="0" lane="4/1to3/1_0" pos="190.00" x="1405.25" y="401.65" lat="" lon="" speed="10.00"/>
    </timestep>
    <timestep time="10" id="test1" vtype="DEFAULT_VEHTYPE">
        <vehicle id="0" lane="4/1to3/1_0" pos="290.00" x="1305.25" y="401.65" lat="" lon="" speed="10.00"/>
    </timestep>
    <timestep time="20" id="test1" vtype="DEFAULT_VEHTYPE">
        <vehicle id="0" lane="4/1to3/1_0" pos="390.00" x="1205.25" y="401.65" lat="" lon="" speed="10.00"/>
    </timestep>
    <timestep time="30" id="test1" vtype="DEFAULT_VEHTYPE">
        <vehicle id="0" lane="3/1to2/1_0" pos="99.50" x="1095.75" y="401.65" lat="" lon="" speed="10.00"/>
    </timestep>
    <timestep time="40" id="test1" vtype="DEFAULT_VEHTYPE">
        <vehicle id="0" lane="3/1to2/1_0" pos="199.50" x="995.75" y="401.65" lat="" lon="" speed="10.00"/>
    </timestep>
    <timestep time="50" id="test1" vtype="DEFAULT_VEHTYPE">
        <vehicle id="0" lane="3/1to2/1_0" pos="299.50" x="895.75" y="401.65" lat="" lon="" speed="10.00"/>
    </timestep>
    <timestep time="60" id="test1" vtype="DEFAULT_VEHTYPE">
        <vehicle id="0" lane="2/1to1/1_0" pos="9.00" x="786.25" y="401.65" lat="" lon="" speed="10.00"/>
    </timestep>
    <timestep time="70" id="test1" vtype="DEFAULT_VEHTYPE">
        <vehicle id="0" lane="2/1to1/1_0" pos="109.00" x="686.25" y="401.65" lat="" lon="" speed="10.00"/>
    </timestep>
    <timestep time="80" id="test1" vtype="DEFAULT_VEHTYPE">
        <vehicle id="0" lane="2/1to1/1_0" pos="209.00" x="586.25" y="401.65" lat="" lon="" speed="10.00"/>
    </timestep>
    <timestep time="90" id="test1" vtype="DEFAULT_VEHTYPE">
        <vehicle id="0" lane="2/1to1/1_0" pos="309.00" x="486.25" y="401.65" lat="" lon="" speed="10.00"/>
    </timestep>
    <timestep time="100" id="test1" vtype="DEFAULT_VEHTYPE">
    </timestep>
    <timestep time="110" id="test1" vtype="DEFAULT_VEHTYPE">
    </timestep>
    <timestep time="120" id="test1" vtype="DEFAULT_VEHTYPE">
    </timestep>
    <timestep time="130" id="test1" vtype="DEFAULT_VEHTYPE">
    </timestep>
    <timestep time="140" id="test1" vtype="DEFAULT_VEHTYPE">
    </timestep>
    <timestep time="150" id="test1" vtype="DEFAULT_VEHTYPE">
    </timestep>
    <timestep time="160" id="test1" vtype="DEFAULT_VEHTYPE">
    </timestep>
    <timestep time="170" id="test1" vtype="DEFAULT_VEHTYPE">
    </timestep>
    <timestep time="180" id="test1" vtype="DEFAULT_VEHTYPE">
    </timestep>
    <timestep time="190" id="test1" vtype="DEFAULT_VEHTYPE">
    </timestep>
    <timestep time="200" id="test1" vtype="DEFAULT_VEHTYPE">
    </timestep>
    <timestep time="210" id="test1" vtype="DEFAULT_VEHTYPE">
    </timestep>
    <timestep time="220" id="test1" vtype="DEFAULT_VEHTYPE">
    </timestep>
    <timestep time="230" id="test1" vtype="DEFAULT_VEHTYPE">
    </timestep>
    <timestep time="240" id="test1" vtype="DEFAULT_VEHTYPE">
    </timestep>
    <timestep time="250" id="test1" vtype="DEFAULT_VEHTYPE">
    </timestep>
    <timestep time="260" id="test1" vtype="DEFAULT_VEHTYPE">
    </timestep>
    <timestep time="270" id="test1" vtype="DEFAULT_VEHTYPE">
    </timestep>
    <timestep time="280" id="test1" vtype="DEFAULT_VEHTYPE">
    </timestep>
    <timestep time="290" id="test1" vtype="DEFAULT_VEHTYPE">
    </timestep>
    <timestep time="300" id="test1" vtype="DEFAULT_VEHTYPE">
    </timestep>
    <timestep time="310" id="test1" vtype="DEFAULT_VEHTYPE">
    </timestep>
    <timestep time="320" id="test1" vtype="DEFAULT_VEHTYPE">
    </timestep>
    <timestep time="330" id="test1" vtype="DEFAULT_VEHTYPE">
    </timestep>
    <timestep time="340" id="test1" vtype="DEFAULT_VEHTYPE">
    </timestep>
    <timestep time="350" id="test1" vtype="DEFAULT_VEHTYPE">
    </timestep>
    <timestep time="360" id="test1" vtype="DEFAULT_VEHTYPE">
    </timestep>
    <timestep time="370" id="test1" vtype="DEFAULT_VEHTYPE">
    </timestep>
    <timestep time="380" id="test1" vtype="DEFAULT_VEHTYPE">
    </timestep>
    <timestep time="390" id="test1" vtype="DEFAULT_VEHTYPE">
    </timestep>
    <timestep time="400" id="test1" vtype="DEFAULT_VEHTYPE">
    </timestep>
    <timestep time="410" id="test1" vtype="DEFAULT_VEHTYPE">
    </timestep>
    <timestep time="420" id="test1" vtype="DEFAULT_VEHTYPE">
    </timestep>
    <timestep time="430" id="test1" vtype="DEFAULT_VEHTYPE">
    </timestep>
    <timestep time="440" id="test1" vtype="DEFAULT_VEHTYPE">
    </timestep>
    <timestep time="450" id="test1" vtype="DEFAULT_VEHTYPE">
    </timestep>
    <timestep time="460" id="test1" vtype="DEFAULT_VEHTYPE">
    </timestep>
    <timestep time="470" id="test1" vtype="DEFAULT_VEHTYPE">
    </timestep>
    <timestep time="480" id="test1" vtype="DEFAULT_VEHTYPE">
    </timestep>
    <timestep time="490" id="test1" vtype="DEFAULT_VEHTYPE">
    </timestep>
    <timestep time="500" id="test1" vtype="DEFAULT_VEHTYPE">
    </timestep>
    <timestep time="510" id="test1" vtype="DEFAULT_VEHTYPE">
    </timestep>
    <timestep time="520" id="test1" vtype="DEFAULT_VEHTYPE">
    </timestep>
    <timestep time="530" id="test1" vtype="DEFAULT_VEHTYPE">
    </timestep>
    <timestep time="540" id="test1" vtype="DEFAULT_VEHTYPE">
    </timestep>
    <timestep time="550" id="test1" vtype="DEFAULT_VEHTYPE">
    </timestep>
    <timestep time="560" id="test1" vtype="DEFAULT_VEHTYPE">
    </timestep>
    <timestep time="570" id="test1" vtype="DEFAULT_VEHTYPE">
    </timestep>
    <timestep time="580" id="test1" vtype="DEFAULT_VEHTYPE">
    </timestep>
    <timestep time="590" id="test1" vtype="DEFAULT_VEHTYPE">
    </timestep>
    <timestep time="600" id="test1" vtype="DEFAULT_VEHTYPE">
    </timestep>
    <timestep time="610" id="test1" vtype="DEFAULT_VEHTYPE">
    </timestep>
    <timestep time="620" id="test1" vtype="DEFAULT_VEHTYPE">
    </timestep>
    <timestep time="630" id="test1" vtype="DEFAULT_VEHTYPE">
    </timestep>
    <timestep time="640" id="test1" vtype="DEFAULT_VEHTYPE">
    </timestep>
    <timestep time="650" id="test1" vtype="DEFAULT_VEHTYPE">
    </timestep>
    <timestep time="660" id="test1" vtype="DEFAULT_VEHTYPE">
    </timestep>
    <timestep time="670" id="test1" vtype="DEFAULT_VEHTYPE">
    </timestep>
    <timestep time="680" id="test1" vtype="DEFAULT_VEHTYPE">
    </timestep>
    <timestep time="690" id="test1" vtype="DEFAULT_VEHTYPE">
    </timestep>
    <timestep time="700" id="test1" vtype="DEFAULT_VEHTYPE">
    </timestep>
    <timestep time="710" id="test1" vtype="DEFAULT_VEHTYPE">
    </timestep>
    <timestep time="720" id="test1" vtype="DEFAULT_VEHTYPE">
    </timestep>
    <timestep time="730" id="test1" vtype="DEFAULT_VEHTYPE">
    </timestep>
    <timestep time="740" id="test1" vtype="DEFAULT_VEHTYPE">
    </timestep>
    <timestep time="750" id="test1" vtype="DEFAULT_VEHTYPE">
    </timestep>
    <timestep time="760" id="test1" vtype="DEFAULT_VEHTYPE">
    </timestep>
    <timestep time="770" id="test1" vtype="DEFAULT_VEHTYPE">
    </timestep>
    <timestep time="780" id="test1" vtype="DEFAULT_VEHTYPE">
    </timestep>
    <timestep time="790" id="test1" vtype="DEFAULT_VEHTYPE">
    </timestep>
    <timestep time="800" id="test1" vtype="DEFAULT_VEHTYPE">
    </timestep>
    <timestep time="810" id="test1" vtype="DEFAULT_VEHTYPE">
    </timestep>
    <timestep time="820" id="test1" vtype="DEFAULT_VEHTYPE">
    </timestep>
    <timestep time="830" id="test1" vtype="DEFAULT_VEHTYPE">
    </timestep>
    <timestep time="840" id="test1" vtype="DEFAULT_VEHTYPE">
    </timestep>
    <timestep time="850" id="test1" vtype="DEFAULT_VEHTYPE">
    </timestep>
    <timestep time="860" id="test1" vtype="DEFAULT_VEHTYPE">
    </timestep>
    <timestep time="870" id="test1" vtype="DEFAULT_VEHTYPE">
    </timestep>
    <timestep time="880" id="test1" vtype="DEFAULT_VEHTYPE">
    </timestep>
    <timestep time="890" id="test1" vtype="DEFAULT_VEHTYPE">
    </timestep>
    <timestep time="900" id="test1" vtype="DEFAULT_VEHTYPE">
    </timestep>
    <timestep time="910" id="test1" vtype="DEFAULT_VEHTYPE">
    </timestep>
    <timestep time="920" id="test1" vtype="DEFAULT_VEHTYPE">
    </timestep>
    <timestep time="930" id="test1" vtype="DEFAULT_VEHTYPE">
    </timestep>
    <timestep time="940" id="test1" vtype="DEFAULT_VEHTYPE">
    </timestep>
    <timestep time="950" id="test1" vtype="DEFAULT_VEHTYPE">
    </timestep>
    <timestep time="960" id="test1" vtype="DEFAULT_VEHTYPE">
    </timestep>
    <timestep time="970" id="test1" vtype="DEFAULT_VEHTYPE">
    </timestep>
    <timestep time="980" id="test1" vtype="DEFAULT_VEHTYPE">
    </timestep>
    <timestep time="990" id="test1" vtype="DEFAULT_VEHTYPE">
    </timestep>
</vehicle-type-probes>
