<?xml version="1.0" encoding="UTF-8"?>

<!-- generated on 03.08.2018 15:58:03 by Eclipse SUMO netedit Version 7115a4b324
<configuration xmlns:xsi="http://www.w3.org/2001/XMLSchema-instance" xsi:noNamespaceSchemaLocation="http://sumo.dlr.de/xsd/netconvertConfiguration.xsd">

    <input>
        <sumo-net-file value="C:/Users/SUMO-Test/.texttest/tmp/netedit.gui.03Aug155723.2792/netedit.gui/additionalElements/detexit/create\input_net.net.xml"/>
    </input>

    <output>
        <additionals-output value="C:/Users/SUMO-Test/.texttest/tmp/netedit.gui.03Aug155723.2792/netedit.gui/additionalElements/detexit/create\additionals.xml"/>
        <shapes-output value="C:/Users/SUMO-Test/.texttest/tmp/netedit.gui.03Aug155723.2792/netedit.gui/additionalElements/detexit/create\shapes.xml"/>
        <output-file value="C:/Users/SUMO-Test/.texttest/tmp/netedit.gui.03Aug155723.2792/netedit.gui/additionalElements/detexit/create\net.net.xml"/>
    </output>

    <processing>
        <no-turnarounds value="true"/>
        <offset.disable-normalization value="true"/>
        <lefthand value="false"/>
        <junctions.corner-detail value="5"/>
        <rectangular-lane-cut value="false"/>
        <walkingareas value="false"/>
    </processing>

    <visualisation>
        <gui-settings-file value="C:/Users/SUMO-Test/.texttest/tmp/netedit.gui.03Aug155723.2792/netedit.gui/additionalElements/detexit/create\gui-settings.xml"/>
        <window-size value="700,500"/>
        <window-pos value="50,50"/>
        <gui-testing value="true"/>
        <gui-testing-debug value="true"/>
    </visualisation>

    <report>
        <no-warnings value="true"/>
        <error-log value="C:/Users/SUMO-Test/.texttest/tmp/netedit.gui.03Aug155723.2792/netedit.gui/additionalElements/detexit/create\log.txt"/>
    </report>

</configuration>
-->

<additional xmlns:xsi="http://www.w3.org/2001/XMLSchema-instance" xsi:noNamespaceSchemaLocation="http://sumo.dlr.de/xsd/additional_file.xsd">
    <e3Detector id="e3Detector_0" pos="23.00,6.00" freq="900.00" file="e3Detector_0.xml">
        <detEntry lane="gneE1_0" pos="24.00"/>
        <detExit lane="gneE1_0" pos="35.00"/>
        <detExit lane="gneE1_0" pos="29.00"/>
        <detExit lane="gneE1_0" pos="19.00"/>
    </e3Detector>
</additional>
