<routes>
	<flow id="f1" begin="1" period="0" end="10" route="1"/>
</routes>
