<?xml version="1.0" encoding="UTF-8"?>

<!-- generated on 12/2/2019 10:19:13 AM by Eclipse SUMO netedit Version v1_3_1+1210-09aa4b64c6
<configuration xmlns:xsi="http://www.w3.org/2001/XMLSchema-instance" xsi:noNamespaceSchemaLocation="http://sumo.dlr.de/xsd/netconvertConfiguration.xsd">

    <input>
        <sumo-net-file value="C:\Users\SUMO-Test\.texttest\tmp\netedit.gui.1_from_21Nov091329.2268\netedit.gui\demandElements\stop\stopParkingArea\inspect\parking\input_net.net.xml"/>
    </input>

    <output>
        <output-file value="C:\Users\SUMO-Test\.texttest\tmp\netedit.gui.1_from_21Nov091329.2268\netedit.gui\demandElements\stop\stopParkingArea\inspect\parking\net.net.xml"/>
    </output>

    <processing>
        <geometry.max-grade.fix value="false"/>
        <offset.disable-normalization value="true"/>
        <lefthand value="false"/>
    </processing>

    <junctions>
        <no-turnarounds value="true"/>
        <junctions.corner-detail value="5"/>
        <junctions.limit-turn-speed value="5.5"/>
        <rectangular-lane-cut value="false"/>
    </junctions>

    <pedestrian>
        <walkingareas value="false"/>
    </pedestrian>

    <netedit>
        <additional-files value="C:\Users\SUMO-Test\.texttest\tmp\netedit.gui.1_from_21Nov091329.2268\netedit.gui\demandElements\stop\stopParkingArea\inspect\parking\additionals.xml"/>
        <additionals-output value="C:\Users\SUMO-Test\.texttest\tmp\netedit.gui.1_from_21Nov091329.2268\netedit.gui\demandElements\stop\stopParkingArea\inspect\parking\additionals.xml"/>
        <route-files value="C:\Users\SUMO-Test\.texttest\tmp\netedit.gui.1_from_21Nov091329.2268\netedit.gui\demandElements\stop\stopParkingArea\inspect\parking\routes.xml"/>
        <demandelements-output value="C:\Users\SUMO-Test\.texttest\tmp\netedit.gui.1_from_21Nov091329.2268\netedit.gui\demandElements\stop\stopParkingArea\inspect\parking\routes.xml"/>
    </netedit>

    <visualisation>
        <gui-settings-file value="C:\Users\SUMO-Test\.texttest\tmp\netedit.gui.1_from_21Nov091329.2268\netedit.gui\demandElements\stop\stopParkingArea\inspect\parking\gui-settings.xml"/>
        <window-size value="700,500"/>
        <window-pos value="50,50"/>
        <gui-testing value="true"/>
        <gui-testing-debug value="true"/>
        <gui-testing-debug-gl value="true"/>
        <gui-testing.setting-output value="C:\Users\SUMO-Test\.texttest\tmp\netedit.gui.1_from_21Nov091329.2268\netedit.gui\demandElements\stop\stopParkingArea\inspect\parking\guisettingsoutput.xml"/>
    </visualisation>

    <report>
        <no-warnings value="true"/>
        <error-log value="C:\Users\SUMO-Test\.texttest\tmp\netedit.gui.1_from_21Nov091329.2268\netedit.gui\demandElements\stop\stopParkingArea\inspect\parking\log.txt"/>
    </report>

</configuration>
-->

<routes xmlns:xsi="http://www.w3.org/2001/XMLSchema-instance" xsi:noNamespaceSchemaLocation="http://sumo.dlr.de/xsd/routes_file.xsd">
    <vehicle id="vehicle_0" depart="0.00">
        <route edges="gneE0 gneE1" color="yellow"/>
        <stop parkingArea="parkingAreaB" duration="60.00" actType=" i"/>
    </vehicle>
</routes>
