<?xml version="1.0" encoding="UTF-8"?>

<!-- generated on 2022-11-04 13:29:30 by Eclipse SUMO netedit Version v1_14_1+2222-c0b312538fe
<configuration xmlns:xsi="http://www.w3.org/2001/XMLSchema-instance" xsi:noNamespaceSchemaLocation="http://sumo.dlr.de/xsd/netconvertConfiguration.xsd">

    <input>
        <sumo-net-file value="C:\Users\SUMO-Test\.texttest\tmp\netedit.gui.04Nov131707.8872\netedit.gui\netelements\trafficlights\joined\phases\actuated\buttons\add\duplicate\input_net.net.xml"/>
    </input>

    <output>
        <output-file value="C:\Users\SUMO-Test\.texttest\tmp\netedit.gui.04Nov131707.8872\netedit.gui\netelements\trafficlights\joined\phases\actuated\buttons\add\duplicate\net.net.xml"/>
    </output>

    <processing>
        <geometry.min-radius.fix.railways value="false"/>
        <geometry.max-grade.fix value="false"/>
        <offset.disable-normalization value="true"/>
        <lefthand value="0"/>
    </processing>

    <junctions>
        <no-turnarounds value="true"/>
        <junctions.corner-detail value="5"/>
        <junctions.limit-turn-speed value="5.50"/>
        <rectangular-lane-cut value="0"/>
    </junctions>

    <pedestrian>
        <walkingareas value="0"/>
    </pedestrian>

    <netedit>
        <additional-files value="C:\Users\SUMO-Test\.texttest\tmp\netedit.gui.04Nov131707.8872\netedit.gui\netelements\trafficlights\joined\phases\actuated\buttons\add\duplicate\additionals.xml"/>
        <additionals-output value="C:\Users\SUMO-Test\.texttest\tmp\netedit.gui.04Nov131707.8872\netedit.gui\netelements\trafficlights\joined\phases\actuated\buttons\add\duplicate\additionals.xml"/>
        <route-files value="C:\Users\SUMO-Test\.texttest\tmp\netedit.gui.04Nov131707.8872\netedit.gui\netelements\trafficlights\joined\phases\actuated\buttons\add\duplicate\routes.xml"/>
        <demandelements-output value="C:\Users\SUMO-Test\.texttest\tmp\netedit.gui.04Nov131707.8872\netedit.gui\netelements\trafficlights\joined\phases\actuated\buttons\add\duplicate\routes.xml"/>
        <data-files value="C:\Users\SUMO-Test\.texttest\tmp\netedit.gui.04Nov131707.8872\netedit.gui\netelements\trafficlights\joined\phases\actuated\buttons\add\duplicate\datas.xml"/>
        <dataelements-output value="C:\Users\SUMO-Test\.texttest\tmp\netedit.gui.04Nov131707.8872\netedit.gui\netelements\trafficlights\joined\phases\actuated\buttons\add\duplicate\datas.xml"/>
    </netedit>

    <visualisation>
        <window-size value="936, 697"/>
        <window-pos value="50,50"/>
        <gui-testing value="true"/>
        <gui-testing-debug value="true"/>
        <gui-testing.setting-output value="C:\Users\SUMO-Test\.texttest\tmp\netedit.gui.04Nov131707.8872\netedit.gui\netelements\trafficlights\joined\phases\actuated\buttons\add\duplicate\guisettingsoutput.xml"/>
    </visualisation>

    <report>
        <no-warnings value="true"/>
        <error-log value="C:\Users\SUMO-Test\.texttest\tmp\netedit.gui.04Nov131707.8872\netedit.gui\netelements\trafficlights\joined\phases\actuated\buttons\add\duplicate\log.txt"/>
    </report>

</configuration>
-->

<net version="1.16" junctionCornerDetail="5" limitTurnSpeed="5.50" xmlns:xsi="http://www.w3.org/2001/XMLSchema-instance" xsi:noNamespaceSchemaLocation="http://sumo.dlr.de/xsd/net_file.xsd">

    <location netOffset="30.00,-20.00" convBoundary="0.00,0.00,60.00,60.00" origBoundary="-10000000000.00,-10000000000.00,10000000000.00,10000000000.00" projParameter="!"/>

    <edge id=":J0_0" function="internal">
        <lane id=":J0_0_0" index="0" disallow="pedestrian" speed="6.86" length="10.16" shape="25.20,41.10 24.81,38.34 23.62,36.38 21.66,35.19 18.90,34.80"/>
        <lane id=":J0_0_1" index="1" disallow="pedestrian" speed="8.29" length="15.32" shape="28.40,41.10 27.81,36.94 26.02,33.98 23.06,32.19 18.90,31.60"/>
    </edge>
    <edge id=":J0_2" function="internal">
        <lane id=":J0_2_0" index="0" disallow="pedestrian" speed="13.89" length="22.20" shape="28.40,41.10 28.40,18.90"/>
    </edge>
    <edge id=":J0_3" function="internal">
        <lane id=":J0_3_0" index="0" disallow="pedestrian" speed="9.51" length="15.55" shape="28.40,41.10 29.19,35.54 31.57,31.58 35.54,29.19 36.22,29.10"/>
    </edge>
    <edge id=":J0_16" function="internal">
        <lane id=":J0_16_0" index="0" disallow="pedestrian" speed="9.51" length="4.93" shape="36.22,29.10 41.10,28.40"/>
    </edge>
    <edge id=":J0_4" function="internal">
        <lane id=":J0_4_0" index="0" disallow="pedestrian" speed="6.86" length="10.16" shape="41.10,34.80 38.34,35.19 36.38,36.38 35.19,38.34 34.80,41.10"/>
        <lane id=":J0_4_1" index="1" disallow="pedestrian" speed="8.29" length="15.32" shape="41.10,31.60 36.94,32.19 33.98,33.98 32.19,36.94 31.60,41.10"/>
    </edge>
    <edge id=":J0_6" function="internal">
        <lane id=":J0_6_0" index="0" disallow="pedestrian" speed="13.89" length="22.20" shape="41.10,31.60 18.90,31.60"/>
    </edge>
    <edge id=":J0_7" function="internal">
        <lane id=":J0_7_0" index="0" disallow="pedestrian" speed="9.51" length="15.55" shape="41.10,31.60 35.54,30.81 31.58,28.43 29.19,24.46 29.10,23.78"/>
    </edge>
    <edge id=":J0_17" function="internal">
        <lane id=":J0_17_0" index="0" disallow="pedestrian" speed="9.51" length="4.93" shape="29.10,23.78 28.40,18.90"/>
    </edge>
    <edge id=":J0_8" function="internal">
        <lane id=":J0_8_0" index="0" disallow="pedestrian" speed="6.86" length="10.16" shape="34.80,18.90 35.19,21.66 36.38,23.63 38.34,24.81 41.10,25.20"/>
        <lane id=":J0_8_1" index="1" disallow="pedestrian" speed="8.29" length="15.32" shape="31.60,18.90 32.19,23.06 33.98,26.02 36.94,27.81 41.10,28.40"/>
    </edge>
    <edge id=":J0_10" function="internal">
        <lane id=":J0_10_0" index="0" disallow="pedestrian" speed="13.89" length="22.20" shape="31.60,18.90 31.60,41.10"/>
    </edge>
    <edge id=":J0_11" function="internal">
        <lane id=":J0_11_0" index="0" disallow="pedestrian" speed="9.51" length="15.55" shape="31.60,18.90 30.81,24.46 28.43,28.42 24.46,30.81 23.78,30.90"/>
    </edge>
    <edge id=":J0_18" function="internal">
        <lane id=":J0_18_0" index="0" disallow="pedestrian" speed="9.51" length="4.93" shape="23.78,30.90 18.90,31.60"/>
    </edge>
    <edge id=":J0_12" function="internal">
        <lane id=":J0_12_0" index="0" disallow="pedestrian" speed="6.86" length="10.16" shape="18.90,25.20 21.66,24.81 23.63,23.62 24.81,21.66 25.20,18.90"/>
        <lane id=":J0_12_1" index="1" disallow="pedestrian" speed="8.29" length="15.32" shape="18.90,28.40 23.06,27.81 26.02,26.02 27.81,23.06 28.40,18.90"/>
    </edge>
    <edge id=":J0_14" function="internal">
        <lane id=":J0_14_0" index="0" disallow="pedestrian" speed="13.89" length="22.20" shape="18.90,28.40 41.10,28.40"/>
    </edge>
    <edge id=":J0_15" function="internal">
        <lane id=":J0_15_0" index="0" disallow="pedestrian" speed="9.51" length="15.55" shape="18.90,28.40 24.46,29.19 28.42,31.57 30.81,35.54 30.90,36.22"/>
    </edge>
    <edge id=":J0_19" function="internal">
        <lane id=":J0_19_0" index="0" disallow="pedestrian" speed="9.51" length="4.93" shape="30.90,36.22 31.60,41.10"/>
    </edge>
    <edge id=":J1_0" function="internal">
        <lane id=":J1_0_0" index="0" disallow="pedestrian" speed="5.58" length="9.35" shape="0.00,34.80 -3.60,32.40 -4.80,30.00 -3.60,27.60 0.00,25.20"/>
        <lane id=":J1_0_1" index="1" disallow="pedestrian" speed="3.65" length="9.35" shape="0.00,31.60 -1.20,30.80 -1.60,30.00 -1.20,29.20 0.00,28.40"/>
    </edge>
    <edge id=":J2_0" function="internal">
        <lane id=":J2_0_0" index="0" disallow="pedestrian" speed="5.58" length="9.35" shape="60.00,25.20 63.60,27.60 64.80,30.00 63.60,32.40 60.00,34.80"/>
        <lane id=":J2_0_1" index="1" disallow="pedestrian" speed="3.65" length="9.35" shape="60.00,28.40 61.20,29.20 61.60,30.00 61.20,30.80 60.00,31.60"/>
    </edge>
    <edge id=":J3_0" function="internal">
        <lane id=":J3_0_0" index="0" disallow="pedestrian" speed="5.58" length="9.35" shape="34.80,60.00 32.40,63.60 30.00,64.80 27.60,63.60 25.20,60.00"/>
        <lane id=":J3_0_1" index="1" disallow="pedestrian" speed="3.65" length="9.35" shape="31.60,60.00 30.80,61.20 30.00,61.60 29.20,61.20 28.40,60.00"/>
    </edge>
    <edge id=":J4_0" function="internal">
        <lane id=":J4_0_0" index="0" disallow="pedestrian" speed="5.58" length="9.35" shape="25.20,0.00 27.60,-3.60 30.00,-4.80 32.40,-3.60 34.80,0.00"/>
        <lane id=":J4_0_1" index="1" disallow="pedestrian" speed="3.65" length="9.35" shape="28.40,0.00 29.20,-1.20 30.00,-1.60 30.80,-1.20 31.60,0.00"/>
    </edge>

    <edge id="-E0" from="J1" to="J0" priority="-1">
        <lane id="-E0_0" index="0" allow="pedestrian" speed="13.89" length="18.90" shape="0.00,22.00 18.90,22.00"/>
        <lane id="-E0_1" index="1" disallow="pedestrian" speed="13.89" length="18.90" shape="0.00,25.20 18.90,25.20"/>
        <lane id="-E0_2" index="2" disallow="pedestrian" speed="13.89" length="18.90" shape="0.00,28.40 18.90,28.40"/>
    </edge>
    <edge id="-E1" from="J2" to="J0" priority="-1">
        <lane id="-E1_0" index="0" allow="pedestrian" speed="13.89" length="18.90" shape="60.00,38.00 41.10,38.00"/>
        <lane id="-E1_1" index="1" disallow="pedestrian" speed="13.89" length="18.90" shape="60.00,34.80 41.10,34.80"/>
        <lane id="-E1_2" index="2" disallow="pedestrian" speed="13.89" length="18.90" shape="60.00,31.60 41.10,31.60"/>
    </edge>
    <edge id="-E2" from="J3" to="J0" priority="-1">
        <lane id="-E2_0" index="0" allow="pedestrian" speed="13.89" length="18.90" shape="22.00,60.00 22.00,41.10"/>
        <lane id="-E2_1" index="1" disallow="pedestrian" speed="13.89" length="18.90" shape="25.20,60.00 25.20,41.10"/>
        <lane id="-E2_2" index="2" disallow="pedestrian" speed="13.89" length="18.90" shape="28.40,60.00 28.40,41.10"/>
    </edge>
    <edge id="-E3" from="J4" to="J0" priority="-1">
        <lane id="-E3_0" index="0" allow="pedestrian" speed="13.89" length="18.90" shape="38.00,0.00 38.00,18.90"/>
        <lane id="-E3_1" index="1" disallow="pedestrian" speed="13.89" length="18.90" shape="34.80,0.00 34.80,18.90"/>
        <lane id="-E3_2" index="2" disallow="pedestrian" speed="13.89" length="18.90" shape="31.60,0.00 31.60,18.90"/>
    </edge>
    <edge id="E0" from="J0" to="J1" priority="-1">
        <lane id="E0_0" index="0" allow="pedestrian" speed="13.89" length="18.90" shape="18.90,38.00 0.00,38.00"/>
        <lane id="E0_1" index="1" disallow="pedestrian" speed="13.89" length="18.90" shape="18.90,34.80 0.00,34.80"/>
        <lane id="E0_2" index="2" disallow="pedestrian" speed="13.89" length="18.90" shape="18.90,31.60 0.00,31.60"/>
    </edge>
    <edge id="E1" from="J0" to="J2" priority="-1">
        <lane id="E1_0" index="0" allow="pedestrian" speed="13.89" length="18.90" shape="41.10,22.00 60.00,22.00"/>
        <lane id="E1_1" index="1" disallow="pedestrian" speed="13.89" length="18.90" shape="41.10,25.20 60.00,25.20"/>
        <lane id="E1_2" index="2" disallow="pedestrian" speed="13.89" length="18.90" shape="41.10,28.40 60.00,28.40"/>
    </edge>
    <edge id="E2" from="J0" to="J3" priority="-1">
        <lane id="E2_0" index="0" allow="pedestrian" speed="13.89" length="18.90" shape="38.00,41.10 38.00,60.00"/>
        <lane id="E2_1" index="1" disallow="pedestrian" speed="13.89" length="18.90" shape="34.80,41.10 34.80,60.00"/>
        <lane id="E2_2" index="2" disallow="pedestrian" speed="13.89" length="18.90" shape="31.60,41.10 31.60,60.00"/>
    </edge>
    <edge id="E3" from="J0" to="J4" priority="-1">
        <lane id="E3_0" index="0" allow="pedestrian" speed="13.89" length="18.90" shape="22.00,18.90 22.00,0.00"/>
        <lane id="E3_1" index="1" disallow="pedestrian" speed="13.89" length="18.90" shape="25.20,18.90 25.20,0.00"/>
        <lane id="E3_2" index="2" disallow="pedestrian" speed="13.89" length="18.90" shape="28.40,18.90 28.40,0.00"/>
    </edge>

    <tlLogic id="J0" type="actuated" programID="0" offset="0">
        <phase duration="31" state="rgrgrgrgrgrgrgrgrgrgrgrg"/>
        <phase duration="6"  state="grgrgrgrgrgrgrgrgrgrgrgr"/>
    </tlLogic>

    <junction id="J0" type="traffic_light" x="30.00" y="30.00" incLanes="-E2_0 -E2_1 -E2_2 -E1_0 -E1_1 -E1_2 -E3_0 -E3_1 -E3_2 -E0_0 -E0_1 -E0_2" intLanes=":J0_0_0 :J0_0_1 :J0_2_0 :J0_16_0 :J0_4_0 :J0_4_1 :J0_6_0 :J0_17_0 :J0_8_0 :J0_8_1 :J0_10_0 :J0_18_0 :J0_12_0 :J0_12_1 :J0_14_0 :J0_19_0" shape="20.40,41.10 39.60,41.10 39.77,40.27 39.98,39.98 40.27,39.77 40.64,39.64 41.10,39.60 41.10,20.40 40.27,20.23 39.98,20.02 39.77,19.73 39.64,19.36 39.60,18.90 20.40,18.90 20.23,19.73 20.02,20.02 19.73,20.23 19.36,20.36 18.90,20.40 18.90,39.60 19.73,39.77 20.02,39.98 20.23,40.27 20.36,40.64">
        <request index="0"  response="0000000000000000" foes="0000100001000000" cont="0"/>
        <request index="1"  response="0000000000000000" foes="0000100001000000" cont="0"/>
        <request index="2"  response="1000100010000000" foes="1111100011000000" cont="0"/>
        <request index="3"  response="1000011110000000" foes="1100011111000000" cont="1"/>
        <request index="4"  response="0000010000000000" foes="1000010000000000" cont="0"/>
        <request index="5"  response="0000010000000000" foes="1000010000000000" cont="0"/>
        <request index="6"  response="1000110000001111" foes="1000110000001111" cont="0"/>
        <request index="7"  response="0111110000001100" foes="0111110000001100" cont="1"/>
        <request index="8"  response="0000000000000000" foes="0100000000001000" cont="0"/>
        <request index="9"  response="0000000000000000" foes="0100000000001000" cont="0"/>
        <request index="10" response="1000000010001000" foes="1100000011111000" cont="0"/>
        <request index="11" response="1000000010000111" foes="1100000011000111" cont="1"/>
        <request index="12" response="0000000000000100" foes="0000000010000100" cont="0"/>
        <request index="13" response="0000000000000100" foes="0000000010000100" cont="0"/>
        <request index="14" response="0000111110001100" foes="0000111110001100" cont="0"/>
        <request index="15" response="0000110001111100" foes="0000110001111100" cont="1"/>
    </junction>
    <junction id="J1" type="traffic_light" x="0.00" y="30.00" incLanes="E0_0 E0_1 E0_2" intLanes=":J1_0_0 :J1_0_1" shape="0.00,30.00 0.00,39.60 0.00,30.00">
        <request index="0" response="00" foes="00" cont="0"/>
        <request index="1" response="00" foes="00" cont="0"/>
    </junction>
    <junction id="J2" type="traffic_light" x="60.00" y="30.00" incLanes="E1_0 E1_1 E1_2" intLanes=":J2_0_0 :J2_0_1" shape="60.00,30.00 60.00,20.40 60.00,30.00">
        <request index="0" response="00" foes="00" cont="0"/>
        <request index="1" response="00" foes="00" cont="0"/>
    </junction>
    <junction id="J3" type="traffic_light" x="30.00" y="60.00" incLanes="E2_0 E2_1 E2_2" intLanes=":J3_0_0 :J3_0_1" shape="30.00,60.00 39.60,60.00 30.00,60.00">
        <request index="0" response="00" foes="00" cont="0"/>
        <request index="1" response="00" foes="00" cont="0"/>
    </junction>
    <junction id="J4" type="traffic_light" x="30.00" y="0.00" incLanes="E3_0 E3_1 E3_2" intLanes=":J4_0_0 :J4_0_1" shape="30.00,0.00 20.40,0.00 30.00,0.00">
        <request index="0" response="00" foes="00" cont="0"/>
        <request index="1" response="00" foes="00" cont="0"/>
    </junction>

    <junction id=":J0_16_0" type="internal" x="36.22" y="29.10" incLanes=":J0_3_0 -E3_1 -E3_2" intLanes=":J0_6_0 :J0_7_0 :J0_8_0 :J0_8_1 :J0_10_0 :J0_14_0 :J0_15_0"/>
    <junction id=":J0_17_0" type="internal" x="29.10" y="23.78" incLanes=":J0_7_0 -E0_1 -E0_2" intLanes=":J0_2_0 :J0_3_0 :J0_10_0 :J0_11_0 :J0_12_0 :J0_12_1 :J0_14_0"/>
    <junction id=":J0_18_0" type="internal" x="23.78" y="30.90" incLanes=":J0_11_0 -E2_1 -E2_2" intLanes=":J0_0_0 :J0_0_1 :J0_2_0 :J0_6_0 :J0_7_0 :J0_14_0 :J0_15_0"/>
    <junction id=":J0_19_0" type="internal" x="30.90" y="36.22" incLanes=":J0_15_0 -E1_1 -E1_2" intLanes=":J0_2_0 :J0_3_0 :J0_4_0 :J0_4_1 :J0_6_0 :J0_10_0 :J0_11_0"/>

    <connection from="-E0" to="E3" fromLane="1" toLane="1" via=":J0_12_0" tl="J0" linkIndex="12" dir="r" state="o"/>
    <connection from="-E0" to="E3" fromLane="2" toLane="2" via=":J0_12_1" tl="J0" linkIndex="13" dir="r" state="o"/>
    <connection from="-E0" to="E1" fromLane="2" toLane="2" via=":J0_14_0" tl="J0" linkIndex="14" dir="s" state="o"/>
    <connection from="-E0" to="E2" fromLane="2" toLane="2" via=":J0_15_0" tl="J0" linkIndex="15" dir="l" state="o"/>
    <connection from="-E1" to="E2" fromLane="1" toLane="1" via=":J0_4_0" tl="J0" linkIndex="4" dir="r" state="o"/>
    <connection from="-E1" to="E2" fromLane="2" toLane="2" via=":J0_4_1" tl="J0" linkIndex="5" dir="r" state="o"/>
    <connection from="-E1" to="E0" fromLane="2" toLane="2" via=":J0_6_0" tl="J0" linkIndex="6" dir="s" state="o"/>
    <connection from="-E1" to="E3" fromLane="2" toLane="2" via=":J0_7_0" tl="J0" linkIndex="7" dir="l" state="o"/>
    <connection from="-E2" to="E0" fromLane="1" toLane="1" via=":J0_0_0" tl="J0" linkIndex="0" dir="r" state="O"/>
    <connection from="-E2" to="E0" fromLane="2" toLane="2" via=":J0_0_1" tl="J0" linkIndex="1" dir="r" state="O"/>
    <connection from="-E2" to="E3" fromLane="2" toLane="2" via=":J0_2_0" tl="J0" linkIndex="2" dir="s" state="O"/>
    <connection from="-E2" to="E1" fromLane="2" toLane="2" via=":J0_3_0" tl="J0" linkIndex="3" dir="l" state="o"/>
    <connection from="-E3" to="E1" fromLane="1" toLane="1" via=":J0_8_0" tl="J0" linkIndex="8" dir="r" state="O"/>
    <connection from="-E3" to="E1" fromLane="2" toLane="2" via=":J0_8_1" tl="J0" linkIndex="9" dir="r" state="O"/>
    <connection from="-E3" to="E2" fromLane="2" toLane="2" via=":J0_10_0" tl="J0" linkIndex="10" dir="s" state="O"/>
    <connection from="-E3" to="E0" fromLane="2" toLane="2" via=":J0_11_0" tl="J0" linkIndex="11" dir="l" state="o"/>
    <connection from="E0" to="-E0" fromLane="1" toLane="1" via=":J1_0_0" tl="J0" linkIndex="16" dir="t" state="O"/>
    <connection from="E0" to="-E0" fromLane="2" toLane="2" via=":J1_0_1" tl="J0" linkIndex="17" dir="t" state="O"/>
    <connection from="E1" to="-E1" fromLane="1" toLane="1" via=":J2_0_0" tl="J0" linkIndex="18" dir="t" state="O"/>
    <connection from="E1" to="-E1" fromLane="2" toLane="2" via=":J2_0_1" tl="J0" linkIndex="19" dir="t" state="O"/>
    <connection from="E2" to="-E2" fromLane="1" toLane="1" via=":J3_0_0" tl="J0" linkIndex="20" dir="t" state="O"/>
    <connection from="E2" to="-E2" fromLane="2" toLane="2" via=":J3_0_1" tl="J0" linkIndex="21" dir="t" state="O"/>
    <connection from="E3" to="-E3" fromLane="1" toLane="1" via=":J4_0_0" tl="J0" linkIndex="22" dir="t" state="O"/>
    <connection from="E3" to="-E3" fromLane="2" toLane="2" via=":J4_0_1" tl="J0" linkIndex="23" dir="t" state="O"/>

    <connection from=":J0_0" to="E0" fromLane="0" toLane="1" dir="r" state="M"/>
    <connection from=":J0_0" to="E0" fromLane="1" toLane="2" dir="r" state="M"/>
    <connection from=":J0_2" to="E3" fromLane="0" toLane="2" dir="s" state="M"/>
    <connection from=":J0_3" to="E1" fromLane="0" toLane="2" via=":J0_16_0" dir="l" state="m"/>
    <connection from=":J0_16" to="E1" fromLane="0" toLane="2" dir="l" state="M"/>
    <connection from=":J0_4" to="E2" fromLane="0" toLane="1" dir="r" state="M"/>
    <connection from=":J0_4" to="E2" fromLane="1" toLane="2" dir="r" state="M"/>
    <connection from=":J0_6" to="E0" fromLane="0" toLane="2" dir="s" state="M"/>
    <connection from=":J0_7" to="E3" fromLane="0" toLane="2" via=":J0_17_0" dir="l" state="m"/>
    <connection from=":J0_17" to="E3" fromLane="0" toLane="2" dir="l" state="M"/>
    <connection from=":J0_8" to="E1" fromLane="0" toLane="1" dir="r" state="M"/>
    <connection from=":J0_8" to="E1" fromLane="1" toLane="2" dir="r" state="M"/>
    <connection from=":J0_10" to="E2" fromLane="0" toLane="2" dir="s" state="M"/>
    <connection from=":J0_11" to="E0" fromLane="0" toLane="2" via=":J0_18_0" dir="l" state="m"/>
    <connection from=":J0_18" to="E0" fromLane="0" toLane="2" dir="l" state="M"/>
    <connection from=":J0_12" to="E3" fromLane="0" toLane="1" dir="r" state="M"/>
    <connection from=":J0_12" to="E3" fromLane="1" toLane="2" dir="r" state="M"/>
    <connection from=":J0_14" to="E1" fromLane="0" toLane="2" dir="s" state="M"/>
    <connection from=":J0_15" to="E2" fromLane="0" toLane="2" via=":J0_19_0" dir="l" state="m"/>
    <connection from=":J0_19" to="E2" fromLane="0" toLane="2" dir="l" state="M"/>
    <connection from=":J1_0" to="-E0" fromLane="0" toLane="1" dir="t" state="M"/>
    <connection from=":J1_0" to="-E0" fromLane="1" toLane="2" dir="t" state="M"/>
    <connection from=":J2_0" to="-E1" fromLane="0" toLane="1" dir="t" state="M"/>
    <connection from=":J2_0" to="-E1" fromLane="1" toLane="2" dir="t" state="M"/>
    <connection from=":J3_0" to="-E2" fromLane="0" toLane="1" dir="t" state="M"/>
    <connection from=":J3_0" to="-E2" fromLane="1" toLane="2" dir="t" state="M"/>
    <connection from=":J4_0" to="-E3" fromLane="0" toLane="1" dir="t" state="M"/>
    <connection from=":J4_0" to="-E3" fromLane="1" toLane="2" dir="t" state="M"/>

</net>
