<?xml version="1.0" encoding="UTF-8"?>

<!-- generated on Mon 10 Jun 2013 12:29:35 PM CEST by Netedit Version dev-SVN-r13777
<?xml version="1.0" encoding="UTF-8"?>

<configuration xmlns:xsi="http://www.w3.org/2001/XMLSchema-instance" xsi:noNamespaceSchemaLocation="http://sumo-sim.org/xsd/netedit.exeConfiguration.xsd">

    <output>
        <output-file value="net.net.xml"/>
        <plain-output-prefix value="/scr1/erdm_ja/debug/ticket921/input_plain"/>
    </output>

    <processing>
        <no-turnarounds value="true"/>
        <offset.disable-normalization value="true"/>
    </processing>

</configuration>
-->

<nodes version="0.13" xmlns:xsi="http://www.w3.org/2001/XMLSchema-instance" xsi:noNamespaceSchemaLocation="http://sumo-sim.org/xsd/nodes_file.xsd">
    <location netOffset="0.00,0.00" convBoundary="10000000000.00,10000000000.00,-10000000000.00,-10000000000.00" origBoundary="10000000000.00,10000000000.00,-10000000000.00,-10000000000.00" projParameter="!"/>

    <node id="gneJ0" x="-10.00" y="0.00" type="unregulated"/>
    <node id="gneJ1" x="0.00" y="0.00" type="dead_end"/>
    <node id="gneJ3" x="10.00" y="0.00" type="unregulated"/>
    <node id="gneJ4" x="0.00" y="10.00" type="unregulated"/>
    <node id="gneJ5" x="0.00" y="-10.00" type="unregulated"/>
</nodes>
