<?xml version="1.0" encoding="UTF-8"?>

<!-- generated on 2022-11-30 15:15:07 by Eclipse SUMO sumo Version v1_15_0+0679-5ca98c3
This data file and the accompanying materials
are made available under the terms of the Eclipse Public License v2.0
which accompanies this distribution, and is available at
http://www.eclipse.org/legal/epl-v20.html
This file may also be made available under the following Secondary
Licenses when the conditions for such availability set forth in the Eclipse
Public License 2.0 are satisfied: GNU General Public License, version 2
or later which is available at
https://www.gnu.org/licenses/old-licenses/gpl-2.0-standalone.html
SPDX-License-Identifier: EPL-2.0 OR GPL-2.0-or-later
<configuration xmlns:xsi="http://www.w3.org/2001/XMLSchema-instance" xsi:noNamespaceSchemaLocation="http://sumo.dlr.de/xsd/sumoConfiguration.xsd">

    <input>
        <net-file value="net.net.xml"/>
        <route-files value="input_routes.rou.xml"/>
    </input>

    <output>
        <write-license value="true"/>
        <tripinfo-output value="tripinfos.xml"/>
        <railsignal-block-output value="railsignal_blocks.xml"/>
    </output>

    <processing>
        <default.speeddev value="0"/>
    </processing>

    <report>
        <xml-validation value="never"/>
        <duration-log.disable value="true"/>
        <no-step-log value="true"/>
    </report>

</configuration>
-->

<railsignal-block-output>
    <railSignal id="A">
        <link linkIndex="0" from="a_0" to=":A_2_0">
            <driveWay edges="b c">
                <forward lanes=":A_2_0 b_0 :B_2_0 c_0"/>
                <bidi lanes=":A_1_0 -b_0 :B_1_0 -c_0"/>
                <flank lanes=":A_3_0 d_0 :B_0_0"/>
                <protectingSwitches links=""/>
                <conflictLinks signals="B_0"/>
            </driveWay>
        </link>
    </railSignal>
    <railSignal id="B">
        <link linkIndex="0" from="-e_0" to=":B_0_0">
            <driveWay edges="-b -a">
                <forward lanes=":B_0_0 -b_0 :A_1_0 -a_0"/>
                <bidi lanes=":B_3_0 b_0 :A_2_0 a_0"/>
                <flank lanes=":B_1_0 -c_0 :A_3_0 d_0"/>
                <protectingSwitches links=""/>
                <conflictLinks signals=""/>
            </driveWay>
        </link>
    </railSignal>
</railsignal-block-output>
