<?xml version="1.0" encoding="UTF-8"?>

<!-- generated on 2022-07-08 11:20:45 by Eclipse SUMO netedit Version v1_13_0+1477-18ae478306d
-->

<additional xmlns:xsi="http://www.w3.org/2001/XMLSchema-instance" xsi:noNamespaceSchemaLocation="http://sumo.dlr.de/xsd/additional_file.xsd">
    <!-- TAZs -->
    <taz id="taz_0" shape="12.00,8.00 9.00,13.00 12.00,18.00 7.00,15.00 2.00,18.00 5.00,13.00 2.00,8.00 7.00,11.00 12.00,8.00" center="0.00,0.00" color="blue"/>
</additional>
