<?xml version="1.0" encoding="UTF-8"?>

<!-- generated on 2021-06-25 09:39:17 by Eclipse SUMO netedit Version v1_9_2+0656-adb6934d49
<configuration xmlns:xsi="http://www.w3.org/2001/XMLSchema-instance" xsi:noNamespaceSchemaLocation="http://sumo.dlr.de/xsd/netconvertConfiguration.xsd">

    <input>
        <sumo-net-file value="C:\Users\SUMO-Test\.texttest\tmp\netedit.gui.25Jun093808.4904\netedit.gui\additionalElements\e2MultiLaneDetector\create\default\input_net.net.xml"/>
    </input>

    <output>
        <output-file value="C:\Users\SUMO-Test\.texttest\tmp\netedit.gui.25Jun093808.4904\netedit.gui\additionalElements\e2MultiLaneDetector\create\default\net.net.xml"/>
    </output>

    <processing>
        <geometry.min-radius.fix.railways value="false"/>
        <geometry.max-grade.fix value="false"/>
        <offset.disable-normalization value="true"/>
        <lefthand value="false"/>
    </processing>

    <junctions>
        <no-turnarounds value="true"/>
        <junctions.corner-detail value="5"/>
        <junctions.limit-turn-speed value="5.5"/>
        <rectangular-lane-cut value="false"/>
    </junctions>

    <pedestrian>
        <walkingareas value="false"/>
    </pedestrian>

    <netedit>
        <additional-files value="C:\Users\SUMO-Test\.texttest\tmp\netedit.gui.25Jun093808.4904\netedit.gui\additionalElements\e2MultiLaneDetector\create\default\additionals.xml"/>
        <additionals-output value="C:\Users\SUMO-Test\.texttest\tmp\netedit.gui.25Jun093808.4904\netedit.gui\additionalElements\e2MultiLaneDetector\create\default\additionals.xml"/>
        <route-files value="C:\Users\SUMO-Test\.texttest\tmp\netedit.gui.25Jun093808.4904\netedit.gui\additionalElements\e2MultiLaneDetector\create\default\routes.xml"/>
        <demandelements-output value="C:\Users\SUMO-Test\.texttest\tmp\netedit.gui.25Jun093808.4904\netedit.gui\additionalElements\e2MultiLaneDetector\create\default\routes.xml"/>
        <data-files value="C:\Users\SUMO-Test\.texttest\tmp\netedit.gui.25Jun093808.4904\netedit.gui\additionalElements\e2MultiLaneDetector\create\default\datas.xml"/>
        <dataelements-output value="C:\Users\SUMO-Test\.texttest\tmp\netedit.gui.25Jun093808.4904\netedit.gui\additionalElements\e2MultiLaneDetector\create\default\datas.xml"/>
    </netedit>

    <visualisation>
        <gui-settings-file value="C:\Users\SUMO-Test\.texttest\tmp\netedit.gui.25Jun093808.4904\netedit.gui\additionalElements\e2MultiLaneDetector\create\default\gui-settings.xml"/>
        <window-size value="936,697"/>
        <window-pos value="50,50"/>
        <gui-testing value="true"/>
        <gui-testing-debug value="true"/>
        <gui-testing-debug-gl value="true"/>
        <gui-testing.setting-output value="C:\Users\SUMO-Test\.texttest\tmp\netedit.gui.25Jun093808.4904\netedit.gui\additionalElements\e2MultiLaneDetector\create\default\guisettingsoutput.xml"/>
    </visualisation>

    <report>
        <no-warnings value="true"/>
        <aggregate-warnings value="5"/>
        <error-log value="C:\Users\SUMO-Test\.texttest\tmp\netedit.gui.25Jun093808.4904\netedit.gui\additionalElements\e2MultiLaneDetector\create\default\log.txt"/>
    </report>

</configuration>
-->

<additional xmlns:xsi="http://www.w3.org/2001/XMLSchema-instance" xsi:noNamespaceSchemaLocation="http://sumo.dlr.de/xsd/additional_file.xsd">
    <e2Detector id="e2MultilaneDetector_0" lanes="gneE2_0 gneE3_0 gneE4_0 gneE5_0" pos="10.00" endPos="15.00" freq="300.00" file="e2MultilaneDetector_0.xml"/>
</additional>
