<?xml version="1.0"?>

<!-- generated on 11/12/08 15:10:24 by SUMO netconvert Version dev-SVN-r6332
<configuration>

   <input>
      <xml-node-files>input_nodes.nod.xml</xml-node-files>
      <xml-edge-files>input_edges.edg.xml</xml-edge-files>
   </input>

   <output>
      <output-file>net.net.xml</output-file>
      <plain-output>plain</plain-output>
   </output>

   <processing>
      <add-node-positions>true</add-node-positions>
   </processing>

</configuration>
-->

<connections>
	<connection from="1" to="2" lane="0:0"/>

	<connection from="2" to="3" lane="0:0"/>

	<connection from="3" to="4" lane="0:0"/>

	<connection from="4" to="1" lane="0:0"/>

</connections>
