<?xml version="1.0" encoding="UTF-8"?>

<!-- generated on 2025-09-23T22:40:26.699788+01:00 by Eclipse SUMO netedit v1_24_0+0924-fb460e145d0
<neteditConfiguration xmlns:xsi="http://www.w3.org/2001/XMLSchema-instance" xsi:noNamespaceSchemaLocation="http://sumo.dlr.de/xsd/neteditConfiguration.xsd">

    <input>
        <sumo-net-file value="net2.net.xml"/>
    </input>

    <output>
        <output-file value="net2.net.xml"/>
    </output>

    <processing>
        <geometry.min-radius.fix.railways value="false"/>
        <geometry.avoid-overlap value="false"/>
        <geometry.max-grade.fix value="false"/>
        <offset.disable-normalization value="true"/>
        <lefthand value="0"/>
    </processing>

    <junctions>
        <no-turnarounds value="true"/>
        <junctions.corner-detail value="0"/>
        <junctions.limit-turn-speed value="-1.00"/>
        <rectangular-lane-cut value="0"/>
    </junctions>

    <pedestrian>
        <walkingareas value="0"/>
    </pedestrian>

</neteditConfiguration>
-->

<net version="1.20" avoidOverlap="0" xmlns:xsi="http://www.w3.org/2001/XMLSchema-instance" xsi:noNamespaceSchemaLocation="http://sumo.dlr.de/xsd/net_file.xsd">

    <location netOffset="100.00,100.00" convBoundary="0.00,0.00,200.00,200.00" origBoundary="-10000000000.00,-10000000000.00,10000000000.00,10000000000.00" projParameter="!"/>

    <edge id=":C_0" function="internal">
        <lane id=":C_0_0" index="0" speed="13.89" length="10.35" shape="96.80,110.40 96.35,107.95 95.00,106.20 92.75,105.15 89.60,104.80"/>
    </edge>
    <edge id=":C_1" function="internal">
        <lane id=":C_1_0" index="0" speed="13.89" length="20.86" shape="96.80,110.40 95.20,89.60"/>
        <lane id=":C_1_1" index="1" speed="13.89" length="20.86" shape="100.00,110.40 98.40,89.60"/>
    </edge>
    <edge id=":C_3" function="internal">
        <lane id=":C_3_0" index="0" speed="13.89" length="5.65" shape="100.00,110.40 100.85,105.15 101.04,104.87"/>
    </edge>
    <edge id=":C_14" function="internal">
        <lane id=":C_14_0" index="0" speed="13.89" length="15.01" shape="101.04,104.87 103.40,101.40 107.65,99.15 113.60,98.40"/>
    </edge>
    <edge id=":C_4" function="internal">
        <lane id=":C_4_0" index="0" speed="13.89" length="24.00" shape="113.60,104.80 89.60,104.80"/>
        <lane id=":C_4_1" index="1" speed="13.89" length="24.00" shape="113.60,101.60 89.60,101.60"/>
    </edge>
    <edge id=":C_6" function="internal">
        <lane id=":C_6_0" index="0" speed="13.89" length="6.30" shape="113.60,101.60 107.34,100.89"/>
    </edge>
    <edge id=":C_15" function="internal">
        <lane id=":C_15_0" index="0" speed="13.89" length="15.70" shape="107.34,100.89 106.95,100.85 102.20,98.60 99.35,94.85 98.40,89.60"/>
    </edge>
    <edge id=":C_7" function="internal">
        <lane id=":C_7_0" index="0" speed="13.89" length="9.03" shape="108.00,89.60 108.35,92.05 109.40,93.80 111.15,94.85 113.60,95.20"/>
    </edge>
    <edge id=":C_8" function="internal">
        <lane id=":C_8_0" index="0" speed="13.89" length="20.86" shape="104.80,89.60 103.20,110.40"/>
    </edge>
    <edge id=":C_9" function="internal">
        <lane id=":C_9_0" index="0" speed="13.89" length="3.28" shape="101.60,89.60 101.14,92.85"/>
    </edge>
    <edge id=":C_16" function="internal">
        <lane id=":C_16_0" index="0" speed="13.89" length="16.07" shape="101.14,92.85 100.85,94.85 98.60,98.60 94.85,100.85 89.60,101.60"/>
    </edge>
    <edge id=":C_10" function="internal">
        <lane id=":C_10_0" index="0" speed="13.89" length="9.03" shape="89.60,95.20 92.05,94.85 93.80,93.80 94.85,92.05 95.20,89.60"/>
    </edge>
    <edge id=":C_11" function="internal">
        <lane id=":C_11_0" index="0" speed="13.89" length="24.00" shape="89.60,95.20 113.60,95.20"/>
        <lane id=":C_11_1" index="1" speed="13.89" length="24.00" shape="89.60,98.40 113.60,98.40"/>
    </edge>
    <edge id=":C_13" function="internal">
        <lane id=":C_13_0" index="0" speed="13.89" length="5.65" shape="89.60,98.40 95.21,99.11"/>
    </edge>
    <edge id=":C_17" function="internal">
        <lane id=":C_17_0" index="0" speed="13.89" length="15.01" shape="95.21,99.11 95.55,99.15 99.80,101.40 102.35,105.15 103.20,110.40"/>
    </edge>
    <edge id=":E_0" function="internal">
        <lane id=":E_0_0" index="0" speed="13.89" length="4.67" shape="200.00,98.40 201.20,99.20 201.60,100.00 201.20,100.80 200.00,101.60"/>
    </edge>
    <edge id=":N_0" function="internal">
        <lane id=":N_0_0" index="0" speed="13.89" length="4.67" shape="103.20,200.00 102.40,201.20 101.60,201.60 100.80,201.20 100.00,200.00"/>
    </edge>
    <edge id=":S_0" function="internal">
        <lane id=":S_0_0" index="0" speed="13.89" length="4.67" shape="98.40,0.00 99.20,-1.20 100.00,-1.60 100.80,-1.20 101.60,0.00"/>
    </edge>
    <edge id=":W_0" function="internal">
        <lane id=":W_0_0" index="0" speed="13.89" length="4.67" shape="0.00,101.60 -1.20,100.80 -1.60,100.00 -1.20,99.20 0.00,98.40"/>
    </edge>

    <edge id="CE" from="C" to="E" priority="2">
        <lane id="CE_0" index="0" speed="13.89" length="86.40" shape="113.60,95.20 200.00,95.20"/>
        <lane id="CE_1" index="1" speed="13.89" length="86.40" shape="113.60,98.40 200.00,98.40"/>
    </edge>
    <edge id="CN" from="C" to="N" priority="1" spreadType="roadCenter">
        <lane id="CN_0" index="0" speed="13.89" length="89.60" shape="103.20,110.40 103.20,200.00"/>
    </edge>
    <edge id="CS" from="C" to="S" priority="1">
        <lane id="CS_0" index="0" speed="13.89" length="89.60" shape="95.20,89.60 95.20,0.00"/>
        <lane id="CS_1" index="1" speed="13.89" length="89.60" shape="98.40,89.60 98.40,0.00"/>
    </edge>
    <edge id="CW" from="C" to="W" priority="2">
        <lane id="CW_0" index="0" speed="13.89" length="89.60" shape="89.60,104.80 0.00,104.80"/>
        <lane id="CW_1" index="1" speed="13.89" length="89.60" shape="89.60,101.60 0.00,101.60"/>
    </edge>
    <edge id="EC" from="E" to="C" priority="2">
        <lane id="EC_0" index="0" speed="13.89" length="86.40" shape="200.00,104.80 113.60,104.80"/>
        <lane id="EC_1" index="1" speed="13.89" length="86.40" shape="200.00,101.60 113.60,101.60"/>
    </edge>
    <edge id="NC" from="N" to="C" priority="1" spreadType="roadCenter">
        <lane id="NC_0" index="0" speed="13.89" length="89.60" shape="96.80,200.00 96.80,110.40"/>
        <lane id="NC_1" index="1" speed="13.89" length="89.60" shape="100.00,200.00 100.00,110.40"/>
    </edge>
    <edge id="SC" from="S" to="C" priority="1">
        <lane id="SC_0" index="0" speed="13.89" length="89.60" shape="108.00,0.00 108.00,89.60"/>
        <lane id="SC_1" index="1" speed="13.89" length="89.60" shape="104.80,0.00 104.80,89.60"/>
        <lane id="SC_2" index="2" speed="13.89" length="89.60" shape="101.60,0.00 101.60,89.60"/>
    </edge>
    <edge id="WC" from="W" to="C" priority="2">
        <lane id="WC_0" index="0" speed="13.89" length="89.60" shape="0.00,95.20 89.60,95.20"/>
        <lane id="WC_1" index="1" speed="13.89" length="89.60" shape="0.00,98.40 89.60,98.40"/>
    </edge>

    <tlLogic id="C" type="static" programID="0" offset="0">
        <phase duration="38" state="rrrrGGgrrrGGGg"/>
        <phase duration="3"  state="rrrryyyrrryyyy"/>
        <phase duration="37" state="GGGgrrrGGgrrrr"/>
        <phase duration="3"  state="yyygrrryygrrrr"/>
        <phase duration="6"  state="rrrGrrrrrGrrrr"/>
        <phase duration="3"  state="rrryrrrrryrrrr"/>
    </tlLogic>

    <junction id="C" type="traffic_light" x="100.00" y="100.00" incLanes="NC_0 NC_1 EC_0 EC_1 SC_0 SC_1 SC_2 WC_0 WC_1" intLanes=":C_0_0 :C_1_0 :C_1_1 :C_14_0 :C_4_0 :C_4_1 :C_15_0 :C_7_0 :C_8_0 :C_16_0 :C_10_0 :C_11_0 :C_11_1 :C_17_0" shape="95.20,110.40 104.80,110.40 113.60,106.40 113.60,93.60 109.60,89.60 93.60,89.60 89.60,93.60 89.60,106.40">
        <request index="0"  response="00000000110000" foes="00000000110000" cont="0"/>
        <request index="1"  response="11110001110000" foes="11111001110000" cont="0"/>
        <request index="2"  response="11110001110000" foes="11111001110000" cont="0"/>
        <request index="3"  response="11100101110000" foes="11100101110000" cont="1"/>
        <request index="4"  response="00001000001000" foes="10001100001111" cont="0"/>
        <request index="5"  response="00001000001000" foes="10001100001111" cont="0"/>
        <request index="6"  response="01101000001000" foes="01101100001110" cont="1"/>
        <request index="7"  response="01100000000000" foes="01100000000000" cont="0"/>
        <request index="8"  response="11100001110000" foes="11100001111000" cont="0"/>
        <request index="9"  response="11100001110110" foes="11100001110110" cont="1"/>
        <request index="10" response="00000000000000" foes="00000000000110" cont="0"/>
        <request index="11" response="00001000001000" foes="00001111001110" cont="0"/>
        <request index="12" response="00001000001000" foes="00001111001110" cont="0"/>
        <request index="13" response="00001000111000" foes="00001100111110" cont="1"/>
    </junction>
    <junction id="E" type="priority" x="200.00" y="100.00" incLanes="CE_0 CE_1" intLanes=":E_0_0" shape="200.00,100.00 200.00,93.60 200.00,100.00">
        <request index="0" response="0" foes="0" cont="0"/>
    </junction>
    <junction id="N" type="priority" x="100.00" y="200.00" incLanes="CN_0" intLanes=":N_0_0" shape="101.60,200.00 104.80,200.00 101.60,200.00">
        <request index="0" response="0" foes="0" cont="0"/>
    </junction>
    <junction id="S" type="priority" x="100.00" y="0.00" incLanes="CS_0 CS_1" intLanes=":S_0_0" shape="100.00,0.00 93.60,0.00 100.00,0.00">
        <request index="0" response="0" foes="0" cont="0"/>
    </junction>
    <junction id="W" type="priority" x="0.00" y="100.00" incLanes="CW_0 CW_1" intLanes=":W_0_0" shape="0.00,100.00 0.00,106.40 0.00,100.00">
        <request index="0" response="0" foes="0" cont="0"/>
    </junction>

    <junction id=":C_14_0" type="internal" x="101.04" y="104.87" incLanes=":C_3_0 SC_0 SC_1" intLanes=":C_4_0 :C_4_1 :C_6_0 :C_7_0 :C_8_0 :C_11_0 :C_11_1 :C_13_0"/>
    <junction id=":C_15_0" type="internal" x="107.34" y="100.89" incLanes=":C_6_0 WC_0 WC_1" intLanes=":C_1_0 :C_1_1 :C_3_0 :C_8_0 :C_9_0 :C_10_0 :C_11_0 :C_11_1"/>
    <junction id=":C_16_0" type="internal" x="101.14" y="92.85" incLanes=":C_9_0 NC_0 NC_1" intLanes=":C_0_0 :C_1_0 :C_1_1 :C_4_0 :C_4_1 :C_6_0 :C_11_0 :C_11_1 :C_13_0"/>
    <junction id=":C_17_0" type="internal" x="95.21" y="99.11" incLanes=":C_13_0 EC_0 EC_1" intLanes=":C_1_0 :C_1_1 :C_3_0 :C_4_0 :C_4_1 :C_8_0 :C_9_0"/>

    <connection from="CE" to="EC" fromLane="1" toLane="1" via=":E_0_0" dir="t" state="M"/>
    <connection from="CN" to="NC" fromLane="0" toLane="1" via=":N_0_0" dir="t" state="M"/>
    <connection from="CS" to="SC" fromLane="1" toLane="2" via=":S_0_0" dir="t" state="M"/>
    <connection from="CW" to="WC" fromLane="1" toLane="1" via=":W_0_0" dir="t" state="M"/>
    <connection from="EC" to="CW" fromLane="0" toLane="0" via=":C_4_0" tl="C" linkIndex="4" dir="s" state="O"/>
    <connection from="EC" to="CW" fromLane="1" toLane="1" via=":C_4_1" tl="C" linkIndex="5" dir="s" state="O"/>
    <connection from="EC" to="CS" fromLane="1" toLane="1" via=":C_6_0" tl="C" linkIndex="6" dir="l" state="o"/>
    <connection from="NC" to="CW" fromLane="0" toLane="0" via=":C_0_0" tl="C" linkIndex="0" dir="r" state="o"/>
    <connection from="NC" to="CS" fromLane="0" toLane="0" via=":C_1_0" tl="C" linkIndex="1" dir="s" state="o"/>
    <connection from="NC" to="CS" fromLane="1" toLane="1" via=":C_1_1" tl="C" linkIndex="2" dir="s" state="o"/>
    <connection from="NC" to="CE" fromLane="1" toLane="1" via=":C_3_0" tl="C" linkIndex="3" dir="l" state="o"/>
    <connection from="SC" to="CE" fromLane="0" toLane="0" via=":C_7_0" tl="C" linkIndex="7" dir="r" state="o"/>
    <connection from="SC" to="CN" fromLane="1" toLane="0" via=":C_8_0" tl="C" linkIndex="8" dir="s" state="o"/>
    <connection from="SC" to="CW" fromLane="2" toLane="1" via=":C_9_0" tl="C" linkIndex="9" dir="l" state="o"/>
    <connection from="WC" to="CS" fromLane="0" toLane="0" via=":C_10_0" tl="C" linkIndex="10" dir="r" state="O"/>
    <connection from="WC" to="CE" fromLane="0" toLane="0" via=":C_11_0" tl="C" linkIndex="11" dir="s" state="O"/>
    <connection from="WC" to="CE" fromLane="1" toLane="1" via=":C_11_1" tl="C" linkIndex="12" dir="s" state="O"/>
    <connection from="WC" to="CN" fromLane="1" toLane="0" via=":C_13_0" tl="C" linkIndex="13" dir="l" state="o"/>

    <connection from=":C_0" to="CW" fromLane="0" toLane="0" dir="r" state="M"/>
    <connection from=":C_1" to="CS" fromLane="0" toLane="0" dir="s" state="M"/>
    <connection from=":C_1" to="CS" fromLane="1" toLane="1" dir="s" state="M"/>
    <connection from=":C_3" to="CE" fromLane="0" toLane="1" via=":C_14_0" dir="l" state="m"/>
    <connection from=":C_14" to="CE" fromLane="0" toLane="1" dir="l" state="M"/>
    <connection from=":C_4" to="CW" fromLane="0" toLane="0" dir="s" state="M"/>
    <connection from=":C_4" to="CW" fromLane="1" toLane="1" dir="s" state="M"/>
    <connection from=":C_6" to="CS" fromLane="0" toLane="1" via=":C_15_0" dir="l" state="m"/>
    <connection from=":C_15" to="CS" fromLane="0" toLane="1" dir="l" state="M"/>
    <connection from=":C_7" to="CE" fromLane="0" toLane="0" dir="r" state="M"/>
    <connection from=":C_8" to="CN" fromLane="0" toLane="0" dir="s" state="M"/>
    <connection from=":C_9" to="CW" fromLane="0" toLane="1" via=":C_16_0" dir="l" state="m"/>
    <connection from=":C_16" to="CW" fromLane="0" toLane="1" dir="l" state="M"/>
    <connection from=":C_10" to="CS" fromLane="0" toLane="0" dir="r" state="M"/>
    <connection from=":C_11" to="CE" fromLane="0" toLane="0" dir="s" state="M"/>
    <connection from=":C_11" to="CE" fromLane="1" toLane="1" dir="s" state="M"/>
    <connection from=":C_13" to="CN" fromLane="0" toLane="0" via=":C_17_0" dir="l" state="m"/>
    <connection from=":C_17" to="CN" fromLane="0" toLane="0" dir="l" state="M"/>
    <connection from=":E_0" to="EC" fromLane="0" toLane="1" dir="t" state="M"/>
    <connection from=":N_0" to="NC" fromLane="0" toLane="1" dir="t" state="M"/>
    <connection from=":S_0" to="SC" fromLane="0" toLane="2" dir="t" state="M"/>
    <connection from=":W_0" to="WC" fromLane="0" toLane="1" dir="t" state="M"/>

</net>
