<?xml version="1.0" encoding="UTF-8"?>

<!-- generated on 04.12.2018 12:48:06 by Eclipse SUMO netedit Version v1_0_0+1208-d42a3cd999
<configuration xmlns:xsi="http://www.w3.org/2001/XMLSchema-instance" xsi:noNamespaceSchemaLocation="http://sumo.dlr.de/xsd/netconvertConfiguration.xsd">

    <input>
        <sumo-net-file value="C:/Users/alva_pa/.texttest/tmp/netedit.gui.04Dec124644.6060/netedit.gui/shapeElements/poilane/load/genericparameters\input_net.net.xml"/>
    </input>

    <output>
        <output-file value="C:/Users/alva_pa/.texttest/tmp/netedit.gui.04Dec124644.6060/netedit.gui/shapeElements/poilane/load/genericparameters\net.net.xml"/>
    </output>

    <processing>
        <offset.disable-normalization value="true"/>
        <lefthand value="false"/>
    </processing>

    <junctions>
        <no-turnarounds value="true"/>
        <junctions.corner-detail value="5"/>
        <junctions.limit-turn-speed value="5.5"/>
        <rectangular-lane-cut value="false"/>
    </junctions>

    <pedestrian>
        <walkingareas value="false"/>
    </pedestrian>

    <netedit>
        <additionals-output value="C:/Users/alva_pa/.texttest/tmp/netedit.gui.04Dec124644.6060/netedit.gui/shapeElements/poilane/load/genericparameters\additionals.xml"/>
        <sumo-shapes-file value="C:/Users/alva_pa/.texttest/tmp/netedit.gui.04Dec124644.6060/netedit.gui/shapeElements/poilane/load/genericparameters\input_shapes.add.xml"/>
        <shapes-output value="C:/Users/alva_pa/.texttest/tmp/netedit.gui.04Dec124644.6060/netedit.gui/shapeElements/poilane/load/genericparameters\shapes.xml"/>
    </netedit>

    <visualisation>
        <gui-settings-file value="C:/Users/alva_pa/.texttest/tmp/netedit.gui.04Dec124644.6060/netedit.gui/shapeElements/poilane/load/genericparameters\gui-settings.xml"/>
        <window-size value="700,500"/>
        <window-pos value="50,50"/>
        <gui-testing value="true"/>
        <gui-testing-debug value="true"/>
        <gui-testing-debug-gl value="true"/>
    </visualisation>

    <report>
        <no-warnings value="true"/>
        <error-log value="C:/Users/alva_pa/.texttest/tmp/netedit.gui.04Dec124644.6060/netedit.gui/shapeElements/poilane/load/genericparameters\log.txt"/>
    </report>

</configuration>
-->

<additional xmlns:xsi="http://www.w3.org/2001/XMLSchema-instance" xsi:noNamespaceSchemaLocation="http://sumo.dlr.de/xsd/additional_file.xsd">
    <poi id="POI_0" color="red" layer="0.00" lane="gneE1_0" pos="20.00" width="0.00" height="0.00">
        <param key="$$key with spaces%%" value="value3"/>
        <param key="key1" value="value4"/>
        <param key="key2" value=""/>
        <param key="key3" value="$$value with spaces%%"/>
        <param key="key4" value="value5"/>
    </poi>
</additional>
