<?xml version="1.0"?>

<!-- generated on 05/13/09 10:59:48 by SUMO netgen Version dev-SVN-r7152
<configuration>

   <spider_network>
      <spider-net>true</spider-net>
      <spider-arm-number>4</spider-arm-number>
      <spider-circle-number>1</spider-circle-number>
      <spider-space-rad>100</spider-space-rad>
   </spider_network>

   <output>
      <output-file>net.net.xml</output-file>
   </output>

   <building_defaults>
      <default-junction-type>traffic_light</default-junction-type>
   </building_defaults>

   <report>
      <verbose>true</verbose>
   </report>

</configuration>
-->

<net>

   <net-offset>100.00,100.00</net-offset>
   <conv-boundary>0.00,0.00,200.00,200.00</conv-boundary>
   <orig-boundary>-100.00,-100.00,100.00,100.00</orig-boundary>
   <orig-proj>!</orig-proj>

   <edge id=":1_0" function="internal">
      <lanes>
         <lane id=":1_0_0" depart="0" maxspeed="13.90" length="5.00" >98.35,104.75 98.16,103.39 97.58,102.42 96.61,101.84 95.25,101.65</lane>
      </lanes>
   </edge>

   <edge id=":1_1" function="internal">
      <lanes>
         <lane id=":1_1_0" depart="0" maxspeed="13.90" length="9.50" >98.35,104.75 98.35,95.25</lane>
      </lanes>
   </edge>

   <edge id=":1_2" function="internal">
      <lanes>
         <lane id=":1_2_0" depart="0" maxspeed="13.90" length="10.32" >98.35,104.75 98.75,101.95 99.95,99.95 101.95,98.75 104.75,98.35</lane>
      </lanes>
   </edge>

   <edge id=":1_3" function="internal">
      <lanes>
         <lane id=":1_3_0" depart="0" maxspeed="13.90" length="4.82" >98.35,104.75 99.18,103.51 100.00,103.10 100.83,103.51 101.65,104.75</lane>
      </lanes>
   </edge>

   <edge id=":1_4" function="internal">
      <lanes>
         <lane id=":1_4_0" depart="0" maxspeed="13.90" length="5.00" >104.75,101.65 103.39,101.84 102.43,102.43 101.84,103.39 101.65,104.75</lane>
      </lanes>
   </edge>

   <edge id=":1_5" function="internal">
      <lanes>
         <lane id=":1_5_0" depart="0" maxspeed="13.90" length="9.50" >104.75,101.65 95.25,101.65</lane>
      </lanes>
   </edge>

   <edge id=":1_6" function="internal">
      <lanes>
         <lane id=":1_6_0" depart="0" maxspeed="13.90" length="10.32" >104.75,101.65 101.95,101.25 99.95,100.05 98.75,98.05 98.35,95.25</lane>
      </lanes>
   </edge>

   <edge id=":1_7" function="internal">
      <lanes>
         <lane id=":1_7_0" depart="0" maxspeed="13.90" length="4.82" >104.75,101.65 103.51,100.83 103.10,100.00 103.51,99.18 104.75,98.35</lane>
      </lanes>
   </edge>

   <edge id=":1_8" function="internal">
      <lanes>
         <lane id=":1_8_0" depart="0" maxspeed="13.90" length="5.00" >101.65,95.25 101.84,96.61 102.43,97.58 103.39,98.16 104.75,98.35</lane>
      </lanes>
   </edge>

   <edge id=":1_9" function="internal">
      <lanes>
         <lane id=":1_9_0" depart="0" maxspeed="13.90" length="9.50" >101.65,95.25 101.65,104.75</lane>
      </lanes>
   </edge>

   <edge id=":1_10" function="internal">
      <lanes>
         <lane id=":1_10_0" depart="0" maxspeed="13.90" length="10.32" >101.65,95.25 101.25,98.05 100.05,100.05 98.05,101.25 95.25,101.65</lane>
      </lanes>
   </edge>

   <edge id=":1_11" function="internal">
      <lanes>
         <lane id=":1_11_0" depart="0" maxspeed="13.90" length="4.82" >101.65,95.25 100.83,96.49 100.00,96.90 99.18,96.49 98.35,95.25</lane>
      </lanes>
   </edge>

   <edge id=":1_12" function="internal">
      <lanes>
         <lane id=":1_12_0" depart="0" maxspeed="13.90" length="5.00" >95.25,98.35 96.61,98.16 97.58,97.57 98.16,96.61 98.35,95.25</lane>
      </lanes>
   </edge>

   <edge id=":1_13" function="internal">
      <lanes>
         <lane id=":1_13_0" depart="0" maxspeed="13.90" length="9.50" >95.25,98.35 104.75,98.35</lane>
      </lanes>
   </edge>

   <edge id=":1_14" function="internal">
      <lanes>
         <lane id=":1_14_0" depart="0" maxspeed="13.90" length="10.32" >95.25,98.35 98.05,98.75 100.05,99.95 101.25,101.95 101.65,104.75</lane>
      </lanes>
   </edge>

   <edge id=":1_15" function="internal">
      <lanes>
         <lane id=":1_15_0" depart="0" maxspeed="13.90" length="4.82" >95.25,98.35 96.49,99.17 96.90,100.00 96.49,100.82 95.25,101.65</lane>
      </lanes>
   </edge>

   <edge id=":1/1_0" function="internal">
      <lanes>
         <lane id=":1/1_0_0" depart="0" maxspeed="13.90" length="17.73" >194.56,92.22 197.47,96.11 198.45,100.00 197.47,103.89 194.56,107.78</lane>
      </lanes>
   </edge>

   <edge id=":1/1_1" function="internal">
      <lanes>
         <lane id=":1/1_1_0" depart="0" maxspeed="13.90" length="12.49" >194.56,92.22 197.85,96.35 198.29,99.29 191.91,101.51</lane>
      </lanes>
   </edge>

   <edge id=":1/1_9" function="internal">
      <lanes>
         <lane id=":1/1_9_0" depart="0" maxspeed="13.90" length="4.02" >191.91,101.51 190.65,101.65</lane>
      </lanes>
   </edge>

   <edge id=":1/1_2" function="internal">
      <lanes>
         <lane id=":1/1_2_0" depart="0" maxspeed="13.90" length="0.10" >194.56,92.22 194.83,93.58</lane>
      </lanes>
   </edge>

   <edge id=":1/1_10" function="internal">
      <lanes>
         <lane id=":1/1_10_0" depart="0" maxspeed="13.90" length="4.72" >194.83,93.58 194.85,93.68 194.56,94.56 193.68,94.85 192.22,94.56</lane>
      </lanes>
   </edge>

   <edge id=":1/1_3" function="internal">
      <lanes>
         <lane id=":1/1_3_0" depart="0" maxspeed="13.90" length="6.64" >190.65,98.35 192.76,98.11 193.73,97.40 193.55,96.22 192.22,94.56</lane>
      </lanes>
   </edge>

   <edge id=":1/1_4" function="internal">
      <lanes>
         <lane id=":1/1_4_0" depart="0" maxspeed="13.90" length="4.02" >190.65,98.35 191.91,98.49</lane>
      </lanes>
   </edge>

   <edge id=":1/1_11" function="internal">
      <lanes>
         <lane id=":1/1_11_0" depart="0" maxspeed="13.90" length="12.49" >191.91,98.49 195.90,98.94 198.29,100.71 197.85,103.65 194.56,107.78</lane>
      </lanes>
   </edge>

   <edge id=":1/1_5" function="internal">
      <lanes>
         <lane id=":1/1_5_0" depart="0" maxspeed="13.90" length="0.10" >190.65,98.35 191.81,99.12</lane>
      </lanes>
   </edge>

   <edge id=":1/1_12" function="internal">
      <lanes>
         <lane id=":1/1_12_0" depart="0" maxspeed="13.90" length="4.72" >191.81,99.12 191.89,99.17 192.30,100.00 191.89,100.82 190.65,101.65</lane>
      </lanes>
   </edge>

   <edge id=":1/1_6" function="internal">
      <lanes>
         <lane id=":1/1_6_0" depart="0" maxspeed="13.90" length="6.64" >192.22,105.44 193.55,103.78 193.73,102.60 192.76,101.89 190.65,101.65</lane>
      </lanes>
   </edge>

   <edge id=":1/1_7" function="internal">
      <lanes>
         <lane id=":1/1_7_0" depart="0" maxspeed="13.90" length="12.41" >192.22,105.44 194.27,102.72 194.95,100.00 194.27,97.28 192.22,94.56</lane>
      </lanes>
   </edge>

   <edge id=":1/1_8" function="internal">
      <lanes>
         <lane id=":1/1_8_0" depart="0" maxspeed="13.90" length="0.10" >192.22,105.44 193.58,105.17</lane>
      </lanes>
   </edge>

   <edge id=":1/1_13" function="internal">
      <lanes>
         <lane id=":1/1_13_0" depart="0" maxspeed="13.90" length="4.72" >193.58,105.17 193.68,105.15 194.56,105.44 194.85,106.32 194.56,107.78</lane>
      </lanes>
   </edge>

   <edge id=":2/1_0" function="internal">
      <lanes>
         <lane id=":2/1_0_0" depart="0" maxspeed="13.90" length="17.73" >107.78,194.56 103.89,197.47 100.00,198.45 96.11,197.47 92.22,194.56</lane>
      </lanes>
   </edge>

   <edge id=":2/1_1" function="internal">
      <lanes>
         <lane id=":2/1_1_0" depart="0" maxspeed="13.90" length="12.49" >107.78,194.56 103.65,197.85 100.71,198.29 98.49,191.91</lane>
      </lanes>
   </edge>

   <edge id=":2/1_9" function="internal">
      <lanes>
         <lane id=":2/1_9_0" depart="0" maxspeed="13.90" length="4.02" >98.49,191.91 98.35,190.65</lane>
      </lanes>
   </edge>

   <edge id=":2/1_2" function="internal">
      <lanes>
         <lane id=":2/1_2_0" depart="0" maxspeed="13.90" length="0.10" >107.78,194.56 106.42,194.83</lane>
      </lanes>
   </edge>

   <edge id=":2/1_10" function="internal">
      <lanes>
         <lane id=":2/1_10_0" depart="0" maxspeed="13.90" length="4.72" >106.42,194.83 106.32,194.85 105.44,194.56 105.15,193.68 105.44,192.22</lane>
      </lanes>
   </edge>

   <edge id=":2/1_3" function="internal">
      <lanes>
         <lane id=":2/1_3_0" depart="0" maxspeed="13.90" length="6.64" >101.65,190.65 101.89,192.76 102.60,193.73 103.78,193.55 105.44,192.22</lane>
      </lanes>
   </edge>

   <edge id=":2/1_4" function="internal">
      <lanes>
         <lane id=":2/1_4_0" depart="0" maxspeed="13.90" length="4.02" >101.65,190.65 101.51,191.91</lane>
      </lanes>
   </edge>

   <edge id=":2/1_11" function="internal">
      <lanes>
         <lane id=":2/1_11_0" depart="0" maxspeed="13.90" length="12.49" >101.51,191.91 101.06,195.90 99.29,198.29 96.35,197.85 92.22,194.56</lane>
      </lanes>
   </edge>

   <edge id=":2/1_5" function="internal">
      <lanes>
         <lane id=":2/1_5_0" depart="0" maxspeed="13.90" length="0.10" >101.65,190.65 100.88,191.81</lane>
      </lanes>
   </edge>

   <edge id=":2/1_12" function="internal">
      <lanes>
         <lane id=":2/1_12_0" depart="0" maxspeed="13.90" length="4.72" >100.88,191.81 100.82,191.89 100.00,192.30 99.17,191.89 98.35,190.65</lane>
      </lanes>
   </edge>

   <edge id=":2/1_6" function="internal">
      <lanes>
         <lane id=":2/1_6_0" depart="0" maxspeed="13.90" length="6.64" >94.56,192.22 96.22,193.55 97.40,193.73 98.11,192.76 98.35,190.65</lane>
      </lanes>
   </edge>

   <edge id=":2/1_7" function="internal">
      <lanes>
         <lane id=":2/1_7_0" depart="0" maxspeed="13.90" length="12.41" >94.56,192.22 97.28,194.27 100.00,194.95 102.72,194.27 105.44,192.22</lane>
      </lanes>
   </edge>

   <edge id=":2/1_8" function="internal">
      <lanes>
         <lane id=":2/1_8_0" depart="0" maxspeed="13.90" length="0.10" >94.56,192.22 94.83,193.58</lane>
      </lanes>
   </edge>

   <edge id=":2/1_13" function="internal">
      <lanes>
         <lane id=":2/1_13_0" depart="0" maxspeed="13.90" length="4.72" >94.83,193.58 94.85,193.68 94.56,194.56 93.68,194.85 92.22,194.56</lane>
      </lanes>
   </edge>

   <edge id=":3/1_0" function="internal">
      <lanes>
         <lane id=":3/1_0_0" depart="0" maxspeed="13.90" length="17.73" >5.44,107.78 2.53,103.89 1.55,100.00 2.53,96.11 5.44,92.22</lane>
      </lanes>
   </edge>

   <edge id=":3/1_1" function="internal">
      <lanes>
         <lane id=":3/1_1_0" depart="0" maxspeed="13.90" length="12.49" >5.44,107.78 2.15,103.65 1.71,100.71 8.09,98.49</lane>
      </lanes>
   </edge>

   <edge id=":3/1_9" function="internal">
      <lanes>
         <lane id=":3/1_9_0" depart="0" maxspeed="13.90" length="4.02" >8.09,98.49 9.35,98.35</lane>
      </lanes>
   </edge>

   <edge id=":3/1_2" function="internal">
      <lanes>
         <lane id=":3/1_2_0" depart="0" maxspeed="13.90" length="0.10" >5.44,107.78 5.17,106.42</lane>
      </lanes>
   </edge>

   <edge id=":3/1_10" function="internal">
      <lanes>
         <lane id=":3/1_10_0" depart="0" maxspeed="13.90" length="4.72" >5.17,106.42 5.15,106.32 5.44,105.44 6.32,105.15 7.78,105.44</lane>
      </lanes>
   </edge>

   <edge id=":3/1_3" function="internal">
      <lanes>
         <lane id=":3/1_3_0" depart="0" maxspeed="13.90" length="6.64" >9.35,101.65 7.24,101.89 6.27,102.60 6.45,103.78 7.78,105.44</lane>
      </lanes>
   </edge>

   <edge id=":3/1_4" function="internal">
      <lanes>
         <lane id=":3/1_4_0" depart="0" maxspeed="13.90" length="4.02" >9.35,101.65 8.09,101.51</lane>
      </lanes>
   </edge>

   <edge id=":3/1_11" function="internal">
      <lanes>
         <lane id=":3/1_11_0" depart="0" maxspeed="13.90" length="12.49" >8.09,101.51 4.10,101.06 1.71,99.29 2.15,96.35 5.44,92.22</lane>
      </lanes>
   </edge>

   <edge id=":3/1_5" function="internal">
      <lanes>
         <lane id=":3/1_5_0" depart="0" maxspeed="13.90" length="0.10" >9.35,101.65 8.19,100.88</lane>
      </lanes>
   </edge>

   <edge id=":3/1_12" function="internal">
      <lanes>
         <lane id=":3/1_12_0" depart="0" maxspeed="13.90" length="4.72" >8.19,100.88 8.11,100.82 7.70,100.00 8.11,99.17 9.35,98.35</lane>
      </lanes>
   </edge>

   <edge id=":3/1_6" function="internal">
      <lanes>
         <lane id=":3/1_6_0" depart="0" maxspeed="13.90" length="6.64" >7.78,94.56 6.45,96.22 6.27,97.40 7.24,98.11 9.35,98.35</lane>
      </lanes>
   </edge>

   <edge id=":3/1_7" function="internal">
      <lanes>
         <lane id=":3/1_7_0" depart="0" maxspeed="13.90" length="12.41" >7.78,94.56 5.73,97.28 5.05,100.00 5.73,102.72 7.78,105.44</lane>
      </lanes>
   </edge>

   <edge id=":3/1_8" function="internal">
      <lanes>
         <lane id=":3/1_8_0" depart="0" maxspeed="13.90" length="0.10" >7.78,94.56 6.42,94.83</lane>
      </lanes>
   </edge>

   <edge id=":3/1_13" function="internal">
      <lanes>
         <lane id=":3/1_13_0" depart="0" maxspeed="13.90" length="4.72" >6.42,94.83 6.32,94.85 5.44,94.56 5.15,93.68 5.44,92.22</lane>
      </lanes>
   </edge>

   <edge id=":4/1_0" function="internal">
      <lanes>
         <lane id=":4/1_0_0" depart="0" maxspeed="13.90" length="6.64" >98.35,9.35 98.11,7.24 97.40,6.27 96.22,6.45 94.56,7.78</lane>
      </lanes>
   </edge>

   <edge id=":4/1_1" function="internal">
      <lanes>
         <lane id=":4/1_1_0" depart="0" maxspeed="13.90" length="4.02" >98.35,9.35 98.49,8.09</lane>
      </lanes>
   </edge>

   <edge id=":4/1_9" function="internal">
      <lanes>
         <lane id=":4/1_9_0" depart="0" maxspeed="13.90" length="12.49" >98.49,8.09 98.94,4.10 100.71,1.71 103.65,2.15 107.78,5.44</lane>
      </lanes>
   </edge>

   <edge id=":4/1_2" function="internal">
      <lanes>
         <lane id=":4/1_2_0" depart="0" maxspeed="13.90" length="0.10" >98.35,9.35 99.12,8.19</lane>
      </lanes>
   </edge>

   <edge id=":4/1_10" function="internal">
      <lanes>
         <lane id=":4/1_10_0" depart="0" maxspeed="13.90" length="4.72" >99.12,8.19 99.17,8.11 100.00,7.70 100.82,8.11 101.65,9.35</lane>
      </lanes>
   </edge>

   <edge id=":4/1_3" function="internal">
      <lanes>
         <lane id=":4/1_3_0" depart="0" maxspeed="13.90" length="6.64" >105.44,7.78 103.78,6.45 102.60,6.27 101.89,7.24 101.65,9.35</lane>
      </lanes>
   </edge>

   <edge id=":4/1_4" function="internal">
      <lanes>
         <lane id=":4/1_4_0" depart="0" maxspeed="13.90" length="12.41" >105.44,7.78 102.72,5.73 100.00,5.05 97.28,5.73 94.56,7.78</lane>
      </lanes>
   </edge>

   <edge id=":4/1_5" function="internal">
      <lanes>
         <lane id=":4/1_5_0" depart="0" maxspeed="13.90" length="0.10" >105.44,7.78 105.17,6.42</lane>
      </lanes>
   </edge>

   <edge id=":4/1_11" function="internal">
      <lanes>
         <lane id=":4/1_11_0" depart="0" maxspeed="13.90" length="4.72" >105.17,6.42 105.15,6.32 105.44,5.44 106.32,5.15 107.78,5.44</lane>
      </lanes>
   </edge>

   <edge id=":4/1_6" function="internal">
      <lanes>
         <lane id=":4/1_6_0" depart="0" maxspeed="13.90" length="17.73" >92.22,5.44 96.11,2.53 100.00,1.55 103.89,2.53 107.78,5.44</lane>
      </lanes>
   </edge>

   <edge id=":4/1_7" function="internal">
      <lanes>
         <lane id=":4/1_7_0" depart="0" maxspeed="13.90" length="12.49" >92.22,5.44 96.35,2.15 99.29,1.71 101.51,8.09</lane>
      </lanes>
   </edge>

   <edge id=":4/1_12" function="internal">
      <lanes>
         <lane id=":4/1_12_0" depart="0" maxspeed="13.90" length="4.02" >101.51,8.09 101.65,9.35</lane>
      </lanes>
   </edge>

   <edge id=":4/1_8" function="internal">
      <lanes>
         <lane id=":4/1_8_0" depart="0" maxspeed="13.90" length="0.10" >92.22,5.44 93.58,5.17</lane>
      </lanes>
   </edge>

   <edge id=":4/1_13" function="internal">
      <lanes>
         <lane id=":4/1_13_0" depart="0" maxspeed="13.90" length="4.72" >93.58,5.17 93.68,5.15 94.56,5.44 94.85,6.32 94.56,7.78</lane>
      </lanes>
   </edge>



   <edge id="1/1to1" from="1/1" to="1" priority="-1" type="netgen-default" function="normal">
      <lanes>
         <lane id="1/1to1_0" depart="1" vclasses="" maxspeed="13.90" length="85.90">190.65,101.65 104.75,101.65</lane>
      </lanes>
   </edge>

   <edge id="1/1to2/1" from="1/1" to="2/1" priority="-1" type="netgen-default" function="normal">
      <lanes>
         <lane id="1/1to2/1_0" depart="1" vclasses="" maxspeed="13.90" length="122.73">194.56,107.78 107.78,194.56</lane>
      </lanes>
   </edge>

   <edge id="1/1to4/1" from="1/1" to="4/1" priority="-1" type="netgen-default" function="normal">
      <lanes>
         <lane id="1/1to4/1_0" depart="1" vclasses="" maxspeed="13.90" length="122.73">192.22,94.56 105.44,7.78</lane>
      </lanes>
   </edge>

   <edge id="1to1/1" from="1" to="1/1" priority="-1" type="netgen-default" function="normal">
      <lanes>
         <lane id="1to1/1_0" depart="1" vclasses="" maxspeed="13.90" length="85.90">104.75,98.35 190.65,98.35</lane>
      </lanes>
   </edge>

   <edge id="1to2/1" from="1" to="2/1" priority="-1" type="netgen-default" function="normal">
      <lanes>
         <lane id="1to2/1_0" depart="1" vclasses="" maxspeed="13.90" length="85.90">101.65,104.75 101.65,190.65</lane>
      </lanes>
   </edge>

   <edge id="1to3/1" from="1" to="3/1" priority="-1" type="netgen-default" function="normal">
      <lanes>
         <lane id="1to3/1_0" depart="1" vclasses="" maxspeed="13.90" length="85.90">95.25,101.65 9.35,101.65</lane>
      </lanes>
   </edge>

   <edge id="1to4/1" from="1" to="4/1" priority="-1" type="netgen-default" function="normal">
      <lanes>
         <lane id="1to4/1_0" depart="1" vclasses="" maxspeed="13.90" length="85.90">98.35,95.25 98.35,9.35</lane>
      </lanes>
   </edge>

   <edge id="2/1to1" from="2/1" to="1" priority="-1" type="netgen-default" function="normal">
      <lanes>
         <lane id="2/1to1_0" depart="1" vclasses="" maxspeed="13.90" length="85.90">98.35,190.65 98.35,104.75</lane>
      </lanes>
   </edge>

   <edge id="2/1to1/1" from="2/1" to="1/1" priority="-1" type="netgen-default" function="normal">
      <lanes>
         <lane id="2/1to1/1_0" depart="1" vclasses="" maxspeed="13.90" length="122.73">105.44,192.22 192.22,105.44</lane>
      </lanes>
   </edge>

   <edge id="2/1to3/1" from="2/1" to="3/1" priority="-1" type="netgen-default" function="normal">
      <lanes>
         <lane id="2/1to3/1_0" depart="1" vclasses="" maxspeed="13.90" length="122.73">92.22,194.56 5.44,107.78</lane>
      </lanes>
   </edge>

   <edge id="3/1to1" from="3/1" to="1" priority="-1" type="netgen-default" function="normal">
      <lanes>
         <lane id="3/1to1_0" depart="1" vclasses="" maxspeed="13.90" length="85.90">9.35,98.35 95.25,98.35</lane>
      </lanes>
   </edge>

   <edge id="3/1to2/1" from="3/1" to="2/1" priority="-1" type="netgen-default" function="normal">
      <lanes>
         <lane id="3/1to2/1_0" depart="1" vclasses="" maxspeed="13.90" length="122.73">7.78,105.44 94.56,192.22</lane>
      </lanes>
   </edge>

   <edge id="3/1to4/1" from="3/1" to="4/1" priority="-1" type="netgen-default" function="normal">
      <lanes>
         <lane id="3/1to4/1_0" depart="1" vclasses="" maxspeed="13.90" length="122.73">5.44,92.22 92.22,5.44</lane>
      </lanes>
   </edge>

   <edge id="4/1to1" from="4/1" to="1" priority="-1" type="netgen-default" function="normal">
      <lanes>
         <lane id="4/1to1_0" depart="1" vclasses="" maxspeed="13.90" length="85.90">101.65,9.35 101.65,95.25</lane>
      </lanes>
   </edge>

   <edge id="4/1to1/1" from="4/1" to="1/1" priority="-1" type="netgen-default" function="normal">
      <lanes>
         <lane id="4/1to1/1_0" depart="1" vclasses="" maxspeed="13.90" length="122.73">107.78,5.44 194.56,92.22</lane>
      </lanes>
   </edge>

   <edge id="4/1to3/1" from="4/1" to="3/1" priority="-1" type="netgen-default" function="normal">
      <lanes>
         <lane id="4/1to3/1_0" depart="1" vclasses="" maxspeed="13.90" length="122.73">94.56,7.78 7.78,94.56</lane>
      </lanes>
   </edge>


   <row-logic>
      <key>1/1</key>
      <requestsize>9</requestsize>
      <lanenumber>3</lanenumber>
      <logic>
         <logicitem request="0" response="000000000" foes="100010000" cont="0"/>
         <logicitem request="1" response="011000000" foes="011110000" cont="1"/>
         <logicitem request="2" response="010001000" foes="010001000" cont="1"/>
         <logicitem request="3" response="010000000" foes="010000100" cont="0"/>
         <logicitem request="4" response="010000011" foes="110000011" cont="1"/>
         <logicitem request="5" response="001000010" foes="001000010" cont="1"/>
         <logicitem request="6" response="000000000" foes="000100010" cont="0"/>
         <logicitem request="7" response="000000000" foes="000011110" cont="0"/>
         <logicitem request="8" response="000010001" foes="000010001" cont="1"/>
      </logic>
   </row-logic>

   <row-logic>
      <key>2/1</key>
      <requestsize>9</requestsize>
      <lanenumber>3</lanenumber>
      <logic>
         <logicitem request="0" response="000000000" foes="100010000" cont="0"/>
         <logicitem request="1" response="011000000" foes="011110000" cont="1"/>
         <logicitem request="2" response="010001000" foes="010001000" cont="1"/>
         <logicitem request="3" response="010000000" foes="010000100" cont="0"/>
         <logicitem request="4" response="010000011" foes="110000011" cont="1"/>
         <logicitem request="5" response="001000010" foes="001000010" cont="1"/>
         <logicitem request="6" response="000000000" foes="000100010" cont="0"/>
         <logicitem request="7" response="000000000" foes="000011110" cont="0"/>
         <logicitem request="8" response="000010001" foes="000010001" cont="1"/>
      </logic>
   </row-logic>

   <row-logic>
      <key>3/1</key>
      <requestsize>9</requestsize>
      <lanenumber>3</lanenumber>
      <logic>
         <logicitem request="0" response="000000000" foes="100010000" cont="0"/>
         <logicitem request="1" response="011000000" foes="011110000" cont="1"/>
         <logicitem request="2" response="010001000" foes="010001000" cont="1"/>
         <logicitem request="3" response="010000000" foes="010000100" cont="0"/>
         <logicitem request="4" response="010000011" foes="110000011" cont="1"/>
         <logicitem request="5" response="001000010" foes="001000010" cont="1"/>
         <logicitem request="6" response="000000000" foes="000100010" cont="0"/>
         <logicitem request="7" response="000000000" foes="000011110" cont="0"/>
         <logicitem request="8" response="000010001" foes="000010001" cont="1"/>
      </logic>
   </row-logic>

   <row-logic>
      <key>4/1</key>
      <requestsize>9</requestsize>
      <lanenumber>3</lanenumber>
      <logic>
         <logicitem request="0" response="000010000" foes="100010000" cont="0"/>
         <logicitem request="1" response="011010000" foes="011110000" cont="1"/>
         <logicitem request="2" response="010001000" foes="010001000" cont="1"/>
         <logicitem request="3" response="000000000" foes="010000100" cont="0"/>
         <logicitem request="4" response="000000000" foes="110000011" cont="0"/>
         <logicitem request="5" response="001000010" foes="001000010" cont="1"/>
         <logicitem request="6" response="000000000" foes="000100010" cont="0"/>
         <logicitem request="7" response="000011000" foes="000011110" cont="1"/>
         <logicitem request="8" response="000010001" foes="000010001" cont="1"/>
      </logic>
   </row-logic>


   <tl-logic type="static">
      <key>1/1</key>
      <subkey>0</subkey>
      <phaseno>6</phaseno>
      <offset>0</offset>
      <phase duration="31" phase="111000111" brake="100111110" yellow="000000000"/>
      <phase duration="4" phase="100000110" brake="111111111" yellow="011000001"/>
      <phase duration="6" phase="100000110" brake="011111001" yellow="000000000"/>
      <phase duration="4" phase="000000000" brake="111111111" yellow="100000110"/>
      <phase duration="31" phase="001111000" brake="110100111" yellow="000000000"/>
      <phase duration="4" phase="000000000" brake="111111111" yellow="001111000"/>
   </tl-logic>

   <tl-logic type="static">
      <key>2/1</key>
      <subkey>0</subkey>
      <phaseno>6</phaseno>
      <offset>0</offset>
      <phase duration="31" phase="111000111" brake="100111110" yellow="000000000"/>
      <phase duration="4" phase="100000110" brake="111111111" yellow="011000001"/>
      <phase duration="6" phase="100000110" brake="011111001" yellow="000000000"/>
      <phase duration="4" phase="000000000" brake="111111111" yellow="100000110"/>
      <phase duration="31" phase="001111000" brake="110100111" yellow="000000000"/>
      <phase duration="4" phase="000000000" brake="111111111" yellow="001111000"/>
   </tl-logic>

   <tl-logic type="static">
      <key>3/1</key>
      <subkey>0</subkey>
      <phaseno>6</phaseno>
      <offset>0</offset>
      <phase duration="31" phase="111000111" brake="100111110" yellow="000000000"/>
      <phase duration="4" phase="100000110" brake="111111111" yellow="011000001"/>
      <phase duration="6" phase="100000110" brake="011111001" yellow="000000000"/>
      <phase duration="4" phase="000000000" brake="111111111" yellow="100000110"/>
      <phase duration="31" phase="001111000" brake="110100111" yellow="000000000"/>
      <phase duration="4" phase="000000000" brake="111111111" yellow="001111000"/>
   </tl-logic>

   <tl-logic type="static">
      <key>4/1</key>
      <subkey>0</subkey>
      <phaseno>6</phaseno>
      <offset>0</offset>
      <phase duration="31" phase="111111000" brake="110100111" yellow="000000000"/>
      <phase duration="4" phase="110100000" brake="111111111" yellow="001011000"/>
      <phase duration="6" phase="110100000" brake="001011111" yellow="000000000"/>
      <phase duration="4" phase="000000000" brake="111111111" yellow="110100000"/>
      <phase duration="31" phase="000001111" brake="111110100" yellow="000000000"/>
      <phase duration="4" phase="000000000" brake="111111111" yellow="000001111"/>
   </tl-logic>


   <junction id="1" type="unregulated" x="100.00" y="100.00">
      <inclanes>2/1to1_0 1/1to1_0 4/1to1_0 3/1to1_0</inclanes>
      <intlanes>:1_0_0 :1_1_0 :1_2_0 :1_3_0 :1_4_0 :1_5_0 :1_6_0 :1_7_0 :1_8_0 :1_9_0 :1_10_0 :1_11_0 :1_12_0 :1_13_0 :1_14_0 :1_15_0</intlanes>
      <shape>96.75,104.75 103.25,104.75 104.75,103.25 104.75,96.75 103.25,95.25 96.75,95.25 95.25,96.75 95.25,103.25</shape>
   </junction>

   <junction id="1/1" type="priority" x="200.00" y="100.00">
      <inclanes>4/1to1/1_0 1to1/1_0 2/1to1/1_0</inclanes>
      <intlanes>:1/1_0_0 :1/1_9_0 :1/1_10_0 :1/1_3_0 :1/1_11_0 :1/1_12_0 :1/1_6_0 :1/1_7_0 :1/1_13_0</intlanes>
      <shape>195.69,91.09 191.09,95.69 190.65,96.75 190.65,103.25 191.09,104.31 195.69,108.91</shape>
   </junction>

   <junction id="2/1" type="priority" x="100.00" y="200.00">
      <inclanes>1/1to2/1_0 1to2/1_0 3/1to2/1_0</inclanes>
      <intlanes>:2/1_0_0 :2/1_9_0 :2/1_10_0 :2/1_3_0 :2/1_11_0 :2/1_12_0 :2/1_6_0 :2/1_7_0 :2/1_13_0</intlanes>
      <shape>108.91,195.69 104.31,191.09 103.25,190.65 96.75,190.65 95.69,191.09 91.09,195.69</shape>
   </junction>

   <junction id="3/1" type="priority" x="0.00" y="100.00">
      <inclanes>2/1to3/1_0 1to3/1_0 4/1to3/1_0</inclanes>
      <intlanes>:3/1_0_0 :3/1_9_0 :3/1_10_0 :3/1_3_0 :3/1_11_0 :3/1_12_0 :3/1_6_0 :3/1_7_0 :3/1_13_0</intlanes>
      <shape>4.31,108.91 8.91,104.31 9.35,103.25 9.35,96.75 8.91,95.69 4.31,91.09</shape>
   </junction>

   <junction id="4/1" type="priority" x="100.00" y="0.00">
      <inclanes>1to4/1_0 1/1to4/1_0 3/1to4/1_0</inclanes>
      <intlanes>:4/1_0_0 :4/1_9_0 :4/1_10_0 :4/1_3_0 :4/1_4_0 :4/1_11_0 :4/1_6_0 :4/1_12_0 :4/1_13_0</intlanes>
      <shape>96.75,9.35 103.25,9.35 104.31,8.91 108.91,4.31 91.09,4.31 95.69,8.91</shape>
   </junction>


   <junction id=":1/1_9_0" type="internal" x="194.65" y="101.20">
      <inclanes>:1/1_1_0 2/1to1/1_0</inclanes>
      <intlanes>:1/1_6_0 :1/1_7_0</intlanes>
      <shape></shape>
   </junction>

   <junction id=":1/1_10_0" type="internal" x="194.58" y="92.32">
      <inclanes>:1/1_2_0 2/1to1/1_0</inclanes>
      <intlanes>:1/1_7_0</intlanes>
      <shape></shape>
   </junction>

   <junction id=":1/1_11_0" type="internal" x="194.65" y="98.80">
      <inclanes>:1/1_4_0 4/1to1/1_0</inclanes>
      <intlanes>:1/1_0_0 :1/1_1_0</intlanes>
      <shape></shape>
   </junction>

   <junction id=":1/1_12_0" type="internal" x="190.74" y="98.41">
      <inclanes>:1/1_5_0 4/1to1/1_0</inclanes>
      <intlanes>:1/1_1_0</intlanes>
      <shape></shape>
   </junction>

   <junction id=":1/1_13_0" type="internal" x="192.32" y="105.42">
      <inclanes>:1/1_8_0 4/1to1/1_0</inclanes>
      <intlanes>:1/1_0_0</intlanes>
      <shape></shape>
   </junction>

   <junction id=":2/1_9_0" type="internal" x="98.80" y="194.65">
      <inclanes>:2/1_1_0 3/1to2/1_0</inclanes>
      <intlanes>:2/1_6_0 :2/1_7_0</intlanes>
      <shape></shape>
   </junction>

   <junction id=":2/1_10_0" type="internal" x="107.68" y="194.58">
      <inclanes>:2/1_2_0 3/1to2/1_0</inclanes>
      <intlanes>:2/1_7_0</intlanes>
      <shape></shape>
   </junction>

   <junction id=":2/1_11_0" type="internal" x="101.20" y="194.65">
      <inclanes>:2/1_4_0 3/1to2/1_0</inclanes>
      <intlanes>:2/1_7_0</intlanes>
      <shape></shape>
   </junction>

   <junction id=":2/1_12_0" type="internal" x="101.59" y="190.74">
      <inclanes>:2/1_5_0 3/1to2/1_0</inclanes>
      <intlanes>:2/1_6_0</intlanes>
      <shape></shape>
   </junction>

   <junction id=":2/1_13_0" type="internal" x="94.58" y="192.32">
      <inclanes>:2/1_8_0 1/1to2/1_0</inclanes>
      <intlanes>:2/1_0_0</intlanes>
      <shape></shape>
   </junction>

   <junction id=":3/1_9_0" type="internal" x="5.35" y="98.80">