<?xml version="1.0" encoding="UTF-8"?>

<!-- generated on 2021-07-01 16:40:52 by Eclipse SUMO netedit Version v1_9_2+0799-42b2810642a
<configuration xmlns:xsi="http://www.w3.org/2001/XMLSchema-instance" xsi:noNamespaceSchemaLocation="http://sumo.dlr.de/xsd/netconvertConfiguration.xsd">

    <input>
        <sumo-net-file value="/home/palcraft/.texttest/tmp/netedit.daily.shape.poi.01Jul153420.106180/netedit.daily.shape.poi/shapeElements/poi/load/imgfile/input_net.net.xml"/>
    </input>

    <output>
        <output-file value="/home/palcraft/.texttest/tmp/netedit.daily.shape.poi.01Jul153420.106180/netedit.daily.shape.poi/shapeElements/poi/load/imgfile/net.net.xml"/>
    </output>

    <processing>
        <geometry.min-radius.fix.railways value="false"/>
        <geometry.max-grade.fix value="false"/>
        <offset.disable-normalization value="true"/>
        <lefthand value="false"/>
    </processing>

    <junctions>
        <no-turnarounds value="true"/>
        <junctions.corner-detail value="5"/>
        <junctions.limit-turn-speed value="5.5"/>
        <rectangular-lane-cut value="false"/>
    </junctions>

    <pedestrian>
        <walkingareas value="false"/>
    </pedestrian>

    <netedit>
        <additional-files value="/home/palcraft/.texttest/tmp/netedit.daily.shape.poi.01Jul153420.106180/netedit.daily.shape.poi/shapeElements/poi/load/imgfile/additionals.xml"/>
        <additionals-output value="/home/palcraft/.texttest/tmp/netedit.daily.shape.poi.01Jul153420.106180/netedit.daily.shape.poi/shapeElements/poi/load/imgfile/additionals.xml"/>
        <route-files value="/home/palcraft/.texttest/tmp/netedit.daily.shape.poi.01Jul153420.106180/netedit.daily.shape.poi/shapeElements/poi/load/imgfile/routes.xml"/>
        <demandelements-output value="/home/palcraft/.texttest/tmp/netedit.daily.shape.poi.01Jul153420.106180/netedit.daily.shape.poi/shapeElements/poi/load/imgfile/routes.xml"/>
        <data-files value="/home/palcraft/.texttest/tmp/netedit.daily.shape.poi.01Jul153420.106180/netedit.daily.shape.poi/shapeElements/poi/load/imgfile/datas.xml"/>
        <dataelements-output value="/home/palcraft/.texttest/tmp/netedit.daily.shape.poi.01Jul153420.106180/netedit.daily.shape.poi/shapeElements/poi/load/imgfile/datas.xml"/>
    </netedit>

    <visualisation>
        <gui-settings-file value="/home/palcraft/.texttest/tmp/netedit.daily.shape.poi.01Jul153420.106180/netedit.daily.shape.poi/shapeElements/poi/load/imgfile/gui-settings.xml"/>
        <window-size value="936,697"/>
        <window-pos value="50,50"/>
        <gui-testing value="true"/>
        <gui-testing-debug value="true"/>
        <gui-testing-debug-gl value="true"/>
        <gui-testing.setting-output value="/home/palcraft/.texttest/tmp/netedit.daily.shape.poi.01Jul153420.106180/netedit.daily.shape.poi/shapeElements/poi/load/imgfile/guisettingsoutput.xml"/>
    </visualisation>

    <report>
        <no-warnings value="true"/>
        <aggregate-warnings value="5"/>
        <error-log value="/home/palcraft/.texttest/tmp/netedit.daily.shape.poi.01Jul153420.106180/netedit.daily.shape.poi/shapeElements/poi/load/imgfile/log.txt"/>
    </report>

</configuration>
-->

<additional xmlns:xsi="http://www.w3.org/2001/XMLSchema-instance" xsi:noNamespaceSchemaLocation="http://sumo.dlr.de/xsd/additional_file.xsd">
    <poi id="POI_1" color="white" layer="0.00" x="30.00" y="10.00" imgFile="paris.ico" width="5.00" height="5.00"/>
    <poi id="POI_2" color="white" layer="0.00" x="30.00" y="20.00" imgFile="berlin_icon.ico" width="5.00" height="5.00"/>
</additional>
