<?xml version="1.0"?>

<!-- generated on 11/05/09 14:44:00 by SUMO sumo Version dev-SVN-r7945
<configuration>

    <input>
        <net-file value="net.net.xml"/>
        <additional-files value="input_routes.rou.xml,input_additional.add.xml"/>
    </input>

    <time>
        <begin value="0"/>
        <end value="150"/>
    </time>

    <report>
        <no-duration-log value="true"/>
        <no-step-log value="true"/>
    </report>

</configuration>
-->

<netstats>
   <interval begin="0" end="60" id="dump_60">
      <edge id="1si" sampledSeconds="87.17" traveltime="75.36" density="6.13" occupancy="1.02" waitingTime="20.65" speed="3.15" departed="2" arrived="0" entered="0" left="2" laneChangedFrom="4" laneChangedTo="4"/>
      <edge id="4o" sampledSeconds="1.83" traveltime="283.14" density="0.06" occupancy="0.03" waitingTime="0.00" speed="1.73" departed="0" arrived="2" entered="2" left="0" laneChangedFrom="0" laneChangedTo="0"/>
   </interval>
   <interval begin="60" end="120" id="dump_60">
   </interval>
   <interval begin="120" end="150" id="dump_60">
   </interval>
</netstats>
