<?xml version="1.0"?>

<!-- generated on 12/16/08 09:50:20 by SUMO duarouter Version dev-SVN-r6410
<configuration>

   <input>
      <net-file>input_net.net.xml</net-file>
      <trip-defs>input_trips.trips.xml</trip-defs>
   </input>

   <output>
      <output-file>routes.rou.xml</output-file>
   </output>

</configuration>
-->

<routes>
   <vtype model="SUMO_KRAUSS" id="0" accel="2.60" decel="4.50" sigma="0.50" length="7.50" maxspeed="70.00" tau="1.00"/>
   <vehicle id="0" type="0" depart="0">
      <route edges="absBeg middle end absEnd"/>
   </vehicle>
</routes>
