<?xml version="1.0" encoding="UTF-8"?>

<!-- generated on 2022-01-19 12:57:10 by Eclipse SUMO netedit Version v1_11_0+1273-140530bb1dd
<configuration xmlns:xsi="http://www.w3.org/2001/XMLSchema-instance" xsi:noNamespaceSchemaLocation="http://sumo.dlr.de/xsd/netconvertConfiguration.xsd">

    <input>
        <sumo-net-file value="C:\Users\palva\.texttest\tmp\netedit.gui.19Jan120901.4288\netedit.gui\additionalElements\containerstop\volatileRecomputing\input_net.net.xml"/>
    </input>

    <output>
        <output-file value="C:\Users\palva\.texttest\tmp\netedit.gui.19Jan120901.4288\netedit.gui\additionalElements\containerstop\volatileRecomputing\net.net.xml"/>
    </output>

    <processing>
        <geometry.min-radius.fix.railways value="false"/>
        <geometry.max-grade.fix value="false"/>
        <offset.disable-normalization value="true"/>
        <lefthand value="false"/>
    </processing>

    <junctions>
        <no-turnarounds value="true"/>
        <junctions.corner-detail value="5"/>
        <junctions.limit-turn-speed value="5.5"/>
        <rectangular-lane-cut value="false"/>
    </junctions>

    <pedestrian>
        <sidewalks.guess value="true"/>
        <crossings.guess value="true"/>
        <walkingareas value="false"/>
    </pedestrian>

    <netedit>
        <additional-files value="C:\Users\palva\.texttest\tmp\netedit.gui.19Jan120901.4288\netedit.gui\additionalElements\containerstop\volatileRecomputing\additionals.xml"/>
        <additionals-output value="C:\Users\palva\.texttest\tmp\netedit.gui.19Jan120901.4288\netedit.gui\additionalElements\containerstop\volatileRecomputing\additionals.xml"/>
        <route-files value="C:\Users\palva\.texttest\tmp\netedit.gui.19Jan120901.4288\netedit.gui\additionalElements\containerstop\volatileRecomputing\routes.xml"/>
        <demandelements-output value="C:\Users\palva\.texttest\tmp\netedit.gui.19Jan120901.4288\netedit.gui\additionalElements\containerstop\volatileRecomputing\routes.xml"/>
        <data-files value="C:\Users\palva\.texttest\tmp\netedit.gui.19Jan120901.4288\netedit.gui\additionalElements\containerstop\volatileRecomputing\datas.xml"/>
        <dataelements-output value="C:\Users\palva\.texttest\tmp\netedit.gui.19Jan120901.4288\netedit.gui\additionalElements\containerstop\volatileRecomputing\datas.xml"/>
    </netedit>

    <visualisation>
        <gui-settings-file value="C:\Users\palva\.texttest\tmp\netedit.gui.19Jan120901.4288\netedit.gui\additionalElements\containerstop\volatileRecomputing\gui-settings.xml"/>
        <window-size value="936,697"/>
        <window-pos value="50,50"/>
        <gui-testing value="true"/>
        <gui-testing-debug value="true"/>
        <gui-testing-debug-gl value="true"/>
        <gui-testing.setting-output value="C:\Users\palva\.texttest\tmp\netedit.gui.19Jan120901.4288\netedit.gui\additionalElements\containerstop\volatileRecomputing\guisettingsoutput.xml"/>
    </visualisation>

    <report>
        <no-warnings value="true"/>
        <aggregate-warnings value="5"/>
        <error-log value="C:\Users\palva\.texttest\tmp\netedit.gui.19Jan120901.4288\netedit.gui\additionalElements\containerstop\volatileRecomputing\log.txt"/>
    </report>

</configuration>
-->

<additional xmlns:xsi="http://www.w3.org/2001/XMLSchema-instance" xsi:noNamespaceSchemaLocation="http://sumo.dlr.de/xsd/additional_file.xsd">
    <containerStop id="containerStop_gneE1_0_1" lane="gneE1_0" startPos="28.41" endPos="38.41"/>
    <containerStop id="containerStop_gneE2_0_7" lane="gneE2_0" startPos="16.48" endPos="26.48"/>
    <containerStop id="containerStop_gneE2_1_6" lane="gneE2_1" startPos="21.73" endPos="31.73"/>
    <containerStop id="containerStop_gneE2_2_5" lane="gneE2_2" startPos="23.79" endPos="33.79"/>
    <containerStop id="containerStop_gneE2_3_4" lane="gneE2_3" startPos="27.13" endPos="37.13"/>
    <containerStop id="containerStop_gneE2_4_3" lane="gneE2_4" startPos="31.03" endPos="41.03"/>
    <containerStop id="containerStop_gneE4_0_2" lane="gneE4_0" startPos="17.90" endPos="27.90"/>
    <containerStop id="ct_0" lane="gneE0_0" startPos="19.75" endPos="29.75"/>
</additional>
