<?xml version="1.0" encoding="UTF-8"?>

<!-- generated on Fri Nov 11 15:47:17 2011 by SUMO netconvert Version dev-SVN-r11490
<?xml version="1.0" encoding="iso-8859-1"?>

<configuration xmlns:xsi="http://www.w3.org/2001/XMLSchema-instance" xsi:noNamespaceSchemaLocation="http://sumo.dlr.de/xsd/netconvertConfiguration.xsd">

    <input>
        <sumo-net-file value="input_net.net.xml"/>
    </input>

    <output>
        <plain-output-prefix value="plain"/>
    </output>

    <projection>
        <proj.plain-geo value="true"/>
    </projection>

    <processing>
        <no-turnarounds value="true"/>
        <offset.disable-normalization value="true"/>
    </processing>

</configuration>
-->

<nodes version="0.13" xmlns:xsi="http://www.w3.org/2001/XMLSchema-instance" xsi:noNamespaceSchemaLocation="http://sumo.dlr.de/xsd/nodes_file.xsd">
    <node id="0" x="12.014694" y="48.121459" type="unregulated"/>
    <node id="1" x="12.061386" y="48.087529" type="unregulated"/>
</nodes>
