<?xml version="1.0"?>

<!-- generated on Fri Nov  9 17:03:27 2012 by SUMO sumo Version dev-SVN-r12945
<?xml version="1.0" encoding="UTF-8"?>

<configuration xmlns:xsi="http://www.w3.org/2001/XMLSchema-instance" xsi:noNamespaceSchemaLocation="http://sumo.sf.net/xsd/sumoConfiguration.xsd">

    <input>
        <net-file value="net.net.xml"/>
        <route-files value="input_routes.rou.xml"/>
        <additional-files value="input_additional.add.xml"/>
    </input>

    <time>
        <begin value="0"/>
        <end value="1000"/>
    </time>

    <report>
        <no-duration-log value="true"/>
        <no-step-log value="true"/>
    </report>

</configuration>
-->

<netstats>
    <interval begin="0.00" end="300.00" id="dump_300">
        <edge id="1fi">
            <lane id="1fi_0" sampledSeconds="708.19" traveltime="29.75" density="9.50" occupancy="2.85" waitingTime="0.00" speed="8.35" departed="19" arrived="0" entered="11" left="19" laneChangedFrom="0" laneChangedTo="0"/>
        </edge>
        <edge id="1o">
            <lane id="1o_0" sampledSeconds="508.04" traveltime="45.90" density="3.47" occupancy="1.04" waitingTime="0.00" speed="10.65" departed="0" arrived="0" entered="11" left="11" laneChangedFrom="0" laneChangedTo="0"/>
        </edge>
        <edge id="1si">
            <lane id="1si_0" sampledSeconds="0.00" departed="0" arrived="0" entered="0" left="0" laneChangedFrom="0" laneChangedTo="0"/>
            <lane id="1si_1" sampledSeconds="35.91" traveltime="17.73" density="0.50" occupancy="0.15" waitingTime="0.00" speed="13.38" departed="0" arrived="0" entered="2" left="2" laneChangedFrom="0" laneChangedTo="0"/>
            <lane id="1si_2" sampledSeconds="846.19" traveltime="53.37" density="11.89" occupancy="3.57" waitingTime="404.00" speed="4.44" departed="0" arrived="0" entered="17" left="8" laneChangedFrom="0" laneChangedTo="0"/>
        </edge>
        <edge id="2fi">
            <lane id="2fi_0" sampledSeconds="784.42" traveltime="30.05" density="10.52" occupancy="3.16" waitingTime="0.00" speed="8.27" departed="20" arrived="0" entered="9" left="24" laneChangedFrom="0" laneChangedTo="0"/>
        </edge>
        <edge id="2o">
            <lane id="2o_0" sampledSeconds="545.26" traveltime="48.65" density="3.72" occupancy="1.12" waitingTime="0.00" speed="10.04" departed="0" arrived="0" entered="17" left="9" laneChangedFrom="0" laneChangedTo="0"/>
        </edge>
        <edge id="2si">
            <lane id="2si_0" sampledSeconds="205.28" traveltime="31.66" density="2.89" occupancy="0.87" waitingTime="54.00" speed="7.49" departed="0" arrived="0" entered="7" left="0" laneChangedFrom="0" laneChangedTo="0"/>
            <lane id="2si_1" sampledSeconds="641.62" traveltime="40.31" density="9.02" occupancy="2.71" waitingTime="260.00" speed="5.88" departed="0" arrived="0" entered="17" left="11" laneChangedFrom="0" laneChangedTo="0"/>
            <lane id="2si_2" sampledSeconds="0.00" departed="0" arrived="0" entered="0" left="0" laneChangedFrom="0" laneChangedTo="0"/>
        </edge>
        <edge id="3fi">
            <lane id="3fi_0" sampledSeconds="1172.33" traveltime="32.10" density="15.73" occupancy="4.72" waitingTime="1.00" speed="7.74" departed="40" arrived="0" entered="0" left="34" laneChangedFrom="0" laneChangedTo="0"/>
        </edge>
        <edge id="3o">
            <lane id="3o_0" sampledSeconds="91.41" traveltime="44.70" density="0.62" occupancy="0.19" waitingTime="0.00" speed="10.93" departed="0" arrived="0" entered="6" left="0" laneChangedFrom="0" laneChangedTo="0"/>
        </edge>
        <edge id="3si">
            <lane id="3si_0" sampledSeconds="610.56" traveltime="36.85" density="8.58" occupancy="2.57" waitingTime="199.00" speed="6.44" departed="0" arrived="0" entered="17" left="16" laneChangedFrom="0" laneChangedTo="0"/>
            <lane id="3si_1" sampledSeconds="626.50" traveltime="38.87" density="8.81" occupancy="2.64" waitingTime="219.00" speed="6.10" departed="0" arrived="0" entered="17" left="15" laneChangedFrom="0" laneChangedTo="0"/>
            <lane id="3si_2" sampledSeconds="0.00" departed="0" arrived="0" entered="0" left="0" laneChangedFrom="0" laneChangedTo="0"/>
        </edge>
        <edge id="4fi">
            <lane id="4fi_0" sampledSeconds="207.36" traveltime="22.77" density="2.78" occupancy="0.83" waitingTime="0.00" speed="10.92" departed="0" arrived="0" entered="9" left="9" laneChangedFrom="0" laneChangedTo="0"/>
        </edge>
        <edge id="4o">
            <lane id="4o_0" sampledSeconds="701.02" traveltime="47.08" density="4.78" occupancy="1.43" waitingTime="0.00" speed="10.38" departed="0" arrived="0" entered="23" left="9" laneChangedFrom="0" laneChangedTo="0"/>
        </edge>
        <edge id="4si">
            <lane id="4si_0" sampledSeconds="0.00" departed="0" arrived="0" entered="0" left="0" laneChangedFrom="0" laneChangedTo="0"/>
            <lane id="4si_1" sampledSeconds="107.86" traveltime="17.75" density="1.52" occupancy="0.45" waitingTime="0.00" speed="13.36" departed="0" arrived="0" entered="6" left="6" laneChangedFrom="0" laneChangedTo="0"/>
            <lane id="4si_2" sampledSeconds="174.10" traveltime="58.05" density="2.45" occupancy="0.73" waitingTime="92.00" speed="4.09" departed="0" arrived="0" entered="3" left="2" laneChangedFrom="0" laneChangedTo="0"/>
        </edge>
    </interval>
    <interval begin="300.00" end="600.00" id="dump_300">
        <edge id="1fi">
            <lane id="1fi_0" sampledSeconds="1818.53" traveltime="27.19" density="24.39" occupancy="7.32" waitingTime="0.00" speed="9.14" departed="31" arrived="0" entered="33" left="69" laneChangedFrom="0" laneChangedTo="0"/>
        </edge>
        <edge id="1o">
            <lane id="1o_0" sampledSeconds="1926.64" traveltime="46.99" density="13.14" occupancy="3.94" waitingTime="0.00" speed="10.40" departed="0" arrived="0" entered="46" left="34" laneChangedFrom="0" laneChangedTo="0"/>
        </edge>
        <edge id="1si">
            <lane id="1si_0" sampledSeconds="398.21" traveltime="57.39" density="5.60" occupancy="1.68" waitingTime="182.00" speed="4.13" departed="0" arrived="0" entered="7" left="5" laneChangedFrom="0" laneChangedTo="0"/>
            <lane id="1si_1" sampledSeconds="585.48" traveltime="18.13" density="8.23" occupancy="2.47" waitingTime="0.00" speed="13.08" departed="0" arrived="0" entered="33" left="29" laneChangedFrom="0" laneChangedTo="0"/>
            <lane id="1si_2" sampledSeconds="4481.26" traveltime="177.99" density="62.99" occupancy="18.90" waitingTime="2821.00" speed="1.33" departed="0" arrived="0" entered="29" left="18" laneChangedFrom="0" laneChangedTo="0"/>
        </edge>
        <edge id="2fi">
            <lane id="2fi_0" sampledSeconds="2549.19" traveltime="27.48" density="34.19" occupancy="10.26" waitingTime="1.00" speed="9.04" departed="30" arrived="27" entered="63" left="65" laneChangedFrom="0" laneChangedTo="0"/>
        </edge>
        <edge id="2o">
            <lane id="2o_0" sampledSeconds="3361.30" traveltime="47.91" density="22.93" occupancy="6.88" waitingTime="0.00" speed="10.20" departed="0" arrived="0" entered="71" left="63" laneChangedFrom="0" laneChangedTo="0"/>
        </edge>
        <edge id="2si">
            <lane id="2si_0" sampledSeconds="1566.98" traveltime="63.64" density="22.03" occupancy="6.61" waitingTime="755.00" speed="3.73" departed="0" arrived="0" entered="24" left="28" laneChangedFrom="0" laneChangedTo="0"/>
            <lane id="2si_1" sampledSeconds="1711.67" traveltime="57.41" density="24.06" occupancy="7.22" waitingTime="835.00" speed="4.13" departed="0" arrived="0" entered="29" left="29" laneChangedFrom="0" laneChangedTo="0"/>
            <lane id="2si_2" sampledSeconds="393.00" traveltime="32.58" density="5.52" occupancy="1.66" waitingTime="79.00" speed="7.28" departed="0" arrived="0" entered="12" left="10" laneChangedFrom="0" laneChangedTo="0"/>
        </edge>
        <edge id="3fi">
            <lane id="3fi_0" sampledSeconds="2392.60" traveltime="29.52" density="32.09" occupancy="9.63" waitingTime="4.00" speed="8.42" departed="50" arrived="22" entered="32" left="57" laneChangedFrom="0" laneChangedTo="0"/>
        </edge>
        <edge id="3o">
            <lane id="3o_0" sampledSeconds="1723.47" traveltime="46.98" density="11.76" occupancy="3.53" waitingTime="0.00" speed="10.40" departed="0" arrived="0" entered="37" left="33" laneChangedFrom="0" laneChangedTo="0"/>
        </edge>
        <edge id="3si">
            <lane id="3si_0" sampledSeconds="1322.41" traveltime="50.14" density="18.59" occupancy="5.58" waitingTime="591.00" speed="4.73" departed="0" arrived="0" entered="27" left="23" laneChangedFrom="0" laneChangedTo="0"/>
            <lane id="3si_1" sampledSeconds="1391.40" traveltime="52.84" density="19.56" occupancy="5.87" waitingTime="646.00" speed="4.49" departed="0" arrived="0" entered="26" left="23" laneChangedFrom="0" laneChangedTo="0"/>
            <lane id="3si_2" sampledSeconds="194.90" traveltime="48.44" density="2.74" occupancy="0.82" waitingTime="83.00" speed="4.90" departed="0" arrived="0" entered="4" left="3" laneChangedFrom="0" laneChangedTo="0"/>
        </edge>
        <edge id="4fi">
            <lane id="4fi_0" sampledSeconds="1576.63" traveltime="22.78" density="21.15" occupancy="6.34" waitingTime="0.00" speed="10.91" departed="0" arrived="0" entered="72" left="65" laneChangedFrom="0" laneChangedTo="0"/>
        </edge>
        <edge id="4o">
            <lane id="4o_0" sampledSeconds="3287.03" traveltime="46.66" density="22.42" occupancy="6.73" waitingTime="0.00" speed="10.47" departed="0" arrived="0" entered="66" left="72" laneChangedFrom="0" laneChangedTo="0"/>
        </edge>
        <edge id="4si">
            <lane id="4si_0" sampledSeconds="1146.79" traveltime="50.99" density="16.12" occupancy="4.84" waitingTime="521.00" speed="4.65" departed="0" arrived="0" entered="23" left="16" laneChangedFrom="0" laneChangedTo="0"/>
            <lane id="4si_1" sampledSeconds="449.76" traveltime="17.77" density="6.32" occupancy="1.90" waitingTime="0.00" speed="13.35" departed="0" arrived="0" entered="25" left="25" laneChangedFrom="0" laneChangedTo="0"/>
            <lane id="4si_2" sampledSeconds="977.89" traveltime="60.13" density="13.74" occupancy="4.12" waitingTime="392.00" speed="3.94" departed="0" arrived="0" entered="17" left="17" laneChangedFrom="0" laneChangedTo="0"/>
        </edge>
    </interval>
    <interval begin="600.00" end="900.00" id="dump_300">
        <edge id="1fi">
            <lane id="1fi_0" sampledSeconds="2753.12" traveltime="27.18" density="36.93" occupancy="11.08" waitingTime="1.00" speed="9.14" departed="28" arrived="12" entered="74" left="87" laneChangedFrom="0" laneChangedTo="0"/>
        </edge>
        <edge id="1o">
            <lane id="1o_0" sampledSeconds="3471.03" traveltime="48.15" density="23.68" occupancy="7.10" waitingTime="0.00" speed="10.15" departed="0" arrived="0" entered="71" left="73" laneChangedFrom="0" laneChangedTo="0"/>
        </edge>
        <edge id="1si">
            <lane id="1si_0" sampledSeconds="1406.37" traveltime="56.47" density="19.77" occupancy="5.93" waitingTime="632.00" speed="4.20" departed="0" arrived="0" entered="27" left="26" laneChangedFrom="0" laneChangedTo="0"/>
            <lane id="1si_1" sampledSeconds="522.41" traveltime="17.73" density="7.34" occupancy="2.20" waitingTime="0.00" speed="13.38" departed="0" arrived="0" entered="28" left="32" laneChangedFrom="0" laneChangedTo="0"/>
            <lane id="1si_2" sampledSeconds="8706.96" traveltime="433.47" density="122.38" occupancy="36.71" waitingTime="5598.00" speed="0.55" departed="0" arrived="0" entered="31" left="14" laneChangedFrom="0" laneChangedTo="0"/>
        </edge>
        <edge id="2fi">
            <lane id="2fi_0" sampledSeconds="2653.55" traveltime="27.41" density="35.59" occupancy="10.68" waitingTime="1.00" speed="9.07" departed="30" arrived="25" entered="67" left="71" laneChangedFrom="0" laneChangedTo="0"/>
        </edge>
        <edge id="2o">
            <lane id="2o_0" sampledSeconds="3111.40" traveltime="47.57" density="21.22" occupancy="6.37" waitingTime="0.00" speed="10.27" departed="0" arrived="0" entered="63" left="67" laneChangedFrom="0" laneChangedTo="0"/>
        </edge>
        <edge id="2si">
            <lane id="2si_0" sampledSeconds="1156.90" traveltime="54.64" density="16.26" occupancy="4.88" waitingTime="525.00" speed="4.34" departed="0" arrived="0" entered="24" left="23" laneChangedFrom="0" laneChangedTo="0"/>
            <lane id="2si_1" sampledSeconds="1705.57" traveltime="54.11" density="23.97" occupancy="7.19" waitingTime="781.00" speed="4.38" departed="0" arrived="0" entered="31" left="33" laneChangedFrom="0" laneChangedTo="0"/>
            <lane id="2si_2" sampledSeconds="1497.65" traveltime="93.09" density="21.05" occupancy="6.32" waitingTime="822.00" speed="2.55" departed="0" arrived="0" entered="16" left="14" laneChangedFrom="0" laneChangedTo="0"/>
        </edge>
        <edge id="3fi">
            <lane id="3fi_0" sampledSeconds="2752.82" traveltime="27.91" density="36.93" occupancy="11.08" waitingTime="0.00" speed="8.90" departed="37" arrived="49" entered="61" left="51" laneChangedFrom="0" laneChangedTo="0"/>
        </edge>
        <edge id="3o">
            <lane id="3o_0" sampledSeconds="2886.09" traveltime="48.18" density="19.69" occupancy="5.91" waitingTime="0.00" speed="10.14" departed="0" arrived="0" entered="61" left="60" laneChangedFrom="0" laneChangedTo="0"/>
        </edge>
        <edge id="3si">
            <lane id="3si_0" sampledSeconds="1054.76" traveltime="59.24" density="14.83" occupancy="4.45" waitingTime="594.00" speed="4.00" departed="0" arrived="0" entered="17" left="16" laneChangedFrom="0" laneChangedTo="0"/>
            <lane id="3si_1" sampledSeconds="1070.88" traveltime="59.52" density="15.05" occupancy="4.52" waitingTime="578.00" speed="3.98" departed="0" arrived="0" entered="17" left="17" laneChangedFrom="0" laneChangedTo="0"/>
            <lane id="3si_2" sampledSeconds="703.09" traveltime="42.18" density="9.88" occupancy="2.96" waitingTime="216.00" speed="5.62" departed="0" arrived="0" entered="17" left="13" laneChangedFrom="0" laneChangedTo="0"/>
        </edge>
        <edge id="4fi">
            <lane id="4fi_0" sampledSeconds="1351.09" traveltime="22.77" density="18.12" occupancy="5.44" waitingTime="0.00" speed="10.91" departed="0" arrived="0" entered="55" left="62" laneChangedFrom="0" laneChangedTo="0"/>
        </edge>
        <edge id="4o">
            <lane id="4o_0" sampledSeconds="2621.52" traveltime="47.16" density="17.88" occupancy="5.36" waitingTime="0.00" speed="10.36" departed="0" arrived="0" entered="56" left="55" laneChangedFrom="0" laneChangedTo="0"/>
        </edge>
        <edge id="4si">
            <lane id="4si_0" sampledSeconds="1599.11" traveltime="70.64" density="22.48" occupancy="6.74" waitingTime="900.00" speed="3.36" departed="0" arrived="0" entered="22" left="23" laneChangedFrom="0" laneChangedTo="0"/>
            <lane id="4si_1" sampledSeconds="420.49" traveltime="20.54" density="5.91" occupancy="1.77" waitingTime="53.00" speed="11.55" departed="0" arrived="0" entered="24" left="18" laneChangedFrom="0" laneChangedTo="0"/>
            <lane id="4si_2" sampledSeconds="757.19" traveltime="44.37" density="10.64" occupancy="3.19" waitingTime="208.00" speed="5.34" departed="0" arrived="0" entered="16" left="14" laneChangedFrom="0" laneChangedTo="0"/>
        </edge>
    </interval>
    <interval begin="900.00" end="1000.00" id="dump_300">
        <edge id="1fi">
            <lane id="1fi_0" sampledSeconds="956.98" traveltime="27.45" density="38.51" occupancy="11.55" waitingTime="0.00" speed="9.05" departed="12" arrived="4" entered="21" left="29" laneChangedFrom="0" laneChangedTo="0"/>
        </edge>
        <edge id="1o">
            <lane id="1o_0" sampledSeconds="1053.59" traveltime="47.03" density="21.56" occupancy="6.47" waitingTime="0.00" speed="10.39" departed="0" arrived="0" entered="21" left="21" laneChangedFrom="0" laneChangedTo="0"/>
        </edge>
        <edge id="1si">
            <lane id="1si_0" sampledSeconds="509.08" traveltime="44.54" density="21.47" occupancy="6.44" waitingTime="198.00" speed="5.32" departed="0" arrived="0" entered="11" left="8" laneChangedFrom="0" laneChangedTo="0"/>
            <lane id="1si_1" sampledSeconds="179.94" traveltime="17.77" density="7.59" occupancy="2.28" waitingTime="0.00" speed="13.35" departed="0" arrived="0" entered="10" left="10" laneChangedFrom="0" laneChangedTo="0"/>
            <lane id="1si_2" sampledSeconds="3923.66" traveltime="672.71" density="165.45" occupancy="49.64" waitingTime="2359.00" speed="0.35" departed="0" arrived="0" entered="9" left="6" laneChangedFrom="0" laneChangedTo="0"/>
        </edge>
        <edge id="2fi">
            <lane id="2fi_0" sampledSeconds="873.40" traveltime="27.14" density="35.15" occupancy="10.54" waitingTime="0.00" speed="9.16" departed="10" arrived="11" entered="21" left="20" laneChangedFrom="0" laneChangedTo="0"/>
        </edge>
        <edge id="2o">
            <lane id="2o_0" sampledSeconds="1024.44" traveltime="46.95" density="20.96" occupancy="6.29" waitingTime="0.00" speed="10.41" departed="0" arrived="0" entered="21" left="21" laneChangedFrom="0" laneChangedTo="0"/>
        </edge>
        <edge id="2si">
            <lane id="2si_0" sampledSeconds="270.66" traveltime="40.57" density="11.41" occupancy="3.42" waitingTime="110.00" speed="5.85" departed="0" arrived="0" entered="6" left="4" laneChangedFrom="0" laneChangedTo="0"/>
            <lane id="2si_1" sampledSeconds="523.61" traveltime="55.06" density="22.08" occupancy="6.62" waitingTime="256.00" speed="4.31" departed="0" arrived="0" entered="9" left="8" laneChangedFrom="0" laneChangedTo="0"/>
            <lane id="2si_2" sampledSeconds="685.69" traveltime="137.74" density="28.91" occupancy="8.67" waitingTime="439.00" speed="1.72" departed="0" arrived="0" entered="5" left="4" laneChangedFrom="0" laneChangedTo="0"/>
        </edge>
        <edge id="3fi">
            <lane id="3fi_0" sampledSeconds="864.99" traveltime="28.02" density="34.81" occupancy="10.44" waitingTime="0.00" speed="8.87" departed="13" arrived="15" entered="17" left="16" laneChangedFrom="0" laneChangedTo="0"/>
        </edge>
        <edge id="3o">
            <lane id="3o_0" sampledSeconds="965.78" traveltime="48.16" density="19.76" occupancy="5.93" waitingTime="0.00" speed="10.15" departed="0" arrived="0" entered="19" left="18" laneChangedFrom="0" laneChangedTo="0"/>
        </edge>
        <edge id="3si">
            <lane id="3si_0" sampledSeconds="378.70" traveltime="55.11" density="15.97" occupancy="4.79" waitingTime="178.00" speed="4.30" departed="0" arrived="0" entered="6" left="9" laneChangedFrom="0" laneChangedTo="0"/>
            <lane id="3si_1" sampledSeconds="362.17" traveltime="51.20" density="15.27" occupancy="4.58" waitingTime="158.00" speed="4.63" departed="0" arrived="0" entered="7" left="9" laneChangedFrom="0" laneChangedTo="0"/>
            <lane id="3si_2" sampledSeconds="190.07" traveltime="53.22" density="8.01" occupancy="2.40" waitingTime="53.00" speed="4.46" departed="0" arrived="0" entered="3" left="7" laneChangedFrom="0" laneChangedTo="0"/>
        </edge>
        <edge id="4fi">
            <lane id="4fi_0" sampledSeconds="369.11" traveltime="22.79" density="14.85" occupancy="4.46" waitingTime="0.00" speed="10.90" departed="0" arrived="0" entered="16" left="16" laneChangedFrom="0" laneChangedTo="0"/>
        </edge>
        <edge id="4o">
            <lane id="4o_0" sampledSeconds="840.81" traveltime="47.02" density="17.21" occupancy="5.16" waitingTime="0.00" speed="10.39" departed="0" arrived="0" entered="18" left="17" laneChangedFrom="0" laneChangedTo="0"/>
        </edge>
        <edge id="4si">
            <lane id="4si_0" sampledSeconds="419.81" traveltime="66.73" density="17.70" occupancy="5.31" waitingTime="203.00" speed="3.55" departed="0" arrived="0" entered="6" left="9" laneChangedFrom="0" laneChangedTo="0"/>
            <lane id="4si_1" sampledSeconds="151.56" traveltime="18.48" density="6.39" occupancy="1.92" waitingTime="1.00" speed="12.83" departed="0" arrived="0" entered="6" left="8" laneChangedFrom="0" laneChangedTo="0"/>
            <lane id="4si_2" sampledSeconds="184.31" traveltime="45.09" density="7.77" occupancy="2.33" waitingTime="42.00" speed="5.26" departed="0" arrived="0" entered="4" left="5" laneChangedFrom="0" laneChangedTo="0"/>
        </edge>
    </interval>
</netstats>
