<?xml version="1.0"?>

<!-- generated on 11/11/09 15:30:59 by SUMO sumo Version dev-SVN-r7969
<configuration>

    <input>
        <net-file value="net.net.xml"/>
        <route-files value="input_routes.rou.xml"/>
        <additional-files value="input_additional.add.xml"/>
    </input>

    <time>
        <begin value="0"/>
        <end value="1000"/>
    </time>

    <report>
        <no-duration-log value="true"/>
        <no-step-log value="true"/>
    </report>

</configuration>
-->

<netstats>
   <interval begin="0" end="900" id="dump_900">
      <edge id="1fi">
         <lane id="1fi_0" sampledSeconds="5115.41" traveltime="28.36" density="22.87" occupancy="11.44" waitingTime="0.18" speed="8.76" departed="79" arrived="17" entered="121" left="176" laneChangedFrom="0" laneChangedTo="0"/>
      </edge>
      <edge id="1o">
         <lane id="1o_0" sampledSeconds="6208.95" traveltime="48.40" density="14.12" occupancy="7.06" waitingTime="0.00" speed="10.10" departed="0" arrived="0" entered="132" left="122" laneChangedFrom="0" laneChangedTo="0"/>
      </edge>
      <edge id="1si">
         <lane id="1si_0" sampledSeconds="1744.12" traveltime="53.37" density="8.17" occupancy="4.09" waitingTime="403.01" speed="4.44" departed="0" arrived="0" entered="36" left="32" laneChangedFrom="0" laneChangedTo="0"/>
         <lane id="1si_1" sampledSeconds="1215.65" traveltime="19.00" density="5.70" occupancy="2.85" waitingTime="10.36" speed="12.48" departed="0" arrived="0" entered="64" left="62" laneChangedFrom="0" laneChangedTo="0"/>
         <lane id="1si_2" sampledSeconds="10060.30" traveltime="145.79" density="47.14" occupancy="23.57" waitingTime="548.21" speed="1.63" departed="0" arrived="0" entered="76" left="54" laneChangedFrom="0" laneChangedTo="0"/>
      </edge>
      <edge id="2fi">
         <lane id="2fi_0" sampledSeconds="5094.57" traveltime="29.43" density="22.78" occupancy="11.39" waitingTime="0.35" speed="8.44" departed="79" arrived="53" entered="153" left="169" laneChangedFrom="0" laneChangedTo="0"/>
      </edge>
      <edge id="2o">
         <lane id="2o_0" sampledSeconds="7615.17" traveltime="48.41" density="17.32" occupancy="8.66" waitingTime="0.00" speed="10.09" departed="0" arrived="0" entered="162" left="153" laneChangedFrom="0" laneChangedTo="0"/>
      </edge>
      <edge id="2si">
         <lane id="2si_0" sampledSeconds="2778.22" traveltime="52.90" density="13.02" occupancy="6.51" waitingTime="407.20" speed="4.48" departed="0" arrived="0" entered="55" left="52" laneChangedFrom="0" laneChangedTo="0"/>
         <lane id="2si_1" sampledSeconds="3662.65" traveltime="48.05" density="17.16" occupancy="8.58" waitingTime="418.96" speed="4.94" departed="0" arrived="0" entered="77" left="73" laneChangedFrom="0" laneChangedTo="0"/>
         <lane id="2si_2" sampledSeconds="2589.37" traveltime="74.72" density="12.13" occupancy="6.07" waitingTime="466.79" speed="3.17" departed="0" arrived="0" entered="36" left="26" laneChangedFrom="0" laneChangedTo="0"/>
      </edge>
      <edge id="3fi">
         <lane id="3fi_0" sampledSeconds="4823.49" traveltime="31.55" density="21.57" occupancy="10.78" waitingTime="0.75" speed="7.88" departed="134" arrived="75" entered="97" left="150" laneChangedFrom="0" laneChangedTo="0"/>
      </edge>
      <edge id="3o">
         <lane id="3o_0" sampledSeconds="4918.76" traveltime="47.90" density="11.18" occupancy="5.59" waitingTime="0.00" speed="10.20" departed="0" arrived="0" entered="109" left="97" laneChangedFrom="0" laneChangedTo="0"/>
      </edge>
      <edge id="3si">
         <lane id="3si_0" sampledSeconds="3016.75" traveltime="47.42" density="14.13" occupancy="7.07" waitingTime="415.28" speed="5.00" departed="0" arrived="0" entered="64" left="58" laneChangedFrom="0" laneChangedTo="0"/>
         <lane id="3si_1" sampledSeconds="2971.07" traveltime="47.32" density="13.92" occupancy="6.96" waitingTime="421.67" speed="5.01" departed="0" arrived="0" entered="64" left="57" laneChangedFrom="0" laneChangedTo="0"/>
         <lane id="3si_2" sampledSeconds="695.08" traveltime="33.48" density="3.26" occupancy="1.63" waitingTime="201.99" speed="7.08" departed="0" arrived="0" entered="22" left="19" laneChangedFrom="0" laneChangedTo="0"/>
      </edge>
      <edge id="4fi">
         <lane id="4fi_0" sampledSeconds="3496.75" traveltime="23.17" density="15.63" occupancy="7.82" waitingTime="0.00" speed="10.73" departed="0" arrived="0" entered="151" left="150" laneChangedFrom="0" laneChangedTo="0"/>
      </edge>
      <edge id="4o">
         <lane id="4o_0" sampledSeconds="7407.13" traveltime="47.73" density="16.84" occupancy="8.42" waitingTime="0.00" speed="10.24" departed="0" arrived="0" entered="162" left="151" laneChangedFrom="0" laneChangedTo="0"/>
      </edge>
      <edge id="4si">
         <lane id="4si_0" sampledSeconds="2744.28" traveltime="58.95" density="12.86" occupancy="6.43" waitingTime="473.24" speed="4.02" departed="0" arrived="0" entered="47" left="40" laneChangedFrom="0" laneChangedTo="0"/>
         <lane id="4si_1" sampledSeconds="950.16" traveltime="18.00" density="4.45" occupancy="2.23" waitingTime="0.00" speed="13.18" departed="0" arrived="0" entered="56" left="52" laneChangedFrom="0" laneChangedTo="0"/>
         <lane id="4si_2" sampledSeconds="1979.97" traveltime="42.32" density="9.28" occupancy="4.64" waitingTime="248.64" speed="5.60" departed="0" arrived="0" entered="47" left="42" laneChangedFrom="0" laneChangedTo="0"/>
      </edge>
   </interval>
   <interval begin="900" end="1000" id="dump_900">
      <edge id="1fi">
         <lane id="1fi_0" sampledSeconds="805.39" traveltime="29.05" density="32.41" occupancy="16.20" waitingTime="0.00" speed="8.55" departed="11" arrived="5" entered="21" left="29" laneChangedFrom="0" laneChangedTo="0"/>
      </edge>
      <edge id="1o">
         <lane id="1o_0" sampledSeconds="1014.46" traveltime="49.33" density="20.76" occupancy="10.38" waitingTime="0.00" speed="9.91" departed="0" arrived="0" entered="21" left="20" laneChangedFrom="0" laneChangedTo="0"/>
      </edge>
      <edge id="1si">
         <lane id="1si_0" sampledSeconds="471.84" traveltime="50.40" density="19.90" occupancy="9.95" waitingTime="42.17" speed="4.71" departed="0" arrived="0" entered="9" left="8" laneChangedFrom="0" laneChangedTo="0"/>
         <lane id="1si_1" sampledSeconds="272.39" traveltime="30.19" density="11.49" occupancy="5.74" waitingTime="34.88" speed="7.85" departed="0" arrived="0" entered="9" left="11" laneChangedFrom="0" laneChangedTo="0"/>
         <lane id="1si_2" sampledSeconds="2534.01" traveltime="279.34" density="106.85" occupancy="53.43" waitingTime="59.87" speed="0.85" departed="0" arrived="0" entered="11" left="6" laneChangedFrom="0" laneChangedTo="0"/>
      </edge>
      <edge id="2fi">
         <lane id="2fi_0" sampledSeconds="695.47" traveltime="29.22" density="27.99" occupancy="13.99" waitingTime="0.00" speed="8.50" departed="11" arrived="9" entered="21" left="24" laneChangedFrom="0" laneChangedTo="0"/>
      </edge>
      <edge id="2o">
         <lane id="2o_0" sampledSeconds="1178.43" traveltime="47.75" density="24.12" occupancy="12.06" waitingTime="0.00" speed="10.23" departed="0" arrived="0" entered="25" left="21" laneChangedFrom="0" laneChangedTo="0"/>
      </edge>
      <edge id="2si">
         <lane id="2si_0" sampledSeconds="362.14" traveltime="45.50" density="15.27" occupancy="7.64" waitingTime="41.97" speed="5.21" departed="0" arrived="0" entered="10" left="6" laneChangedFrom="0" laneChangedTo="0"/>
         <lane id="2si_1" sampledSeconds="514.97" traveltime="53.77" density="21.71" occupancy="10.86" waitingTime="47.96" speed="4.41" departed="0" arrived="0" entered="9" left="9" laneChangedFrom="0" laneChangedTo="0"/>
         <lane id="2si_2" sampledSeconds="1351.73" traveltime="239.55" density="57.00" occupancy="28.50" waitingTime="67.03" speed="0.99" departed="0" arrived="0" entered="6" left="3" laneChangedFrom="0" laneChangedTo="0"/>
      </edge>
      <edge id="3fi">
         <lane id="3fi_0" sampledSeconds="590.05" traveltime="31.04" density="23.74" occupancy="11.87" waitingTime="0.00" speed="8.01" departed="15" arrived="14" entered="18" left="18" laneChangedFrom="0" laneChangedTo="0"/>
      </edge>
      <edge id="3o">
         <lane id="3o_0" sampledSeconds="943.68" traveltime="48.05" density="19.31" occupancy="9.66" waitingTime="0.00" speed="10.17" departed="0" arrived="0" entered="17" left="18" laneChangedFrom="0" laneChangedTo="0"/>
      </edge>
      <edge id="3si">
         <lane id="3si_0" sampledSeconds="364.93" traveltime="51.28" density="15.39" occupancy="7.69" waitingTime="44.94" speed="4.62" departed="0" arrived="0" entered="7" left="10" laneChangedFrom="0" laneChangedTo="0"/>
         <lane id="3si_1" sampledSeconds="375.43" traveltime="49.59" density="15.83" occupancy="7.92" waitingTime="43.95" speed="4.78" departed="0" arrived="0" entered="7" left="11" laneChangedFrom="0" laneChangedTo="0"/>
         <lane id="3si_2" sampledSeconds="111.34" traveltime="21.31" density="4.69" occupancy="2.35" waitingTime="0.00" speed="11.13" departed="0" arrived="0" entered="4" left="6" laneChangedFrom="0" laneChangedTo="0"/>
      </edge>
      <edge id="4fi">
         <lane id="4fi_0" sampledSeconds="461.44" traveltime="22.99" density="18.57" occupancy="9.28" waitingTime="0.00" speed="10.81" departed="0" arrived="0" entered="20" left="21" laneChangedFrom="0" laneChangedTo="0"/>
      </edge>
      <edge id="4o">
         <lane id="4o_0" sampledSeconds="1078.60" traveltime="47.42" density="22.07" occupancy="11.04" waitingTime="0.00" speed="10.30" departed="0" arrived="0" entered="22" left="20" laneChangedFrom="0" laneChangedTo="0"/>
      </edge>
      <edge id="4si">
         <lane id="4si_0" sampledSeconds="379.80" traveltime="70.52" density="16.02" occupancy="8.01" waitingTime="49.50" speed="3.36" departed="0" arrived="0" entered="5" left="10" laneChangedFrom="0" laneChangedTo="0"/>
         <lane id="4si_1" sampledSeconds="149.70" traveltime="17.85" density="6.31" occupancy="3.16" waitingTime="0.00" speed="13.28" departed="0" arrived="0" entered="9" left="5" laneChangedFrom="0" laneChangedTo="0"/>
         <lane id="4si_2" sampledSeconds="324.53" traveltime="46.70" density="13.68" occupancy="6.84" waitingTime="32.35" speed="5.08" departed="0" arrived="0" entered="7" left="8" laneChangedFrom="0" laneChangedTo="0"/>
      </edge>
   </interval>
</netstats>
