<?xml version="1.0"?>

<!-- generated on Fri Nov  9 17:03:27 2012 by SUMO sumo Version dev-SVN-r12945
<?xml version="1.0" encoding="UTF-8"?>

<configuration xmlns:xsi="http://www.w3.org/2001/XMLSchema-instance" xsi:noNamespaceSchemaLocation="http://sumo.sf.net/xsd/sumoConfiguration.xsd">

    <input>
        <net-file value="net.net.xml"/>
        <route-files value="input_routes.rou.xml"/>
        <additional-files value="input_additional.add.xml"/>
    </input>

    <time>
        <begin value="0"/>
        <end value="1000"/>
    </time>

    <report>
        <no-duration-log value="true"/>
        <no-step-log value="true"/>
    </report>

</configuration>
-->

<netstats>
    <interval begin="0.00" end="900.00" id="dump_900">
        <edge id="1fi">
            <lane id="1fi_0" sampledSeconds="5279.83" traveltime="27.50" density="23.61" occupancy="7.08" waitingTime="1.00" speed="9.04" departed="78" arrived="12" entered="118" left="175" laneChangedFrom="0" laneChangedTo="0"/>
        </edge>
        <edge id="1o">
            <lane id="1o_0" sampledSeconds="5905.70" traveltime="47.56" density="13.43" occupancy="4.03" waitingTime="0.00" speed="10.27" departed="0" arrived="0" entered="128" left="118" laneChangedFrom="0" laneChangedTo="0"/>
        </edge>
        <edge id="1si">
            <lane id="1si_0" sampledSeconds="1804.57" traveltime="56.67" density="8.45" occupancy="2.54" waitingTime="814.00" speed="4.18" departed="0" arrived="0" entered="34" left="31" laneChangedFrom="0" laneChangedTo="0"/>
            <lane id="1si_1" sampledSeconds="1143.79" traveltime="17.93" density="5.36" occupancy="1.61" waitingTime="0.00" speed="13.23" departed="0" arrived="0" entered="63" left="63" laneChangedFrom="0" laneChangedTo="0"/>
            <lane id="1si_2" sampledSeconds="14034.40" traveltime="229.63" density="65.75" occupancy="19.73" waitingTime="8823.00" speed="1.03" departed="0" arrived="0" entered="77" left="40" laneChangedFrom="0" laneChangedTo="0"/>
        </edge>
        <edge id="2fi">
            <lane id="2fi_0" sampledSeconds="5987.16" traveltime="27.76" density="26.77" occupancy="8.03" waitingTime="2.00" speed="8.95" departed="80" arrived="52" entered="139" left="160" laneChangedFrom="0" laneChangedTo="0"/>
        </edge>
        <edge id="2o">
            <lane id="2o_0" sampledSeconds="7017.96" traveltime="47.81" density="15.96" occupancy="4.79" waitingTime="0.00" speed="10.22" departed="0" arrived="0" entered="151" left="139" laneChangedFrom="0" laneChangedTo="0"/>
        </edge>
        <edge id="2si">
            <lane id="2si_0" sampledSeconds="2929.16" traveltime="56.03" density="13.72" occupancy="4.12" waitingTime="1334.00" speed="4.23" departed="0" arrived="0" entered="55" left="51" laneChangedFrom="0" laneChangedTo="0"/>
            <lane id="2si_1" sampledSeconds="4058.86" traveltime="52.54" density="19.02" occupancy="5.71" waitingTime="1876.00" speed="4.51" departed="0" arrived="0" entered="77" left="73" laneChangedFrom="0" laneChangedTo="0"/>
            <lane id="2si_2" sampledSeconds="1890.65" traveltime="67.16" density="8.86" occupancy="2.66" waitingTime="901.00" speed="3.53" departed="0" arrived="0" entered="28" left="24" laneChangedFrom="0" laneChangedTo="0"/>
        </edge>
        <edge id="3fi">
            <lane id="3fi_0" sampledSeconds="6317.75" traveltime="29.22" density="28.25" occupancy="8.47" waitingTime="5.00" speed="8.50" departed="127" arrived="71" entered="93" left="142" laneChangedFrom="0" laneChangedTo="0"/>
        </edge>
        <edge id="3o">
            <lane id="3o_0" sampledSeconds="4700.97" traveltime="47.66" density="10.69" occupancy="3.21" waitingTime="0.00" speed="10.25" departed="0" arrived="0" entered="104" left="93" laneChangedFrom="0" laneChangedTo="0"/>
        </edge>
        <edge id="3si">
            <lane id="3si_0" sampledSeconds="2987.73" traveltime="49.18" density="14.00" occupancy="4.20" waitingTime="1384.00" speed="4.82" departed="0" arrived="0" entered="61" left="55" laneChangedFrom="0" laneChangedTo="0"/>
            <lane id="3si_1" sampledSeconds="3088.78" traveltime="51.10" density="14.47" occupancy="4.34" waitingTime="1443.00" speed="4.64" departed="0" arrived="0" entered="60" left="55" laneChangedFrom="0" laneChangedTo="0"/>
            <lane id="3si_2" sampledSeconds="897.99" traveltime="43.40" density="4.21" occupancy="1.26" waitingTime="299.00" speed="5.46" departed="0" arrived="0" entered="21" left="16" laneChangedFrom="0" laneChangedTo="0"/>
        </edge>
        <edge id="4fi">
            <lane id="4fi_0" sampledSeconds="3135.08" traveltime="22.78" density="14.02" occupancy="4.21" waitingTime="0.00" speed="10.91" departed="0" arrived="0" entered="136" left="136" laneChangedFrom="0" laneChangedTo="0"/>
        </edge>
        <edge id="4o">
            <lane id="4o_0" sampledSeconds="6609.56" traveltime="46.90" density="15.03" occupancy="4.51" waitingTime="0.00" speed="10.42" departed="0" arrived="0" entered="145" left="136" laneChangedFrom="0" laneChangedTo="0"/>
        </edge>
        <edge id="4si">
            <lane id="4si_0" sampledSeconds="2745.91" traveltime="60.85" density="12.87" occupancy="3.86" waitingTime="1421.00" speed="3.90" departed="0" arrived="0" entered="45" left="39" laneChangedFrom="0" laneChangedTo="0"/>
            <lane id="4si_1" sampledSeconds="978.10" traveltime="18.86" density="4.58" occupancy="1.37" waitingTime="53.00" speed="12.58" departed="0" arrived="0" entered="55" left="49" laneChangedFrom="0" laneChangedTo="0"/>
            <lane id="4si_2" sampledSeconds="1909.17" traveltime="52.56" density="8.94" occupancy="2.68" waitingTime="692.00" speed="4.51" departed="0" arrived="0" entered="36" left="33" laneChangedFrom="0" laneChangedTo="0"/>
        </edge>
    </interval>
    <interval begin="900.00" end="1000.00" id="dump_900">
        <edge id="1fi">
            <lane id="1fi_0" sampledSeconds="956.98" traveltime="27.45" density="38.51" occupancy="11.55" waitingTime="0.00" speed="9.05" departed="12" arrived="4" entered="21" left="29" laneChangedFrom="0" laneChangedTo="0"/>
        </edge>
        <edge id="1o">
            <lane id="1o_0" sampledSeconds="1053.59" traveltime="47.03" density="21.56" occupancy="6.47" waitingTime="0.00" speed="10.39" departed="0" arrived="0" entered="21" left="21" laneChangedFrom="0" laneChangedTo="0"/>
        </edge>
        <edge id="1si">
            <lane id="1si_0" sampledSeconds="509.08" traveltime="44.54" density="21.47" occupancy="6.44" waitingTime="198.00" speed="5.32" departed="0" arrived="0" entered="11" left="8" laneChangedFrom="0" laneChangedTo="0"/>
            <lane id="1si_1" sampledSeconds="179.94" traveltime="17.77" density="7.59" occupancy="2.28" waitingTime="0.00" speed="13.35" departed="0" arrived="0" entered="10" left="10" laneChangedFrom="0" laneChangedTo="0"/>
            <lane id="1si_2" sampledSeconds="3923.66" traveltime="672.71" density="165.45" occupancy="49.64" waitingTime="2359.00" speed="0.35" departed="0" arrived="0" entered="9" left="6" laneChangedFrom="0" laneChangedTo="0"/>
        </edge>
        <edge id="2fi">
            <lane id="2fi_0" sampledSeconds="873.40" traveltime="27.14" density="35.15" occupancy="10.54" waitingTime="0.00" speed="9.16" departed="10" arrived="11" entered="21" left="20" laneChangedFrom="0" laneChangedTo="0"/>
        </edge>
        <edge id="2o">
            <lane id="2o_0" sampledSeconds="1024.44" traveltime="46.95" density="20.96" occupancy="6.29" waitingTime="0.00" speed="10.41" departed="0" arrived="0" entered="21" left="21" laneChangedFrom="0" laneChangedTo="0"/>
        </edge>
        <edge id="2si">
            <lane id="2si_0" sampledSeconds="270.66" traveltime="40.57" density="11.41" occupancy="3.42" waitingTime="110.00" speed="5.85" departed="0" arrived="0" entered="6" left="4" laneChangedFrom="0" laneChangedTo="0"/>
            <lane id="2si_1" sampledSeconds="523.61" traveltime="55.06" density="22.08" occupancy="6.62" waitingTime="256.00" speed="4.31" departed="0" arrived="0" entered="9" left="8" laneChangedFrom="0" laneChangedTo="0"/>
            <lane id="2si_2" sampledSeconds="685.69" traveltime="137.74" density="28.91" occupancy="8.67" waitingTime="439.00" speed="1.72" departed="0" arrived="0" entered="5" left="4" laneChangedFrom="0" laneChangedTo="0"/>
        </edge>
        <edge id="3fi">
            <lane id="3fi_0" sampledSeconds="864.99" traveltime="28.02" density="34.81" occupancy="10.44" waitingTime="0.00" speed="8.87" departed="13" arrived="15" entered="17" left="16" laneChangedFrom="0" laneChangedTo="0"/>
        </edge>
        <edge id="3o">
            <lane id="3o_0" sampledSeconds="965.78" traveltime="48.16" density="19.76" occupancy="5.93" waitingTime="0.00" speed="10.15" departed="0" arrived="0" entered="19" left="18" laneChangedFrom="0" laneChangedTo="0"/>
        </edge>
        <edge id="3si">
            <lane id="3si_0" sampledSeconds="378.70" traveltime="55.11" density="15.97" occupancy="4.79" waitingTime="178.00" speed="4.30" departed="0" arrived="0" entered="6" left="9" laneChangedFrom="0" laneChangedTo="0"/>
            <lane id="3si_1" sampledSeconds="362.17" traveltime="51.20" density="15.27" occupancy="4.58" waitingTime="158.00" speed="4.63" departed="0" arrived="0" entered="7" left="9" laneChangedFrom="0" laneChangedTo="0"/>
            <lane id="3si_2" sampledSeconds="190.07" traveltime="53.22" density="8.01" occupancy="2.40" waitingTime="53.00" speed="4.46" departed="0" arrived="0" entered="3" left="7" laneChangedFrom="0" laneChangedTo="0"/>
        </edge>
        <edge id="4fi">
            <lane id="4fi_0" sampledSeconds="369.11" traveltime="22.79" density="14.85" occupancy="4.46" waitingTime="0.00" speed="10.90" departed="0" arrived="0" entered="16" left="16" laneChangedFrom="0" laneChangedTo="0"/>
        </edge>
        <edge id="4o">
            <lane id="4o_0" sampledSeconds="840.81" traveltime="47.02" density="17.21" occupancy="5.16" waitingTime="0.00" speed="10.39" departed="0" arrived="0" entered="18" left="17" laneChangedFrom="0" laneChangedTo="0"/>
        </edge>
        <edge id="4si">
            <lane id="4si_0" sampledSeconds="419.81" traveltime="66.73" density="17.70" occupancy="5.31" waitingTime="203.00" speed="3.55" departed="0" arrived="0" entered="6" left="9" laneChangedFrom="0" laneChangedTo="0"/>
            <lane id="4si_1" sampledSeconds="151.56" traveltime="18.48" density="6.39" occupancy="1.92" waitingTime="1.00" speed="12.83" departed="0" arrived="0" entered="6" left="8" laneChangedFrom="0" laneChangedTo="0"/>
            <lane id="4si_2" sampledSeconds="184.31" traveltime="45.09" density="7.77" occupancy="2.33" waitingTime="42.00" speed="5.26" departed="0" arrived="0" entered="4" left="5" laneChangedFrom="0" laneChangedTo="0"/>
        </edge>
    </interval>
</netstats>
