<?xml version="1.0"?>

<!-- generated on Fri Dec  2 20:46:23 2011 by SUMO sumo Version dev-SVN-r11571
<?xml version="1.0" encoding="UTF-8"?>

<configuration xmlns:xsi="http://www.w3.org/2001/XMLSchema-instance" xsi:noNamespaceSchemaLocation="http://sumo.sf.net/xsd/sumoConfiguration.xsd">

    <input>
        <net-file value="net.net.xml"/>
        <route-files value="input_routes.rou.xml"/>
        <additional-files value="input_additional.add.xml"/>
    </input>

    <time>
        <begin value="0"/>
        <end value="1000"/>
    </time>

    <report>
        <no-duration-log value="true"/>
        <no-step-log value="true"/>
    </report>

</configuration>
-->

<netstats>
    <interval begin="0.00" end="300.00" id="dump_300">
        <edge id="1fi">
            <lane id="1fi_0" sampledSeconds="699.81" traveltime="29.56" density="9.39" occupancy="4.69" waitingTime="0.00" speed="8.41" departed="19" arrived="0" entered="11" left="19" laneChangedFrom="0" laneChangedTo="0"/>
        </edge>
        <edge id="1o">
            <lane id="1o_0" sampledSeconds="505.39" traveltime="45.94" density="3.45" occupancy="1.72" waitingTime="0.00" speed="10.64" departed="0" arrived="0" entered="11" left="11" laneChangedFrom="0" laneChangedTo="0"/>
        </edge>
        <edge id="1si">
            <lane id="1si_0" sampledSeconds="0.00" departed="0" arrived="0" entered="0" left="0" laneChangedFrom="0" laneChangedTo="0"/>
            <lane id="1si_1" sampledSeconds="38.66" traveltime="19.33" density="0.54" occupancy="0.27" waitingTime="0.00" speed="12.27" departed="0" arrived="0" entered="2" left="2" laneChangedFrom="0" laneChangedTo="0"/>
            <lane id="1si_2" sampledSeconds="819.37" traveltime="51.86" density="11.52" occupancy="5.76" waitingTime="377.00" speed="4.57" departed="0" arrived="0" entered="17" left="8" laneChangedFrom="0" laneChangedTo="0"/>
        </edge>
        <edge id="2fi">
            <lane id="2fi_0" sampledSeconds="774.66" traveltime="30.40" density="10.39" occupancy="5.20" waitingTime="0.00" speed="8.18" departed="20" arrived="0" entered="8" left="24" laneChangedFrom="0" laneChangedTo="0"/>
        </edge>
        <edge id="2o">
            <lane id="2o_0" sampledSeconds="548.02" traveltime="48.83" density="3.74" occupancy="1.87" waitingTime="0.00" speed="10.01" departed="0" arrived="0" entered="17" left="8" laneChangedFrom="0" laneChangedTo="0"/>
        </edge>
        <edge id="2si">
            <lane id="2si_0" sampledSeconds="198.80" traveltime="30.64" density="2.79" occupancy="1.40" waitingTime="45.00" speed="7.74" departed="0" arrived="0" entered="7" left="0" laneChangedFrom="0" laneChangedTo="0"/>
            <lane id="2si_1" sampledSeconds="631.94" traveltime="40.37" density="8.88" occupancy="4.44" waitingTime="259.00" speed="5.87" departed="0" arrived="0" entered="17" left="11" laneChangedFrom="0" laneChangedTo="0"/>
            <lane id="2si_2" sampledSeconds="0.00" departed="0" arrived="0" entered="0" left="0" laneChangedFrom="0" laneChangedTo="0"/>
        </edge>
        <edge id="3fi">
            <lane id="3fi_0" sampledSeconds="1158.17" traveltime="32.29" density="15.54" occupancy="7.77" waitingTime="1.00" speed="7.70" departed="40" arrived="0" entered="0" left="34" laneChangedFrom="0" laneChangedTo="0"/>
        </edge>
        <edge id="3o">
            <lane id="3o_0" sampledSeconds="78.21" traveltime="44.85" density="0.53" occupancy="0.27" waitingTime="0.00" speed="10.90" departed="0" arrived="0" entered="6" left="0" laneChangedFrom="0" laneChangedTo="0"/>
        </edge>
        <edge id="3si">
            <lane id="3si_0" sampledSeconds="589.31" traveltime="36.09" density="8.28" occupancy="4.14" waitingTime="193.00" speed="6.57" departed="0" arrived="0" entered="17" left="15" laneChangedFrom="0" laneChangedTo="0"/>
            <lane id="3si_1" sampledSeconds="617.37" traveltime="38.81" density="8.68" occupancy="4.34" waitingTime="223.00" speed="6.11" departed="0" arrived="0" entered="17" left="15" laneChangedFrom="0" laneChangedTo="0"/>
            <lane id="3si_2" sampledSeconds="0.00" departed="0" arrived="0" entered="0" left="0" laneChangedFrom="0" laneChangedTo="0"/>
        </edge>
        <edge id="4fi">
            <lane id="4fi_0" sampledSeconds="205.23" traveltime="22.80" density="2.75" occupancy="1.38" waitingTime="0.00" speed="10.90" departed="0" arrived="0" entered="9" left="9" laneChangedFrom="0" laneChangedTo="0"/>
        </edge>
        <edge id="4o">
            <lane id="4o_0" sampledSeconds="696.66" traveltime="47.76" density="4.75" occupancy="2.38" waitingTime="0.00" speed="10.23" departed="0" arrived="0" entered="23" left="9" laneChangedFrom="0" laneChangedTo="0"/>
        </edge>
        <edge id="4si">
            <lane id="4si_0" sampledSeconds="0.00" departed="0" arrived="0" entered="0" left="0" laneChangedFrom="0" laneChangedTo="0"/>
            <lane id="4si_1" sampledSeconds="116.60" traveltime="19.43" density="1.64" occupancy="0.82" waitingTime="0.00" speed="12.20" departed="0" arrived="0" entered="6" left="6" laneChangedFrom="0" laneChangedTo="0"/>
            <lane id="4si_2" sampledSeconds="138.40" traveltime="46.27" density="1.95" occupancy="0.97" waitingTime="61.00" speed="5.13" departed="0" arrived="0" entered="3" left="2" laneChangedFrom="0" laneChangedTo="0"/>
        </edge>
    </interval>
    <interval begin="300.00" end="600.00" id="dump_300">
        <edge id="1fi">
            <lane id="1fi_0" sampledSeconds="1845.05" traveltime="27.30" density="24.75" occupancy="12.37" waitingTime="1.00" speed="9.10" departed="31" arrived="0" entered="36" left="71" laneChangedFrom="0" laneChangedTo="0"/>
        </edge>
        <edge id="1o">
            <lane id="1o_0" sampledSeconds="2025.24" traveltime="47.32" density="13.82" occupancy="6.91" waitingTime="0.00" speed="10.33" departed="0" arrived="0" entered="47" left="36" laneChangedFrom="0" laneChangedTo="0"/>
        </edge>
        <edge id="1si">
            <lane id="1si_0" sampledSeconds="379.53" traveltime="55.03" density="5.33" occupancy="2.67" waitingTime="170.00" speed="4.31" departed="0" arrived="0" entered="7" left="5" laneChangedFrom="0" laneChangedTo="0"/>
            <lane id="1si_1" sampledSeconds="1009.06" traveltime="30.54" density="14.18" occupancy="7.09" waitingTime="222.00" speed="7.77" departed="0" arrived="0" entered="36" left="29" laneChangedFrom="0" laneChangedTo="0"/>
            <lane id="1si_2" sampledSeconds="4680.59" traveltime="194.04" density="65.79" occupancy="32.89" waitingTime="3072.00" speed="1.22" departed="0" arrived="0" entered="28" left="16" laneChangedFrom="0" laneChangedTo="0"/>
        </edge>
        <edge id="2fi">
            <lane id="2fi_0" sampledSeconds="2521.76" traveltime="27.95" density="33.83" occupancy="16.91" waitingTime="1.00" speed="8.89" departed="28" arrived="0" entered="65" left="64" laneChangedFrom="0" laneChangedTo="0"/>
        </edge>
        <edge id="2o">
            <lane id="2o_0" sampledSeconds="3295.08" traveltime="48.35" density="22.48" occupancy="11.24" waitingTime="0.00" speed="10.11" departed="0" arrived="0" entered="69" left="66" laneChangedFrom="0" laneChangedTo="0"/>
        </edge>
        <edge id="2si">
            <lane id="2si_0" sampledSeconds="1554.56" traveltime="61.78" density="21.85" occupancy="10.93" waitingTime="726.00" speed="3.84" departed="0" arrived="0" entered="25" left="28" laneChangedFrom="0" laneChangedTo="0"/>
            <lane id="2si_1" sampledSeconds="1380.33" traveltime="48.83" density="19.40" occupancy="9.70" waitingTime="598.00" speed="4.86" departed="0" arrived="0" entered="27" left="31" laneChangedFrom="0" laneChangedTo="0"/>
            <lane id="2si_2" sampledSeconds="470.81" traveltime="39.53" density="6.62" occupancy="3.31" waitingTime="126.00" speed="6.00" departed="0" arrived="0" entered="12" left="9" laneChangedFrom="0" laneChangedTo="0"/>
        </edge>
        <edge id="3fi">
            <lane id="3fi_0" sampledSeconds="2362.58" traveltime="29.97" density="31.69" occupancy="15.85" waitingTime="0.00" speed="8.29" departed="51" arrived="0" entered="31" left="57" laneChangedFrom="0" laneChangedTo="0"/>
        </edge>
        <edge id="3o">
            <lane id="3o_0" sampledSeconds="1677.82" traveltime="47.15" density="11.45" occupancy="5.72" waitingTime="0.00" speed="10.36" departed="0" arrived="0" entered="36" left="31" laneChangedFrom="0" laneChangedTo="0"/>
        </edge>
        <edge id="3si">
            <lane id="3si_0" sampledSeconds="1298.63" traveltime="48.80" density="18.25" occupancy="9.13" waitingTime="578.00" speed="4.86" departed="0" arrived="0" entered="27" left="23" laneChangedFrom="0" laneChangedTo="0"/>
            <lane id="3si_1" sampledSeconds="1356.83" traveltime="51.09" density="19.07" occupancy="9.54" waitingTime="625.00" speed="4.64" departed="0" arrived="0" entered="27" left="23" laneChangedFrom="0" laneChangedTo="0"/>
            <lane id="3si_2" sampledSeconds="179.81" traveltime="59.94" density="2.53" occupancy="1.26" waitingTime="94.00" speed="3.96" departed="0" arrived="0" entered="3" left="3" laneChangedFrom="0" laneChangedTo="0"/>
        </edge>
        <edge id="4fi">
            <lane id="4fi_0" sampledSeconds="1493.95" traveltime="22.79" density="20.04" occupancy="10.02" waitingTime="0.00" speed="10.90" departed="0" arrived="0" entered="68" left="63" laneChangedFrom="0" laneChangedTo="0"/>
        </edge>
        <edge id="4o">
            <lane id="4o_0" sampledSeconds="3186.86" traveltime="46.99" density="21.74" occupancy="10.87" waitingTime="0.00" speed="10.40" departed="0" arrived="0" entered="64" left="68" laneChangedFrom="0" laneChangedTo="0"/>
        </edge>
        <edge id="4si">
            <lane id="4si_0" sampledSeconds="1064.38" traveltime="48.49" density="14.96" occupancy="7.48" waitingTime="463.00" speed="4.89" departed="0" arrived="0" entered="23" left="15" laneChangedFrom="0" laneChangedTo="0"/>
            <lane id="4si_1" sampledSeconds="475.33" traveltime="19.01" density="6.68" occupancy="3.34" waitingTime="0.00" speed="12.47" departed="0" arrived="0" entered="25" left="25" laneChangedFrom="0" laneChangedTo="0"/>
            <lane id="4si_2" sampledSeconds="702.70" traveltime="46.82" density="9.88" occupancy="4.94" waitingTime="214.00" speed="5.07" departed="0" arrived="0" entered="15" left="16" laneChangedFrom="0" laneChangedTo="0"/>
        </edge>
    </interval>
    <interval begin="600.00" end="900.00" id="dump_300">
        <edge id="1fi">
            <lane id="1fi_0" sampledSeconds="2668.62" traveltime="28.06" density="35.80" occupancy="17.90" waitingTime="0.00" speed="8.86" departed="29" arrived="0" entered="67" left="83" laneChangedFrom="0" laneChangedTo="0"/>
        </edge>
        <edge id="1o">
            <lane id="1o_0" sampledSeconds="3218.65" traveltime="48.85" density="21.96" occupancy="10.98" waitingTime="0.00" speed="10.00" departed="0" arrived="0" entered="67" left="67" laneChangedFrom="0" laneChangedTo="0"/>
        </edge>
        <edge id="1si">
            <lane id="1si_0" sampledSeconds="1406.01" traveltime="54.96" density="19.76" occupancy="9.88" waitingTime="596.00" speed="4.31" departed="0" arrived="0" entered="28" left="27" laneChangedFrom="0" laneChangedTo="0"/>
            <lane id="1si_1" sampledSeconds="525.12" traveltime="19.48" density="7.38" occupancy="3.69" waitingTime="0.00" speed="12.18" departed="0" arrived="0" entered="24" left="31" laneChangedFrom="0" laneChangedTo="0"/>
            <lane id="1si_2" sampledSeconds="8453.44" traveltime="377.12" density="118.82" occupancy="59.41" waitingTime="5154.00" speed="0.63" departed="0" arrived="0" entered="31" left="18" laneChangedFrom="0" laneChangedTo="0"/>
        </edge>
        <edge id="2fi">
            <lane id="2fi_0" sampledSeconds="2724.81" traveltime="28.33" density="36.55" occupancy="18.28" waitingTime="1.00" speed="8.77" departed="31" arrived="0" entered="68" left="69" laneChangedFrom="0" laneChangedTo="0"/>
        </edge>
        <edge id="2o">
            <lane id="2o_0" sampledSeconds="3210.93" traveltime="48.39" density="21.90" occupancy="10.95" waitingTime="0.00" speed="10.10" departed="0" arrived="0" entered="65" left="67" laneChangedFrom="0" laneChangedTo="0"/>
        </edge>
        <edge id="2si">
            <lane id="2si_0" sampledSeconds="1044.95" traveltime="53.51" density="14.69" occupancy="7.34" waitingTime="446.00" speed="4.43" departed="0" arrived="0" entered="21" left="23" laneChangedFrom="0" laneChangedTo="0"/>
            <lane id="2si_1" sampledSeconds="1434.09" traveltime="45.32" density="20.16" occupancy="10.08" waitingTime="582.00" speed="5.23" departed="0" arrived="0" entered="33" left="31" laneChangedFrom="0" laneChangedTo="0"/>
            <lane id="2si_2" sampledSeconds="1702.38" traveltime="116.98" density="23.93" occupancy="11.96" waitingTime="1059.00" speed="2.03" departed="0" arrived="0" entered="15" left="11" laneChangedFrom="0" laneChangedTo="0"/>
        </edge>
        <edge id="3fi">
            <lane id="3fi_0" sampledSeconds="2696.05" traveltime="28.27" density="36.16" occupancy="18.08" waitingTime="0.00" speed="8.79" departed="35" arrived="0" entered="60" left="48" laneChangedFrom="0" laneChangedTo="0"/>
        </edge>
        <edge id="3o">
            <lane id="3o_0" sampledSeconds="2856.81" traveltime="48.30" density="19.49" occupancy="9.74" waitingTime="0.00" speed="10.12" departed="0" arrived="0" entered="61" left="60" laneChangedFrom="0" laneChangedTo="0"/>
        </edge>
        <edge id="3si">
            <lane id="3si_0" sampledSeconds="1040.44" traveltime="58.38" density="14.62" occupancy="7.31" waitingTime="571.00" speed="4.06" departed="0" arrived="0" entered="17" left="18" laneChangedFrom="0" laneChangedTo="0"/>
            <lane id="3si_1" sampledSeconds="1011.72" traveltime="57.45" density="14.22" occupancy="7.11" waitingTime="535.00" speed="4.13" departed="0" arrived="0" entered="17" left="18" laneChangedFrom="0" laneChangedTo="0"/>
            <lane id="3si_2" sampledSeconds="403.19" traveltime="31.12" density="5.67" occupancy="2.83" waitingTime="91.00" speed="7.62" departed="0" arrived="0" entered="14" left="11" laneChangedFrom="0" laneChangedTo="0"/>
        </edge>
        <edge id="4fi">
            <lane id="4fi_0" sampledSeconds="1491.47" traveltime="22.79" density="20.01" occupancy="10.00" waitingTime="0.00" speed="10.90" departed="0" arrived="0" entered="63" left="68" laneChangedFrom="0" laneChangedTo="0"/>
        </edge>
        <edge id="4o">
            <lane id="4o_0" sampledSeconds="2894.92" traveltime="47.33" density="19.75" occupancy="9.87" waitingTime="0.00" speed="10.32" departed="0" arrived="0" entered="61" left="63" laneChangedFrom="0" laneChangedTo="0"/>
        </edge>
        <edge id="4si">
            <lane id="4si_0" sampledSeconds="1637.05" traveltime="69.79" density="23.01" occupancy="11.51" waitingTime="902.00" speed="3.40" departed="0" arrived="0" entered="23" left="23" laneChangedFrom="0" laneChangedTo="0"/>
            <lane id="4si_1" sampledSeconds="409.40" traveltime="19.42" density="5.75" occupancy="2.88" waitingTime="0.00" speed="12.21" departed="0" arrived="0" entered="24" left="20" laneChangedFrom="0" laneChangedTo="0"/>
            <lane id="4si_2" sampledSeconds="781.19" traveltime="39.51" density="10.98" occupancy="5.49" waitingTime="193.00" speed="6.00" departed="0" arrived="0" entered="20" left="15" laneChangedFrom="0" laneChangedTo="0"/>
        </edge>
    </interval>
    <interval begin="900.00" end="1000.00" id="dump_300">
        <edge id="1fi">
            <lane id="1fi_0" sampledSeconds="901.87" traveltime="27.17" density="36.29" occupancy="18.15" waitingTime="0.00" speed="9.15" departed="11" arrived="0" entered="22" left="31" laneChangedFrom="0" laneChangedTo="0"/>
        </edge>
        <edge id="1o">
            <lane id="1o_0" sampledSeconds="1119.38" traveltime="47.66" density="22.91" occupancy="11.45" waitingTime="0.00" speed="10.25" departed="0" arrived="0" entered="22" left="22" laneChangedFrom="0" laneChangedTo="0"/>
        </edge>
        <edge id="1si">
            <lane id="1si_0" sampledSeconds="406.53" traveltime="39.88" density="17.14" occupancy="8.57" waitingTime="146.00" speed="5.95" departed="0" arrived="0" entered="11" left="6" laneChangedFrom="0" laneChangedTo="0"/>
            <lane id="1si_1" sampledSeconds="240.00" traveltime="21.82" density="10.12" occupancy="5.06" waitingTime="19.00" speed="10.87" departed="0" arrived="0" entered="11" left="10" laneChangedFrom="0" laneChangedTo="0"/>
            <lane id="1si_2" sampledSeconds="3715.82" traveltime="640.14" density="156.69" occupancy="78.34" waitingTime="2261.00" speed="0.37" departed="0" arrived="0" entered="9" left="5" laneChangedFrom="0" laneChangedTo="0"/>
        </edge>
        <edge id="2fi">
            <lane id="2fi_0" sampledSeconds="918.08" traveltime="28.29" density="36.94" occupancy="18.47" waitingTime="0.00" speed="8.78" departed="11" arrived="1" entered="20" left="23" laneChangedFrom="0" laneChangedTo="0"/>
        </edge>
        <edge id="2o">
            <lane id="2o_0" sampledSeconds="1084.94" traveltime="49.02" density="22.20" occupancy="11.10" waitingTime="0.00" speed="9.97" departed="0" arrived="0" entered="22" left="20" laneChangedFrom="0" laneChangedTo="0"/>
        </edge>
        <edge id="2si">
            <lane id="2si_0" sampledSeconds="313.09" traveltime="39.63" density="13.20" occupancy="6.60" waitingTime="115.00" speed="5.98" departed="0" arrived="0" entered="8" left="5" laneChangedFrom="0" laneChangedTo="0"/>
            <lane id="2si_1" sampledSeconds="428.08" traveltime="45.57" density="18.05" occupancy="9.03" waitingTime="169.00" speed="5.20" departed="0" arrived="0" entered="9" left="9" laneChangedFrom="0" laneChangedTo="0"/>
            <lane id="2si_2" sampledSeconds="1066.35" traveltime="191.22" density="44.97" occupancy="22.48" waitingTime="699.00" speed="1.24" departed="0" arrived="0" entered="6" left="3" laneChangedFrom="0" laneChangedTo="0"/>
        </edge>
        <edge id="3fi">
            <lane id="3fi_0" sampledSeconds="862.19" traveltime="28.91" density="34.70" occupancy="17.35" waitingTime="0.00" speed="8.60" departed="13" arrived="0" entered="17" left="13" laneChangedFrom="0" laneChangedTo="0"/>
        </edge>
        <edge id="3o">
            <lane id="3o_0" sampledSeconds="843.30" traveltime="48.55" density="17.26" occupancy="8.63" waitingTime="0.00" speed="10.07" departed="0" arrived="0" entered="14" left="17" laneChangedFrom="0" laneChangedTo="0"/>
        </edge>
        <edge id="3si">
            <lane id="3si_0" sampledSeconds="310.69" traveltime="60.11" density="13.10" occupancy="6.55" waitingTime="151.00" speed="3.95" departed="0" arrived="0" entered="5" left="8" laneChangedFrom="0" laneChangedTo="0"/>
            <lane id="3si_1" sampledSeconds="294.16" traveltime="51.70" density="12.40" occupancy="6.20" waitingTime="146.00" speed="4.59" departed="0" arrived="0" entered="5" left="7" laneChangedFrom="0" laneChangedTo="0"/>
            <lane id="3si_2" sampledSeconds="107.76" traveltime="26.82" density="4.54" occupancy="2.27" waitingTime="11.00" speed="8.84" departed="0" arrived="0" entered="3" left="5" laneChangedFrom="0" laneChangedTo="0"/>
        </edge>
        <edge id="4fi">
            <lane id="4fi_0" sampledSeconds="319.18" traveltime="22.80" density="12.84" occupancy="6.42" waitingTime="0.00" speed="10.90" departed="0" arrived="0" entered="14" left="14" laneChangedFrom="0" laneChangedTo="0"/>
        </edge>
        <edge id="4o">
            <lane id="4o_0" sampledSeconds="784.28" traveltime="47.42" density="16.05" occupancy="8.02" waitingTime="0.00" speed="10.31" departed="0" arrived="0" entered="17" left="15" laneChangedFrom="0" laneChangedTo="0"/>
        </edge>
        <edge id="4si">
            <lane id="4si_0" sampledSeconds="383.38" traveltime="69.44" density="16.17" occupancy="8.08" waitingTime="184.00" speed="3.42" departed="0" arrived="0" entered="5" left="11" laneChangedFrom="0" laneChangedTo="0"/>
            <lane id="4si_1" sampledSeconds="151.76" traveltime="19.35" density="6.40" occupancy="3.20" waitingTime="0.00" speed="12.26" departed="0" arrived="0" entered="6" left="5" laneChangedFrom="0" laneChangedTo="0"/>
            <lane id="4si_2" sampledSeconds="202.83" traveltime="48.41" density="8.55" occupancy="4.28" waitingTime="39.00" speed="4.90" departed="0" arrived="0" entered="4" left="7" laneChangedFrom="0" laneChangedTo="0"/>
        </edge>
    </interval>
</netstats>
