<?xml version="1.0"?>

<!-- generated on 03/02/10 10:12:35 by SUMO sumo Version dev-SVN-r8163
<configuration>

    <input>
        <net-file value="net.net.xml"/>
        <route-files value="input_routes.rou.xml"/>
        <additional-files value="input_additional.add.xml"/>
    </input>

    <time>
        <begin value="0"/>
        <end value="1000"/>
    </time>

    <report>
        <no-duration-log value="true"/>
        <no-step-log value="true"/>
    </report>

</configuration>
-->

<netstats>
   <interval begin="0" end="900" id="dump_900">
      <edge id="1fi">
         <lane id="1fi_0" sampledSeconds="5095.93" traveltime="28.13" density="22.79" occupancy="11.39" waitingTime="0.00" speed="8.83" departed="80" arrived="15" entered="119" left="177" laneChangedFrom="0" laneChangedTo="0"/>
      </edge>
      <edge id="1o">
         <lane id="1o_0" sampledSeconds="6059.07" traveltime="48.73" density="13.78" occupancy="6.89" waitingTime="0.00" speed="10.03" departed="0" arrived="0" entered="128" left="119" laneChangedFrom="0" laneChangedTo="0"/>
      </edge>
      <edge id="1si">
         <lane id="1si_0" sampledSeconds="1792.39" traveltime="55.27" density="8.40" occupancy="4.20" waitingTime="409.73" speed="4.29" departed="0" arrived="0" entered="35" left="32" laneChangedFrom="0" laneChangedTo="0"/>
         <lane id="1si_1" sampledSeconds="1341.70" traveltime="20.96" density="6.29" occupancy="3.14" waitingTime="110.01" speed="11.31" departed="0" arrived="0" entered="64" left="64" laneChangedFrom="0" laneChangedTo="0"/>
         <lane id="1si_2" sampledSeconds="13766.68" traveltime="215.36" density="64.50" occupancy="32.25" waitingTime="567.72" speed="1.10" departed="0" arrived="0" entered="77" left="46" laneChangedFrom="0" laneChangedTo="0"/>
      </edge>
      <edge id="2fi">
         <lane id="2fi_0" sampledSeconds="4857.30" traveltime="29.15" density="21.72" occupancy="10.86" waitingTime="0.00" speed="8.52" departed="79" arrived="55" entered="147" left="162" laneChangedFrom="0" laneChangedTo="0"/>
      </edge>
      <edge id="2o">
         <lane id="2o_0" sampledSeconds="7468.02" traveltime="48.34" density="16.98" occupancy="8.49" waitingTime="0.00" speed="10.11" departed="0" arrived="0" entered="158" left="147" laneChangedFrom="0" laneChangedTo="0"/>
      </edge>
      <edge id="2si">
         <lane id="2si_0" sampledSeconds="2961.39" traveltime="54.35" density="13.87" occupancy="6.94" waitingTime="416.05" speed="4.36" departed="0" arrived="0" entered="57" left="54" laneChangedFrom="0" laneChangedTo="0"/>
         <lane id="2si_1" sampledSeconds="3557.83" traveltime="46.83" density="16.67" occupancy="8.33" waitingTime="402.46" speed="5.06" departed="0" arrived="0" entered="77" left="73" laneChangedFrom="0" laneChangedTo="0"/>
         <lane id="2si_2" sampledSeconds="1674.07" traveltime="62.00" density="7.84" occupancy="3.92" waitingTime="423.10" speed="3.82" departed="0" arrived="0" entered="27" left="26" laneChangedFrom="0" laneChangedTo="0"/>
      </edge>
      <edge id="3fi">
         <lane id="3fi_0" sampledSeconds="4881.34" traveltime="31.41" density="21.83" occupancy="10.91" waitingTime="0.00" speed="7.91" departed="139" arrived="77" entered="97" left="153" laneChangedFrom="0" laneChangedTo="0"/>
      </edge>
      <edge id="3o">
         <lane id="3o_0" sampledSeconds="4931.75" traveltime="47.81" density="11.21" occupancy="5.61" waitingTime="0.00" speed="10.22" departed="0" arrived="0" entered="112" left="97" laneChangedFrom="0" laneChangedTo="0"/>
      </edge>
      <edge id="3si">
         <lane id="3si_0" sampledSeconds="3085.04" traveltime="46.71" density="14.45" occupancy="7.23" waitingTime="406.67" speed="5.08" departed="0" arrived="0" entered="67" left="61" laneChangedFrom="0" laneChangedTo="0"/>
         <lane id="3si_1" sampledSeconds="3253.18" traveltime="49.53" density="15.24" occupancy="7.62" waitingTime="436.28" speed="4.79" departed="0" arrived="0" entered="66" left="60" laneChangedFrom="0" laneChangedTo="0"/>
         <lane id="3si_2" sampledSeconds="606.85" traveltime="31.25" density="2.84" occupancy="1.42" waitingTime="216.53" speed="7.59" departed="0" arrived="0" entered="20" left="15" laneChangedFrom="0" laneChangedTo="0"/>
      </edge>
      <edge id="4fi">
         <lane id="4fi_0" sampledSeconds="3339.37" traveltime="22.72" density="14.93" occupancy="7.47" waitingTime="0.00" speed="10.94" departed="0" arrived="0" entered="147" left="147" laneChangedFrom="0" laneChangedTo="0"/>
      </edge>
      <edge id="4o">
         <lane id="4o_0" sampledSeconds="7175.25" traveltime="47.28" density="16.32" occupancy="8.16" waitingTime="0.00" speed="10.33" departed="0" arrived="0" entered="159" left="147" laneChangedFrom="0" laneChangedTo="0"/>
      </edge>
      <edge id="4si">
         <lane id="4si_0" sampledSeconds="2833.78" traveltime="59.77" density="13.28" occupancy="6.64" waitingTime="474.81" speed="3.97" departed="0" arrived="0" entered="48" left="40" laneChangedFrom="0" laneChangedTo="0"/>
         <lane id="4si_1" sampledSeconds="998.04" traveltime="17.88" density="4.68" occupancy="2.34" waitingTime="0.00" speed="13.27" departed="0" arrived="0" entered="60" left="54" laneChangedFrom="0" laneChangedTo="0"/>
         <lane id="4si_2" sampledSeconds="1458.95" traveltime="37.72" density="6.84" occupancy="3.42" waitingTime="226.40" speed="6.29" departed="0" arrived="0" entered="39" left="33" laneChangedFrom="0" laneChangedTo="0"/>
      </edge>
   </interval>
   <interval begin="900" end="1000" id="dump_900">
      <edge id="1fi">
         <lane id="1fi_0" sampledSeconds="747.23" traveltime="27.19" density="30.07" occupancy="15.03" waitingTime="0.00" speed="9.14" departed="10" arrived="5" entered="22" left="30" laneChangedFrom="0" laneChangedTo="0"/>
      </edge>
      <edge id="1o">
         <lane id="1o_0" sampledSeconds="1116.16" traveltime="47.90" density="22.84" occupancy="11.42" waitingTime="0.00" speed="10.20" departed="0" arrived="0" entered="23" left="22" laneChangedFrom="0" laneChangedTo="0"/>
      </edge>
      <edge id="1si">
         <lane id="1si_0" sampledSeconds="509.44" traveltime="43.50" density="21.48" occupancy="10.74" waitingTime="40.63" speed="5.45" departed="0" arrived="0" entered="13" left="8" laneChangedFrom="0" laneChangedTo="0"/>
         <lane id="1si_1" sampledSeconds="161.19" traveltime="17.91" density="6.80" occupancy="3.40" waitingTime="0.00" speed="13.24" departed="0" arrived="0" entered="9" left="9" laneChangedFrom="0" laneChangedTo="0"/>
         <lane id="1si_2" sampledSeconds="3351.32" traveltime="389.33" density="141.32" occupancy="70.66" waitingTime="56.34" speed="0.61" departed="0" arrived="0" entered="9" left="7" laneChangedFrom="0" laneChangedTo="0"/>
      </edge>
      <edge id="2fi">
         <lane id="2fi_0" sampledSeconds="737.65" traveltime="28.94" density="29.68" occupancy="14.84" waitingTime="0.00" speed="8.59" departed="11" arrived="9" entered="24" left="25" laneChangedFrom="0" laneChangedTo="0"/>
      </edge>
      <edge id="2o">
         <lane id="2o_0" sampledSeconds="1181.26" traveltime="48.78" density="24.17" occupancy="12.09" waitingTime="0.00" speed="10.02" departed="0" arrived="0" entered="24" left="24" laneChangedFrom="0" laneChangedTo="0"/>
      </edge>
      <edge id="2si">
         <lane id="2si_0" sampledSeconds="431.73" traveltime="41.52" density="18.21" occupancy="9.10" waitingTime="40.30" speed="5.71" departed="0" arrived="0" entered="10" left="7" laneChangedFrom="0" laneChangedTo="0"/>
         <lane id="2si_1" sampledSeconds="487.72" traveltime="49.75" density="20.57" occupancy="10.28" waitingTime="47.57" speed="4.77" departed="0" arrived="0" entered="9" left="8" laneChangedFrom="0" laneChangedTo="0"/>
         <lane id="2si_2" sampledSeconds="359.42" traveltime="59.90" density="15.16" occupancy="7.58" waitingTime="41.46" speed="3.96" departed="0" arrived="0" entered="6" left="7" laneChangedFrom="0" laneChangedTo="0"/>
      </edge>
      <edge id="3fi">
         <lane id="3fi_0" sampledSeconds="616.15" traveltime="30.63" density="24.79" occupancy="12.40" waitingTime="0.00" speed="8.11" departed="14" arrived="15" entered="21" left="18" laneChangedFrom="0" laneChangedTo="0"/>
      </edge>
      <edge id="3o">
         <lane id="3o_0" sampledSeconds="1157.66" traveltime="48.42" density="23.69" occupancy="11.85" waitingTime="0.00" speed="10.09" departed="0" arrived="0" entered="21" left="21" laneChangedFrom="0" laneChangedTo="0"/>
      </edge>
      <edge id="3si">
         <lane id="3si_0" sampledSeconds="278.78" traveltime="43.90" density="11.76" occupancy="5.88" waitingTime="41.97" speed="5.40" departed="0" arrived="0" entered="6" left="10" laneChangedFrom="0" laneChangedTo="0"/>
         <lane id="3si_1" sampledSeconds="427.53" traveltime="70.02" density="18.03" occupancy="9.01" waitingTime="57.07" speed="3.39" departed="0" arrived="0" entered="6" left="9" laneChangedFrom="0" laneChangedTo="0"/>
         <lane id="3si_2" sampledSeconds="229.71" traveltime="35.70" density="9.69" occupancy="4.84" waitingTime="15.24" speed="6.64" departed="0" arrived="0" entered="6" left="8" laneChangedFrom="0" laneChangedTo="0"/>
      </edge>
      <edge id="4fi">
         <lane id="4fi_0" sampledSeconds="431.79" traveltime="22.73" density="17.38" occupancy="8.69" waitingTime="0.00" speed="10.93" departed="0" arrived="0" entered="19" left="19" laneChangedFrom="0" laneChangedTo="0"/>
      </edge>
      <edge id="4o">
         <lane id="4o_0" sampledSeconds="1074.37" traveltime="47.19" density="21.99" occupancy="10.99" waitingTime="0.00" speed="10.35" departed="0" arrived="0" entered="21" left="20" laneChangedFrom="0" laneChangedTo="0"/>
      </edge>
      <edge id="4si">
         <lane id="4si_0" sampledSeconds="440.08" traveltime="68.28" density="18.56" occupancy="9.28" waitingTime="51.58" speed="3.47" departed="0" arrived="0" entered="6" left="11" laneChangedFrom="0" laneChangedTo="0"/>
         <lane id="4si_1" sampledSeconds="159.88" traveltime="17.73" density="6.74" occupancy="3.37" waitingTime="0.00" speed="13.38" departed="0" arrived="0" entered="6" left="7" laneChangedFrom="0" laneChangedTo="0"/>
         <lane id="4si_2" sampledSeconds="340.23" traveltime="48.16" density="14.35" occupancy="7.17" waitingTime="27.04" speed="4.92" departed="0" arrived="0" entered="7" left="9" laneChangedFrom="0" laneChangedTo="0"/>
      </edge>
   </interval>
</netstats>
