<?xml version="1.0"?>

<!-- generated on 02/15/12 11:30:14 by SUMO sumo Version dev-SVN-r11891
<?xml version="1.0" encoding="UTF-8"?>

<configuration xmlns:xsi="http://www.w3.org/2001/XMLSchema-instance" xsi:noNamespaceSchemaLocation="http://sumo.sf.net/xsd/sumoConfiguration.xsd">

    <input>
        <net-file value="net.net.xml"/>
        <route-files value="input_routes.rou.xml"/>
        <additional-files value="input_additional.add.xml"/>
    </input>

    <time>
        <begin value="0"/>
        <end value="1000"/>
    </time>

    <report>
        <no-duration-log value="true"/>
        <no-step-log value="true"/>
    </report>

</configuration>
-->

<netstats>
    <interval begin="0.00" end="900.00" id="dump_900">
        <edge id="1fi">
            <lane id="1fi_0" sampledSeconds="5092.05" traveltime="27.82" density="22.77" occupancy="6.83" waitingTime="0.00" speed="8.93" departed="77" arrived="1" entered="109" left="165" laneChangedFrom="0" laneChangedTo="0"/>
        </edge>
        <edge id="1o">
            <lane id="1o_0" sampledSeconds="5542.57" traveltime="48.02" density="12.60" occupancy="3.78" waitingTime="0.00" speed="10.18" departed="0" arrived="0" entered="118" left="109" laneChangedFrom="0" laneChangedTo="0"/>
        </edge>
        <edge id="1si">
            <lane id="1si_0" sampledSeconds="1712.60" traveltime="55.98" density="8.02" occupancy="2.41" waitingTime="773.00" speed="4.24" departed="0" arrived="0" entered="32" left="30" laneChangedFrom="0" laneChangedTo="0"/>
            <lane id="1si_1" sampledSeconds="1203.23" traveltime="20.15" density="5.64" occupancy="1.69" waitingTime="110.00" speed="11.77" departed="0" arrived="0" entered="59" left="58" laneChangedFrom="0" laneChangedTo="0"/>
            <lane id="1si_2" sampledSeconds="13676.03" traveltime="221.13" density="64.08" occupancy="19.22" waitingTime="8283.00" speed="1.07" departed="0" arrived="0" entered="74" left="43" laneChangedFrom="0" laneChangedTo="0"/>
        </edge>
        <edge id="2fi">
            <lane id="2fi_0" sampledSeconds="5715.32" traveltime="27.90" density="25.55" occupancy="7.67" waitingTime="0.00" speed="8.91" departed="75" arrived="8" entered="133" left="151" laneChangedFrom="0" laneChangedTo="0"/>
        </edge>
        <edge id="2o">
            <lane id="2o_0" sampledSeconds="6592.45" traveltime="47.76" density="14.99" occupancy="4.50" waitingTime="0.00" speed="10.23" departed="0" arrived="0" entered="142" left="133" laneChangedFrom="0" laneChangedTo="0"/>
        </edge>
        <edge id="2si">
            <lane id="2si_0" sampledSeconds="2695.13" traveltime="55.67" density="12.63" occupancy="3.79" waitingTime="1246.00" speed="4.26" departed="0" arrived="0" entered="51" left="47" laneChangedFrom="0" laneChangedTo="0"/>
            <lane id="2si_1" sampledSeconds="3525.12" traveltime="48.95" density="16.52" occupancy="4.95" waitingTime="1586.00" speed="4.84" departed="0" arrived="0" entered="72" left="67" laneChangedFrom="0" laneChangedTo="0"/>
            <lane id="2si_2" sampledSeconds="1814.89" traveltime="64.52" density="8.50" occupancy="2.55" waitingTime="805.00" speed="3.68" departed="0" arrived="0" entered="28" left="24" laneChangedFrom="0" laneChangedTo="0"/>
        </edge>
        <edge id="3fi">
            <lane id="3fi_0" sampledSeconds="5933.62" traveltime="29.23" density="26.53" occupancy="7.96" waitingTime="0.00" speed="8.50" departed="115" arrived="12" entered="91" left="132" laneChangedFrom="0" laneChangedTo="0"/>
        </edge>
        <edge id="3o">
            <lane id="3o_0" sampledSeconds="4628.60" traveltime="48.17" density="10.52" occupancy="3.16" waitingTime="0.00" speed="10.15" departed="0" arrived="0" entered="100" left="91" laneChangedFrom="0" laneChangedTo="0"/>
        </edge>
        <edge id="3si">
            <lane id="3si_0" sampledSeconds="2659.83" traveltime="47.64" density="12.46" occupancy="3.74" waitingTime="1192.00" speed="4.98" departed="0" arrived="0" entered="56" left="52" laneChangedFrom="0" laneChangedTo="0"/>
            <lane id="3si_1" sampledSeconds="2637.16" traveltime="47.53" density="12.36" occupancy="3.71" waitingTime="1170.00" speed="4.99" departed="0" arrived="0" entered="55" left="51" laneChangedFrom="0" laneChangedTo="0"/>
            <lane id="3si_2" sampledSeconds="816.56" traveltime="39.99" density="3.83" occupancy="1.15" waitingTime="245.00" speed="5.93" departed="0" arrived="0" entered="21" left="15" laneChangedFrom="0" laneChangedTo="0"/>
        </edge>
        <edge id="4fi">
            <lane id="4fi_0" sampledSeconds="2997.27" traveltime="22.78" density="13.40" occupancy="4.02" waitingTime="0.00" speed="10.91" departed="0" arrived="0" entered="130" left="130" laneChangedFrom="0" laneChangedTo="0"/>
        </edge>
        <edge id="4o">
            <lane id="4o_0" sampledSeconds="6346.80" traveltime="47.07" density="14.43" occupancy="4.33" waitingTime="0.00" speed="10.38" departed="0" arrived="0" entered="141" left="130" laneChangedFrom="0" laneChangedTo="0"/>
        </edge>
        <edge id="4si">
            <lane id="4si_0" sampledSeconds="2543.32" traveltime="60.43" density="11.92" occupancy="3.57" waitingTime="1310.00" speed="3.92" departed="0" arrived="0" entered="42" left="36" laneChangedFrom="0" laneChangedTo="0"/>
            <lane id="4si_1" sampledSeconds="950.85" traveltime="19.50" density="4.45" occupancy="1.34" waitingTime="57.00" speed="12.16" departed="0" arrived="0" entered="51" left="47" laneChangedFrom="0" laneChangedTo="0"/>
            <lane id="4si_2" sampledSeconds="2047.53" traveltime="55.11" density="9.59" occupancy="2.88" waitingTime="783.00" speed="4.30" departed="0" arrived="0" entered="37" left="32" laneChangedFrom="0" laneChangedTo="0"/>
        </edge>
    </interval>
    <interval begin="900.00" end="1000.00" id="dump_900">
        <edge id="1fi">
            <lane id="1fi_0" sampledSeconds="843.86" traveltime="27.73" density="33.96" occupancy="10.19" waitingTime="0.00" speed="8.96" departed="9" arrived="1" entered="21" left="27" laneChangedFrom="0" laneChangedTo="0"/>
        </edge>
        <edge id="1o">
            <lane id="1o_0" sampledSeconds="1125.64" traveltime="48.19" density="23.04" occupancy="6.91" waitingTime="0.00" speed="10.14" departed="0" arrived="0" entered="25" left="21" laneChangedFrom="0" laneChangedTo="0"/>
        </edge>
        <edge id="1si">
            <lane id="1si_0" sampledSeconds="385.30" traveltime="40.17" density="16.25" occupancy="4.87" waitingTime="140.00" speed="5.90" departed="0" arrived="0" entered="10" left="6" laneChangedFrom="0" laneChangedTo="0"/>
            <lane id="1si_1" sampledSeconds="196.29" traveltime="24.17" density="8.28" occupancy="2.48" waitingTime="46.00" speed="9.81" departed="0" arrived="0" entered="8" left="9" laneChangedFrom="0" laneChangedTo="0"/>
            <lane id="1si_2" sampledSeconds="3447.29" traveltime="529.30" density="145.36" occupancy="43.61" waitingTime="2098.00" speed="0.45" departed="0" arrived="0" entered="9" left="3" laneChangedFrom="0" laneChangedTo="0"/>
        </edge>
        <edge id="2fi">
            <lane id="2fi_0" sampledSeconds="819.31" traveltime="28.51" density="32.97" occupancy="9.89" waitingTime="0.00" speed="8.72" departed="10" arrived="0" entered="18" left="20" laneChangedFrom="0" laneChangedTo="0"/>
        </edge>
        <edge id="2o">
            <lane id="2o_0" sampledSeconds="1008.57" traveltime="48.39" density="20.64" occupancy="6.19" waitingTime="0.00" speed="10.10" departed="0" arrived="0" entered="20" left="18" laneChangedFrom="0" laneChangedTo="0"/>
        </edge>
        <edge id="2si">
            <lane id="2si_0" sampledSeconds="316.78" traveltime="46.11" density="13.36" occupancy="4.01" waitingTime="141.00" speed="5.14" departed="0" arrived="0" entered="5" left="5" laneChangedFrom="0" laneChangedTo="0"/>
            <lane id="2si_1" sampledSeconds="580.25" traveltime="58.37" density="24.47" occupancy="7.34" waitingTime="271.00" speed="4.06" departed="0" arrived="0" entered="10" left="11" laneChangedFrom="0" laneChangedTo="0"/>
            <lane id="2si_2" sampledSeconds="638.66" traveltime="157.12" density="26.93" occupancy="8.08" waitingTime="432.00" speed="1.51" departed="0" arrived="0" entered="4" left="4" laneChangedFrom="0" laneChangedTo="0"/>
        </edge>
        <edge id="3fi">
            <lane id="3fi_0" sampledSeconds="790.13" traveltime="28.91" density="31.80" occupancy="9.54" waitingTime="0.00" speed="8.59" departed="13" arrived="7" entered="14" left="14" laneChangedFrom="0" laneChangedTo="0"/>
        </edge>
        <edge id="3o">
            <lane id="3o_0" sampledSeconds="777.69" traveltime="48.49" density="15.92" occupancy="4.77" waitingTime="0.00" speed="10.08" departed="0" arrived="0" entered="16" left="15" laneChangedFrom="0" laneChangedTo="0"/>
        </edge>
        <edge id="3si">
            <lane id="3si_0" sampledSeconds="292.16" traveltime="50.67" density="12.32" occupancy="3.70" waitingTime="139.00" speed="4.68" departed="0" arrived="0" entered="5" left="7" laneChangedFrom="0" laneChangedTo="0"/>
            <lane id="3si_1" sampledSeconds="263.62" traveltime="50.52" density="11.12" occupancy="3.33" waitingTime="112.00" speed="4.69" departed="0" arrived="0" entered="6" left="7" laneChangedFrom="0" laneChangedTo="0"/>
            <lane id="3si_2" sampledSeconds="219.02" traveltime="56.94" density="9.24" occupancy="2.77" waitingTime="55.00" speed="4.17" departed="0" arrived="0" entered="3" left="8" laneChangedFrom="0" laneChangedTo="0"/>
        </edge>
        <edge id="4fi">
            <lane id="4fi_0" sampledSeconds="364.17" traveltime="22.79" density="14.65" occupancy="4.40" waitingTime="0.00" speed="10.90" departed="0" arrived="0" entered="17" left="15" laneChangedFrom="0" laneChangedTo="0"/>
        </edge>
        <edge id="4o">
            <lane id="4o_0" sampledSeconds="807.31" traveltime="46.76" density="16.52" occupancy="4.96" waitingTime="0.00" speed="10.45" departed="0" arrived="0" entered="14" left="17" laneChangedFrom="0" laneChangedTo="0"/>
        </edge>
        <edge id="4si">
            <lane id="4si_0" sampledSeconds="363.07" traveltime="67.35" density="15.31" occupancy="4.59" waitingTime="176.00" speed="3.52" departed="0" arrived="0" entered="5" left="9" laneChangedFrom="0" laneChangedTo="0"/>
            <lane id="4si_1" sampledSeconds="117.22" traveltime="17.71" density="4.94" occupancy="1.48" waitingTime="0.00" speed="13.39" departed="0" arrived="0" entered="4" left="6" laneChangedFrom="0" laneChangedTo="0"/>
            <lane id="4si_2" sampledSeconds="325.99" traveltime="53.34" density="13.75" occupancy="4.12" waitingTime="96.00" speed="4.45" departed="0" arrived="0" entered="6" left="7" laneChangedFrom="0" laneChangedTo="0"/>
        </edge>
    </interval>
</netstats>
