<?xml version="1.0" encoding="UTF-8"?>

<!-- generated on 2025-12-19T17:50:52.683123+01:00 by Eclipse SUMO sumo v1_25_0+0646-5052cf5c68d
This data file and the accompanying materials
are made available under the terms of the Eclipse Public License v2.0
which accompanies this distribution, and is available at
http://www.eclipse.org/legal/epl-v20.html
This file may also be made available under the following Secondary
Licenses when the conditions for such availability set forth in the Eclipse
Public License 2.0 are satisfied: GNU General Public License, version 2
or later which is available at
https://www.gnu.org/licenses/old-licenses/gpl-2.0-standalone.html
SPDX-License-Identifier: EPL-2.0 OR GPL-2.0-or-later
<sumoConfiguration xmlns:xsi="http://www.w3.org/2001/XMLSchema-instance" xsi:noNamespaceSchemaLocation="http://sumo.dlr.de/xsd/sumoConfiguration.xsd">

    <input>
        <net-file value="net.net.xml"/>
        <route-files value="input_routes.rou.xml"/>
        <additional-files value="input_additional.add.xml"/>
    </input>

    <output>
        <write-license value="true"/>
        <tripinfo-output value="tripinfos.xml"/>
        <railsignal-block-output value="railsignal_blocks.xml"/>
        <railsignal-vehicle-output value="railsignal_vehicles.xml"/>
    </output>

    <processing>
        <time-to-teleport.railsignal-deadlock value="200"/>
        <default.speeddev value="0"/>
    </processing>

    <routing>
        <device.rerouting.mode value="8"/>
    </routing>

    <report>
        <xml-validation value="never"/>
        <duration-log.disable value="true"/>
        <no-step-log value="true"/>
    </report>

    <mesoscopic>
        <mesosim value="true"/>
        <meso-junction-control value="true"/>
    </mesoscopic>

</sumoConfiguration>
-->

<railsignal-block-output>
    <railSignal id="J2">
        <link linkIndex="0" from="E1_0" to="E2_0">
            <driveWay id="J2.0" vehicle="t0" edges="E2 E3 E4 E5 E6 E6.1 E7">
                <forward lanes="E2_0 E3_0 E4_0 E5_0 E6_0"/>
                <bidi lanes=""/>
                <flank lanes=""/>
                <conflictLinks signals=""/>
                <foes driveWays="J1.d1.0 J2.0 J2.1.0"/>
            </driveWay>
            <subDriveWay id="J2.0.0" vehicle="" edges="E2 E3">
                <forward lanes="E2_0 E3_0"/>
            </subDriveWay>
            <driveWay id="J2.1" vehicle="t0" edges="E2 E3 E4b E5b E6b E7">
                <forward lanes="E2_0 E3_0 E4b_0 E5b_0"/>
                <bidi lanes=""/>
                <flank lanes=""/>
                <conflictLinks signals=""/>
                <foes driveWays="J1.d1 J2.0.0 J2.1"/>
            </driveWay>
            <subDriveWay id="J2.1.0" vehicle="" edges="E2 E3">
                <forward lanes="E2_0 E3_0"/>
            </subDriveWay>
        </link>
    </railSignal>
    <railSignal id="J4c">
        <link linkIndex="0" from="E3c_0" to="E4c_0"/>
    </railSignal>
    <railSignal id="J6.1">
        <link linkIndex="0" from="E6_0" to="E6.1_0">
            <driveWay id="J6.1.0" vehicle="t0" edges="E6.1 E7">
                <forward lanes="E6.1_0 E7_0"/>
                <bidi lanes=""/>
                <flank lanes=""/>
                <conflictLinks signals="J6b_0"/>
                <foes driveWays="J6.1.0 J6b.0"/>
            </driveWay>
        </link>
    </railSignal>
    <railSignal id="J6b">
        <link linkIndex="0" from="E5b_0" to="E6b_0">
            <driveWay id="J6b.0" vehicle="t0" edges="E6b E7">
                <forward lanes="E6b_0 E7_0"/>
                <bidi lanes=""/>
                <flank lanes=""/>
                <conflictLinks signals="J6.1_0"/>
                <foes driveWays="J6.1.0 J6b.0"/>
            </driveWay>
        </link>
    </railSignal>
    <departJunction id="J1">
        <driveWay id="J1.d0" vehicle="t0" edges="E1 E2 E3 E4 E5 E6 E6.1 E7">
            <forward lanes="E1_0"/>
            <bidi lanes=""/>
            <flank lanes=""/>
            <conflictLinks signals=""/>
            <foes driveWays="J1.d0"/>
        </driveWay>
        <driveWay id="J1.d1" vehicle="t0" edges="E3 E4b E5b E6b E7">
            <forward lanes="E3_0 E4b_0 E5b_0"/>
            <bidi lanes=""/>
            <flank lanes=""/>
            <conflictLinks signals="J2_0"/>
            <foes driveWays="J1.d1 J2.0.0 J2.1"/>
        </driveWay>
        <subDriveWay id="J1.d1.0" vehicle="" edges="E3">
            <forward lanes="E3_0"/>
        </subDriveWay>
    </departJunction>
</railsignal-block-output>
