<routes>
   <vType id="car" sigma="0" vClass="passenger"/>
   <vType id="train" sigma="0" vClass="rail"/>

   <flow id="NS" type="car" from="NC" to="CS" begin="0" end="400" period="7" departSpeed="max"/>
   <flow id="SN" type="car" from="SC" to="CN" begin="0" end="400" period="11" departSpeed="max"/>

   <flow id="EW" type="train" from="EC" to="CW" begin="0" end="400" period="55" departSpeed="max"/>
   <flow id="WE" type="train" from="WC" to="CE" begin="0" end="400" period="95" departSpeed="max">
       <stop edge="WC" endPos="-50" duration="30"/>
   </flow>
</routes>
