<?xml version="1.0"?>

<!-- generated on 01/05/11 14:52:04 by SUMO sumo Version dev-SVN-r9525
<?xml version="1.0" encoding="iso-8859-1"?>

<configuration xmlns:xsi="http://www.w3.org/2001/XMLSchema-instance" xsi:noNamespaceSchemaLocation="http://sumo.sf.net/xsd/sumoConfiguration.xsd">

    <input>
        <net-file value="net.net.xml"/>
        <additional-files value="input_routes.rou.xml,input_additional.add.xml"/>
    </input>

    <time>
        <begin value="0"/>
        <end value="150"/>
    </time>

    <report>
        <no-duration-log value="true"/>
        <no-step-log value="true"/>
    </report>

</configuration>
-->

<netstats>
    <interval begin="0.00" end="15.00" id="dump_15">
        <edge id="beg" sampledSeconds="14.00" CO_abs="1.8e+003" CO2_abs="1e+005" HC_abs="36" PMx_abs="14" NOx_abs="2.3e+002" fuel_abs="42"
            CO_normed="8.5e+002" CO2_normed="5e+004" HC_normed="17" PMx_normed="6.8" NOx_normed="1.1e+002" fuel_normed="20"
            traveltime="38" CO_perVeh="4.8" CO2_perVeh="2.8e+002" HC_perVeh="0.096" PMx_perVeh="0.038" NOx_perVeh="0.63" fuel_perVeh="0.11"/>
    </interval>
    <interval begin="0.00" end="15.00" id="dump_15_internal">
        <edge id="beg" sampledSeconds="14.00" CO_abs="1.8e+003" CO2_abs="1e+005" HC_abs="36" PMx_abs="14" NOx_abs="2.3e+002" fuel_abs="42"
            CO_normed="8.5e+002" CO2_normed="5e+004" HC_normed="17" PMx_normed="6.8" NOx_normed="1.1e+002" fuel_normed="20"
            traveltime="38" CO_perVeh="4.8" CO2_perVeh="2.8e+002" HC_perVeh="0.096" PMx_perVeh="0.038" NOx_perVeh="0.63" fuel_perVeh="0.11"/>
    </interval>
    <interval begin="15.00" end="30.00" id="dump_15">
        <edge id="beg" sampledSeconds="12.57" CO_abs="1.3e+003" CO2_abs="7.4e+004" HC_abs="23" PMx_abs="8" NOx_abs="1.6e+002" fuel_abs="30"
            CO_normed="6.1e+002" CO2_normed="3.6e+004" HC_normed="11" PMx_normed="3.8" NOx_normed="78" fuel_normed="14"
            traveltime="20" CO_perVeh="2" CO2_perVeh="1.2e+002" HC_perVeh="0.038" PMx_perVeh="0.013" NOx_perVeh="0.26" fuel_perVeh="0.048"/>
        <edge id="middle" sampledSeconds="1.95" CO_abs="47" CO2_abs="6.6e+003" HC_abs="1.6" PMx_abs="0.52" NOx_abs="12" fuel_abs="2.6"
            CO_normed="11" CO2_normed="1.6e+003" HC_normed="0.39" PMx_normed="0.13" NOx_normed="3" fuel_normed="0.63"
            traveltime="74" CO_perVeh="1.8" CO2_perVeh="2.5e+002" HC_perVeh="0.061" PMx_perVeh="0.02" NOx_perVeh="0.47" fuel_perVeh="0.099"/>
    </interval>
    <interval begin="15.00" end="30.00" id="dump_15_internal">
        <edge id=":beg_0" sampledSeconds="0.48" CO_abs="1.8" CO2_abs="2e+002" HC_abs="0.052" PMx_abs="0.017" NOx_abs="0.38" fuel_abs="0.078"
            CO_normed="70" CO2_normed="7.6e+003" HC_normed="2" PMx_normed="0.66" NOx_normed="15" fuel_normed="3"
            traveltime="0.48" CO_perVeh="0.0018" CO2_perVeh="0.2" HC_perVeh="5.2e-005" PMx_perVeh="1.7e-005" NOx_perVeh="0.00038" fuel_perVeh="7.8e-005"/>
        <edge id="beg" sampledSeconds="12.57" CO_abs="1.3e+003" CO2_abs="7.4e+004" HC_abs="23" PMx_abs="8" NOx_abs="1.6e+002" fuel_abs="30"
            CO_normed="6.1e+002" CO2_normed="3.6e+004" HC_normed="11" PMx_normed="3.8" NOx_normed="78" fuel_normed="14"
            traveltime="20" CO_perVeh="2" CO2_perVeh="1.2e+002" HC_perVeh="0.038" PMx_perVeh="0.013" NOx_perVeh="0.26" fuel_perVeh="0.048"/>
        <edge id="middle" sampledSeconds="1.95" CO_abs="47" CO2_abs="6.6e+003" HC_abs="1.6" PMx_abs="0.52" NOx_abs="12" fuel_abs="2.6"
            CO_normed="11" CO2_normed="1.6e+003" HC_normed="0.39" PMx_normed="0.13" NOx_normed="3" fuel_normed="0.63"
            traveltime="74" CO_perVeh="1.8" CO2_perVeh="2.5e+002" HC_perVeh="0.061" PMx_perVeh="0.02" NOx_perVeh="0.47" fuel_perVeh="0.099"/>
    </interval>
    <interval begin="30.00" end="45.00" id="dump_15">
        <edge id="middle" sampledSeconds="15.00" CO_abs="2.1e+002" CO2_abs="4.3e+004" HC_abs="9.5" PMx_abs="3.1" NOx_abs="79" fuel_abs="17"
            CO_normed="51" CO2_normed="1e+004" HC_normed="2.3" PMx_normed="0.76" NOx_normed="19" fuel_normed="4.2"
            traveltime="73" CO_perVeh="1" CO2_perVeh="2.1e+002" HC_perVeh="0.046" PMx_perVeh="0.015" NOx_perVeh="0.38" fuel_perVeh="0.084"/>
    </interval>
    <interval begin="30.00" end="45.00" id="dump_15_internal">
        <edge id="middle" sampledSeconds="15.00" CO_abs="2.1e+002" CO2_abs="4.3e+004" HC_abs="9.5" PMx_abs="3.1" NOx_abs="79" fuel_abs="17"
            CO_normed="51" CO2_normed="1e+004" HC_normed="2.3" PMx_normed="0.76" NOx_normed="19" fuel_normed="4.2"
            traveltime="73" CO_perVeh="1" CO2_perVeh="2.1e+002" HC_perVeh="0.046" PMx_perVeh="0.015" NOx_perVeh="0.38" fuel_perVeh="0.084"/>
    </interval>
    <interval begin="45.00" end="60.00" id="dump_15">
        <edge id="middle" sampledSeconds="15.00" CO_abs="2.9e+002" CO2_abs="4.7e+004" HC_abs="11" PMx_abs="3.5" NOx_abs="87" fuel_abs="19"
            CO_normed="70" CO2_normed="1.1e+004" HC_normed="2.7" PMx_normed="0.86" NOx_normed="21" fuel_normed="4.5"
            traveltime="74" CO_perVeh="1.4" CO2_perVeh="2.3e+002" HC_perVeh="0.055" PMx_perVeh="0.018" NOx_perVeh="0.43" fuel_perVeh="0.093"/>
    </interval>
    <interval begin="45.00" end="60.00" id="dump_15_internal">
        <edge id="middle" sampledSeconds="15.00" CO_abs="2.9e+002" CO2_abs="4.7e+004" HC_abs="11" PMx_abs="3.5" NOx_abs="87" fuel_abs="19"
            CO_normed="70" CO2_normed="1.1e+004" HC_normed="2.7" PMx_normed="0.86" NOx_normed="21" fuel_normed="4.5"
            traveltime="74" CO_perVeh="1.4" CO2_perVeh="2.3e+002" HC_perVeh="0.055" PMx_perVeh="0.018" NOx_perVeh="0.43" fuel_perVeh="0.093"/>
    </interval>
    <interval begin="60.00" end="75.00" id="dump_15">
        <edge id="middle" sampledSeconds="15.00" CO_abs="2.1e+002" CO2_abs="4.3e+004" HC_abs="9.4" PMx_abs="3.2" NOx_abs="78" fuel_abs="17"
            CO_normed="51" CO2_normed="1e+004" HC_normed="2.3" PMx_normed="0.76" NOx_normed="19" fuel_normed="4.2"
            traveltime="74" CO_perVeh="1" CO2_perVeh="2.1e+002" HC_perVeh="0.046" PMx_perVeh="0.015" NOx_perVeh="0.38" fuel_perVeh="0.084"/>
    </interval>
    <interval begin="60.00" end="75.00" id="dump_15_internal">
        <edge id="middle" sampledSeconds="15.00" CO_abs="2.1e+002" CO2_abs="4.3e+004" HC_abs="9.4" PMx_abs="3.2" NOx_abs="78" fuel_abs="17"
            CO_normed="51" CO2_normed="1e+004" HC_normed="2.3" PMx_normed="0.76" NOx_normed="19" fuel_normed="4.2"
            traveltime="74" CO_perVeh="1" CO2_perVeh="2.1e+002" HC_perVeh="0.046" PMx_perVeh="0.015" NOx_perVeh="0.38" fuel_perVeh="0.084"/>
    </interval>
    <interval begin="75.00" end="90.00" id="dump_15">
        <edge id="middle" sampledSeconds="15.00" CO_abs="2e+002" CO2_abs="4.3e+004" HC_abs="9.4" PMx_abs="3" NOx_abs="78" fuel_abs="17"
            CO_normed="49" CO2_normed="1e+004" HC_normed="2.3" PMx_normed="0.74" NOx_normed="19" fuel_normed="4.1"
            traveltime="74" CO_perVeh="0.99" CO2_perVeh="2.1e+002" HC_perVeh="0.046" PMx_perVeh="0.015" NOx_perVeh="0.38" fuel_perVeh="0.084"/>
    </interval>
    <interval begin="75.00" end="90.00" id="dump_15_internal">
        <edge id="middle" sampledSeconds="15.00" CO_abs="2e+002" CO2_abs="4.3e+004" HC_abs="9.4" PMx_abs="3" NOx_abs="78" fuel_abs="17"
            CO_normed="49" CO2_normed="1e+004" HC_normed="2.3" PMx_normed="0.74" NOx_normed="19" fuel_normed="4.1"
            traveltime="74" CO_perVeh="0.99" CO2_perVeh="2.1e+002" HC_perVeh="0.046" PMx_perVeh="0.015" NOx_perVeh="0.38" fuel_perVeh="0.084"/>
    </interval>
    <interval begin="90.00" end="105.00" id="dump_15">
        <edge id="end" sampledSeconds="0.49" CO_abs="40" CO2_abs="2.5e+003" HC_abs="0.86" PMx_abs="0.34" NOx_abs="5.5" fuel_abs="0.98"
            CO_normed="19" CO2_normed="1.2e+003" HC_normed="0.42" PMx_normed="0.17" NOx_normed="2.6" fuel_normed="0.47"
            traveltime="70" CO_perVeh="5.7" CO2_perVeh="3.5e+002" HC_perVeh="0.12" PMx_perVeh="0.049" NOx_perVeh="0.77" fuel_perVeh="0.14"/>
        <edge id="middle" sampledSeconds="13.53" CO_abs="2.3e+002" CO2_abs="3.3e+004" HC_abs="8.1" PMx_abs="2.7" NOx_abs="63" fuel_abs="13"
            CO_normed="55" CO2_normed="8.1e+003" HC_normed="2" PMx_normed="0.65" NOx_normed="15" fuel_normed="3.2"
            traveltime="85" CO_perVeh="1.4" CO2_perVeh="2.1e+002" HC_perVeh="0.051" PMx_perVeh="0.017" NOx_perVeh="0.39" fuel_perVeh="0.084"/>
    </interval>
    <interval begin="90.00" end="105.00" id="dump_15_internal">
        <edge id=":end_1" sampledSeconds="0.98" CO_abs="73" CO2_abs="4.4e+003" HC_abs="1.6" PMx_abs="0.62" NOx_abs="9.8" fuel_abs="1.8"
            CO_normed="2.8e+003" CO2_normed="1.7e+005" HC_normed="61" PMx_normed="24" NOx_normed="3.8e+002" fuel_normed="69"
            traveltime="0.98" CO_perVeh="0.073" CO2_perVeh="4.4" HC_perVeh="0.0016" PMx_perVeh="0.00062" NOx_perVeh="0.0098" fuel_perVeh="0.0018"/>
        <edge id="end" sampledSeconds="0.49" CO_abs="40" CO2_abs="2.5e+003" HC_abs="0.86" PMx_abs="0.34" NOx_abs="5.5" fuel_abs="0.98"
            CO_normed="19" CO2_normed="1.2e+003" HC_normed="0.42" PMx_normed="0.17" NOx_normed="2.6" fuel_normed="0.47"
            traveltime="70" CO_perVeh="5.7" CO2_perVeh="3.5e+002" HC_perVeh="0.12" PMx_perVeh="0.049" NOx_perVeh="0.77" fuel_perVeh="0.14"/>
        <edge id="middle" sampledSeconds="13.53" CO_abs="2.3e+002" CO2_abs="3.3e+004" HC_abs="8.1" PMx_abs="2.7" NOx_abs="63" fuel_abs="13"
            CO_normed="55" CO2_normed="8.1e+003" HC_normed="2" PMx_normed="0.65" NOx_normed="15" fuel_normed="3.2"
            traveltime="85" CO_perVeh="1.4" CO2_perVeh="2.1e+002" HC_perVeh="0.051" PMx_perVeh="0.017" NOx_perVeh="0.39" fuel_perVeh="0.084"/>
    </interval>
    <interval begin="105.00" end="120.00" id="dump_15">
        <edge id="end" sampledSeconds="15.00" CO_abs="2.4e+003" CO2_abs="1.4e+005" HC_abs="47" PMx_abs="18" NOx_abs="3.2e+002" fuel_abs="56"
            CO_normed="1.2e+003" CO2_normed="6.8e+004" HC_normed="23" PMx_normed="8.7" NOx_normed="1.5e+002" fuel_normed="27"
            traveltime="26" CO_perVeh="4.2" CO2_perVeh="2.4e+002" HC_perVeh="0.08" PMx_perVeh="0.031" NOx_perVeh="0.54" fuel_perVeh="0.096"/>
    </interval>
    <interval begin="105.00" end="120.00" id="dump_15_internal">
        <edge id="end" sampledSeconds="15.00" CO_abs="2.4e+003" CO2_abs="1.4e+005" HC_abs="47" PMx_abs="18" NOx_abs="3.2e+002" fuel_abs="56"
            CO_normed="1.2e+003" CO2_normed="6.8e+004" HC_normed="23" PMx_normed="8.7" NOx_normed="1.5e+002" fuel_normed="27"
            traveltime="26" CO_perVeh="4.2" CO2_perVeh="2.4e+002" HC_perVeh="0.08" PMx_perVeh="0.031" NOx_perVeh="0.54" fuel_perVeh="0.096"/>
    </interval>
    <interval begin="120.00" end="135.00" id="dump_15">
        <edge id="end" sampledSeconds="7.44" CO_abs="7.7e+002" CO2_abs="4.9e+004" HC_abs="14" PMx_abs="4.4" NOx_abs="1e+002" fuel_abs="20"
            CO_normed="3.7e+002" CO2_normed="2.4e+004" HC_normed="6.9" PMx_normed="2.1" NOx_normed="51" fuel_normed="9.5"
            traveltime="18" CO_perVeh="1.9" CO2_perVeh="1.2e+002" HC_perVeh="0.035" PMx_perVeh="0.011" NOx_perVeh="0.26" fuel_perVeh="0.048"/>
        <edge id="rend" sampledSeconds="0.56" CO_abs="69" CO2_abs="4.3e+003" HC_abs="1.3" PMx_abs="0.39" NOx_abs="9.1" fuel_abs="1.7"
            CO_normed="33" CO2_normed="2e+003" HC_normed="0.62" PMx_normed="0.19" NOx_normed="4.4" fuel_normed="0.81"
            traveltime="18" CO_perVeh="2.3" CO2_perVeh="1.4e+002" HC_perVeh="0.042" PMx_perVeh="0.013" NOx_perVeh="0.3" fuel_perVeh="0.055"/>
    </interval>
    <interval begin="120.00" end="135.00" id="dump_15_internal">
        <edge id=":absEnd_0" sampledSeconds="0.00" CO_abs="0.45" CO2_abs="28" HC_abs="0.0084" PMx_abs="0.0025" NOx_abs="0.059" fuel_abs="0.011"
            CO_normed="1.1e+003" CO2_normed="6.6e+004" HC_normed="20" PMx_normed="6.1" NOx_normed="1.4e+002" fuel_normed="27"
            traveltime="0.0036" CO_perVeh="0.00045" CO2_perVeh="0.028" HC_perVeh="8.4e-006" PMx_perVeh="2.5e-006" NOx_perVeh="5.9e-005" fuel_perVeh="1.1e-005"/>
        <edge id="end" sampledSeconds="7.44" CO_abs="7.7e+002" CO2_abs="4.9e+004" HC_abs="14" PMx_abs="4.4" NOx_abs="1e+002" fuel_abs="20"
            CO_normed="3.7e+002" CO2_normed="2.4e+004" HC_normed="6.9" PMx_normed="2.1" NOx_normed="51" fuel_normed="9.5"
            traveltime="18" CO_perVeh="1.9" CO2_perVeh="1.2e+002" HC_perVeh="0.035" PMx_perVeh="0.011" NOx_perVeh="0.26" fuel_perVeh="0.048"/>
        <edge id="rend" sampledSeconds="0.56" CO_abs="69" CO2_abs="4.3e+003" HC_abs="1.3" PMx_abs="0.39" NOx_abs="9.1" fuel_abs="1.7"
            CO_normed="33" CO2_normed="2e+003" HC_normed="0.62" PMx_normed="0.19" NOx_normed="4.4" fuel_normed="0.81"
            traveltime="18" CO_perVeh="2.3" CO2_perVeh="1.4e+002" HC_perVeh="0.042" PMx_perVeh="0.013" NOx_perVeh="0.3" fuel_perVeh="0.055"/>
    </interval>
    <interval begin="135.00" end="150.00" id="dump_15">
    </interval>
    <interval begin="135.00" end="150.00" id="dump_15_internal">
    </interval>
</netstats>
