<?xml version="1.0"?>

<!-- generated on 02/13/12 15:05:25 by SUMO sumo Version dev-SVN-r11881
<?xml version="1.0" encoding="UTF-8"?>

<configuration xmlns:xsi="http://www.w3.org/2001/XMLSchema-instance" xsi:noNamespaceSchemaLocation="http://sumo.sf.net/xsd/sumoConfiguration.xsd">

    <input>
        <net-file value="net.net.xml"/>
        <additional-files value="input_routes.rou.xml,input_additional.add.xml"/>
    </input>

    <time>
        <begin value="0"/>
        <end value="150"/>
    </time>

    <report>
        <no-duration-log value="true"/>
        <no-step-log value="true"/>
    </report>

</configuration>
-->

<netstats>
    <interval begin="0.00" end="15.00" id="dump_15">
        <edge id="beg" sampledSeconds="14.00" CO_abs="2830.627373" CO2_abs="147114.431694" HC_abs="52.744780" PMx_abs="22.425949" NOx_abs="344.058766" fuel_abs="58.652284"
            CO_normed="1362.652832" CO2_normed="70820.306101" HC_normed="25.391129" PMx_normed="10.795763" NOx_normed="165.628531" fuel_normed="28.234978"
            traveltime="34.09" CO_perVeh="6892.295238" CO2_perVeh="358208.963429" HC_perVeh="128.428278" PMx_perVeh="54.604947" NOx_perVeh="837.748769" fuel_perVeh="142.812460"/>
    </interval>
    <interval begin="0.00" end="15.00" id="dump_15_internal">
        <edge id="beg" sampledSeconds="14.00" CO_abs="2830.627373" CO2_abs="147114.431694" HC_abs="52.744780" PMx_abs="22.425949" NOx_abs="344.058766" fuel_abs="58.652284"
            CO_normed="1362.652832" CO2_normed="70820.306101" HC_normed="25.391129" PMx_normed="10.795763" NOx_normed="165.628531" fuel_normed="28.234978"
            traveltime="34.09" CO_perVeh="6892.295238" CO2_perVeh="358208.963429" HC_perVeh="128.428278" PMx_perVeh="54.604947" NOx_perVeh="837.748769" fuel_perVeh="142.812460"/>
    </interval>
    <interval begin="15.00" end="30.00" id="dump_15">
        <edge id="beg" sampledSeconds="12.12" CO_abs="899.687865" CO2_abs="56996.659724" HC_abs="16.840238" PMx_abs="5.296764" NOx_abs="121.731072" fuel_abs="22.723796"
            CO_normed="433.106183" CO2_normed="27437.966771" HC_normed="8.106824" PMx_normed="2.549841" NOx_normed="58.600857" fuel_normed="10.939146"
            traveltime="20.58" CO_perVeh="1527.211460" CO2_perVeh="96751.279276" HC_perVeh="28.586142" PMx_perVeh="8.991206" NOx_perVeh="206.637319" fuel_perVeh="38.573425"/>
        <edge id="middle" sampledSeconds="2.78" CO_abs="99.151144" CO2_abs="10751.599238" HC_abs="2.872464" PMx_abs="0.950266" NOx_abs="21.057476" fuel_abs="4.286499"
            CO_normed="24.024507" CO2_normed="2605.132576" HC_normed="0.696003" PMx_normed="0.230251" NOx_normed="5.102266" fuel_normed="1.038627"
            traveltime="75.41" CO_perVeh="2685.058421" CO2_perVeh="291158.233441" HC_perVeh="77.787635" PMx_perVeh="25.733639" NOx_perVeh="570.246104" fuel_perVeh="116.080369"/>
    </interval>
    <interval begin="15.00" end="30.00" id="dump_15_internal">
        <edge id=":beg_0" sampledSeconds="0.88" CO_abs="25.694746" CO2_abs="2512.333971" HC_abs="0.700605" PMx_abs="0.232747" NOx_abs="4.999587" fuel_abs="1.001629"
            CO_normed="994.635331" CO2_normed="97251.637592" HC_normed="27.120190" PMx_normed="9.009565" NOx_normed="193.532393" fuel_normed="38.772745"
            traveltime="0.49" CO_perVeh="14.223877" CO2_perVeh="1390.756305" HC_perVeh="0.387835" PMx_perVeh="0.128842" NOx_perVeh="2.767628" fuel_perVeh="0.554473"/>
        <edge id="beg" sampledSeconds="12.12" CO_abs="899.687865" CO2_abs="56996.659724" HC_abs="16.840238" PMx_abs="5.296764" NOx_abs="121.731072" fuel_abs="22.723796"
            CO_normed="433.106183" CO2_normed="27437.966771" HC_normed="8.106824" PMx_normed="2.549841" NOx_normed="58.600857" fuel_normed="10.939146"
            traveltime="20.58" CO_perVeh="1527.211460" CO2_perVeh="96751.279276" HC_perVeh="28.586142" PMx_perVeh="8.991206" NOx_perVeh="206.637319" fuel_perVeh="38.573425"/>
        <edge id="middle" sampledSeconds="2.78" CO_abs="99.151144" CO2_abs="10751.599238" HC_abs="2.872464" PMx_abs="0.950266" NOx_abs="21.057476" fuel_abs="4.286499"
            CO_normed="24.024507" CO2_normed="2605.132576" HC_normed="0.696003" PMx_normed="0.230251" NOx_normed="5.102266" fuel_normed="1.038627"
            traveltime="75.41" CO_perVeh="2685.058421" CO2_perVeh="291158.233441" HC_perVeh="77.787635" PMx_perVeh="25.733639" NOx_perVeh="570.246104" fuel_perVeh="116.080369"/>
    </interval>
    <interval begin="30.00" end="45.00" id="dump_15">
        <edge id="middle" sampledSeconds="15.00" CO_abs="286.353109" CO2_abs="46494.619550" HC_abs="10.848913" PMx_abs="3.625820" NOx_abs="86.644532" fuel_abs="18.536706"
            CO_normed="69.383893" CO2_normed="11265.733157" HC_normed="2.628712" PMx_normed="0.878543" NOx_normed="20.994132" fuel_normed="4.491478"
            traveltime="73.84" CO_perVeh="1409.703374" CO2_perVeh="228890.904024" HC_perVeh="53.408709" PMx_perVeh="17.849749" NOx_perVeh="426.547102" fuel_perVeh="91.255363"/>
    </interval>
    <interval begin="30.00" end="45.00" id="dump_15_internal">
        <edge id="middle" sampledSeconds="15.00" CO_abs="286.353109" CO2_abs="46494.619550" HC_abs="10.848913" PMx_abs="3.625820" NOx_abs="86.644532" fuel_abs="18.536706"
            CO_normed="69.383893" CO2_normed="11265.733157" HC_normed="2.628712" PMx_normed="0.878543" NOx_normed="20.994132" fuel_normed="4.491478"
            traveltime="73.84" CO_perVeh="1409.703374" CO2_perVeh="228890.904024" HC_perVeh="53.408709" PMx_perVeh="17.849749" NOx_perVeh="426.547102" fuel_perVeh="91.255363"/>
    </interval>
    <interval begin="45.00" end="60.00" id="dump_15">
        <edge id="middle" sampledSeconds="15.00" CO_abs="389.760977" CO2_abs="51331.806976" HC_abs="12.837312" PMx_abs="4.203413" NOx_abs="97.825736" fuel_abs="20.465216"
            CO_normed="94.439813" CO2_normed="12437.792705" HC_normed="3.110505" PMx_normed="1.018495" NOx_normed="23.703358" fuel_normed="4.958760"
            traveltime="75.00" CO_perVeh="1948.766668" CO2_perVeh="256654.001498" HC_perVeh="64.185302" PMx_perVeh="21.016654" NOx_perVeh="489.119086" fuel_perVeh="102.324072"/>
    </interval>
    <interval begin="45.00" end="60.00" id="dump_15_internal">
        <edge id="middle" sampledSeconds="15.00" CO_abs="389.760977" CO2_abs="51331.806976" HC_abs="12.837312" PMx_abs="4.203413" NOx_abs="97.825736" fuel_abs="20.465216"
            CO_normed="94.439813" CO2_normed="12437.792705" HC_normed="3.110505" PMx_normed="1.018495" NOx_normed="23.703358" fuel_normed="4.958760"
            traveltime="75.00" CO_perVeh="1948.766668" CO2_perVeh="256654.001498" HC_perVeh="64.185302" PMx_perVeh="21.016654" NOx_perVeh="489.119086" fuel_perVeh="102.324072"/>
    </interval>
    <interval begin="60.00" end="75.00" id="dump_15">
        <edge id="middle" sampledSeconds="15.00" CO_abs="284.415415" CO2_abs="46301.983861" HC_abs="10.809732" PMx_abs="3.644900" NOx_abs="86.352378" fuel_abs="18.459905"
            CO_normed="68.914386" CO2_normed="11219.057170" HC_normed="2.619218" PMx_normed="0.883166" NOx_normed="20.923342" fuel_normed="4.472869"
            traveltime="74.15" CO_perVeh="1406.000100" CO2_perVeh="228892.635340" HC_perVeh="53.437626" PMx_perVeh="18.018466" NOx_perVeh="426.880702" fuel_perVeh="91.256052"/>
    </interval>
    <interval begin="60.00" end="75.00" id="dump_15_internal">
        <edge id="middle" sampledSeconds="15.00" CO_abs="284.415415" CO2_abs="46301.983861" HC_abs="10.809732" PMx_abs="3.644900" NOx_abs="86.352378" fuel_abs="18.459905"
            CO_normed="68.914386" CO2_normed="11219.057170" HC_normed="2.619218" PMx_normed="0.883166" NOx_normed="20.923342" fuel_normed="4.472869"
            traveltime="74.15" CO_perVeh="1406.000100" CO2_perVeh="228892.635340" HC_perVeh="53.437626" PMx_perVeh="18.018466" NOx_perVeh="426.880702" fuel_perVeh="91.256052"/>
    </interval>
    <interval begin="75.00" end="90.00" id="dump_15">
        <edge id="middle" sampledSeconds="15.00" CO_abs="272.385889" CO2_abs="46098.948697" HC_abs="10.689665" PMx_abs="3.470033" NOx_abs="85.379752" fuel_abs="18.378958"
            CO_normed="65.999610" CO2_normed="11169.861370" HC_normed="2.590126" PMx_normed="0.840795" NOx_normed="20.687673" fuel_normed="4.453256"
            traveltime="74.09" CO_perVeh="1345.339973" CO2_perVeh="227687.119408" HC_perVeh="52.797281" PMx_perVeh="17.138825" NOx_perVeh="421.698768" fuel_perVeh="90.775432"/>
    </interval>
    <interval begin="75.00" end="90.00" id="dump_15_internal">
        <edge id="middle" sampledSeconds="15.00" CO_abs="272.385889" CO2_abs="46098.948697" HC_abs="10.689665" PMx_abs="3.470033" NOx_abs="85.379752" fuel_abs="18.378958"
            CO_normed="65.999610" CO2_normed="11169.861370" HC_normed="2.590126" PMx_normed="0.840795" NOx_normed="20.687673" fuel_normed="4.453256"
            traveltime="74.09" CO_perVeh="1345.339973" CO2_perVeh="227687.119408" HC_perVeh="52.797281" PMx_perVeh="17.138825" NOx_perVeh="421.698768" fuel_perVeh="90.775432"/>
    </interval>
    <interval begin="90.00" end="105.00" id="dump_15">
        <edge id="end" sampledSeconds="0.04" CO_abs="3.202066" CO2_abs="187.601012" HC_abs="0.067227" PMx_abs="0.027364" NOx_abs="0.420989" fuel_abs="0.074794"
            CO_normed="1.541462" CO2_normed="90.310386" HC_normed="0.032363" PMx_normed="0.013173" NOx_normed="0.202662" fuel_normed="0.036005"
            traveltime="76.98" CO_perVeh="6570.028168" CO2_perVeh="384921.512832" HC_perVeh="137.936709" PMx_perVeh="56.146323" NOx_perVeh="863.789295" fuel_perVeh="153.462203"/>
        <edge id="middle" sampledSeconds="14.78" CO_abs="346.014608" CO2_abs="39715.945371" HC_abs="10.509879" PMx_abs="3.645614" NOx_abs="77.287088" fuel_abs="15.834144"
            CO_normed="83.839986" CO2_normed="9623.247743" HC_normed="2.546563" PMx_normed="0.883339" NOx_normed="18.726806" fuel_normed="3.836643"
            traveltime="92.22" CO_perVeh="2159.434890" CO2_perVeh="247862.362267" HC_perVeh="65.590869" PMx_perVeh="22.751833" NOx_perVeh="482.339272" fuel_perVeh="98.818961"/>
    </interval>
    <interval begin="90.00" end="105.00" id="dump_15_internal">
        <edge id=":end_1" sampledSeconds="0.99" CO_abs="84.907360" CO2_abs="4974.509806" HC_abs="1.782617" PMx_abs="0.725604" NOx_abs="11.163129" fuel_abs="1.983259"
            CO_normed="3286.736525" CO2_normed="192561.669920" HC_normed="69.004517" PMx_normed="28.087881" NOx_normed="432.121104" fuel_normed="76.771334"
            traveltime="0.96" CO_perVeh="81.705295" CO2_perVeh="4786.908795" HC_perVeh="1.715390" PMx_perVeh="0.698239" NOx_perVeh="10.742139" fuel_perVeh="1.908466"/>
        <edge id="end" sampledSeconds="0.04" CO_abs="3.202066" CO2_abs="187.601012" HC_abs="0.067227" PMx_abs="0.027364" NOx_abs="0.420989" fuel_abs="0.074794"
            CO_normed="1.541462" CO2_normed="90.310386" HC_normed="0.032363" PMx_normed="0.013173" NOx_normed="0.202662" fuel_normed="0.036005"
            traveltime="76.98" CO_perVeh="6570.028168" CO2_perVeh="384921.512832" HC_perVeh="137.936709" PMx_perVeh="56.146323" NOx_perVeh="863.789295" fuel_perVeh="153.462203"/>
        <edge id="middle" sampledSeconds="14.78" CO_abs="346.014608" CO2_abs="39715.945371" HC_abs="10.509879" PMx_abs="3.645614" NOx_abs="77.287088" fuel_abs="15.834144"
            CO_normed="83.839986" CO2_normed="9623.247743" HC_normed="2.546563" PMx_normed="0.883339" NOx_normed="18.726806" fuel_normed="3.836643"
            traveltime="92.22" CO_perVeh="2159.434890" CO2_perVeh="247862.362267" HC_perVeh="65.590869" PMx_perVeh="22.751833" NOx_perVeh="482.339272" fuel_perVeh="98.818961"/>
    </interval>
    <interval begin="105.00" end="120.00" id="dump_15">
        <edge id="end" sampledSeconds="15.00" CO_abs="3150.614018" CO2_abs="167574.265667" HC_abs="58.067676" PMx_abs="23.960869" NOx_abs="387.660213" fuel_abs="66.809360"
            CO_normed="1516.693139" CO2_normed="80669.589329" HC_normed="27.953550" PMx_normed="11.534668" NOx_normed="186.618095" fuel_normed="32.161762"
            traveltime="24.41" CO_perVeh="5126.276214" CO2_perVeh="272655.414912" HC_perVeh="94.480296" PMx_perVeh="38.986062" NOx_perVeh="630.751123" fuel_perVeh="108.703647"/>
    </interval>
    <interval begin="105.00" end="120.00" id="dump_15_internal">
        <edge id=":end_1" sampledSeconds="0.61" CO_abs="62.175568" CO2_abs="3591.002776" HC_abs="1.274300" PMx_abs="0.533008" NOx_abs="8.135482" fuel_abs="1.431677"
            CO_normed="2406.796177" CO2_normed="139006.559084" HC_normed="49.327737" PMx_normed="20.632579" NOx_normed="314.921876" fuel_normed="55.419749"
            traveltime="0.79" CO_perVeh="81.035727" CO2_perVeh="4680.287305" HC_perVeh="1.660842" PMx_perVeh="0.694690" NOx_perVeh="10.603276" fuel_perVeh="1.865958"/>
        <edge id="end" sampledSeconds="15.00" CO_abs="3150.614018" CO2_abs="167574.265667" HC_abs="58.067676" PMx_abs="23.960869" NOx_abs="387.660213" fuel_abs="66.809360"
            CO_normed="1516.693139" CO2_normed="80669.589329" HC_normed="27.953550" PMx_normed="11.534668" NOx_normed="186.618095" fuel_normed="32.161762"
            traveltime="24.41" CO_perVeh="5126.276214" CO2_perVeh="272655.414912" HC_perVeh="94.480296" PMx_perVeh="38.986062" NOx_perVeh="630.751123" fuel_perVeh="108.703647"/>
    </interval>
    <interval begin="120.00" end="135.00" id="dump_15">
        <edge id="end" sampledSeconds="7.26" CO_abs="934.452992" CO2_abs="57119.832049" HC_abs="17.455084" PMx_abs="5.569674" NOx_abs="123.313879" fuel_abs="22.772890"
            CO_normed="449.841978" CO2_normed="27497.261442" HC_normed="8.402808" PMx_normed="2.681219" NOx_normed="59.362814" fuel_normed="10.962779"
            traveltime="18.39" CO_perVeh="2366.058378" CO2_perVeh="144628.845288" HC_perVeh="44.196709" PMx_perVeh="14.102553" NOx_perVeh="312.233829" fuel_perVeh="57.661529"/>
        <edge id="rend" sampledSeconds="7.92" CO_abs="983.035150" CO2_abs="60684.436063" HC_abs="18.390472" PMx_abs="5.777690" NOx_abs="130.473679" fuel_abs="24.194053"
            CO_normed="471.856872" CO2_normed="29128.529310" HC_normed="8.827427" PMx_normed="2.773291" NOx_normed="62.627366" fuel_normed="11.613145"
            traveltime="18.39" CO_perVeh="2283.814000" CO2_perVeh="140983.732494" HC_perVeh="42.725246" PMx_perVeh="13.422886" NOx_perVeh="303.120000" fuel_perVeh="56.208281"/>
    </interval>
    <interval begin="120.00" end="135.00" id="dump_15_internal">
        <edge id=":absEnd_0" sampledSeconds="0.18" CO_abs="31.992008" CO2_abs="1819.721587" HC_abs="0.589452" PMx_abs="0.191059" NOx_abs="4.006533" fuel_abs="0.725497"
            CO_normed="76780.820212" CO2_normed="4367331.809876" HC_normed="1414.684972" PMx_normed="458.541886" NOx_normed="9615.678721" fuel_normed="1741.193753"
            traveltime="3.623140e-003" CO_perVeh="0.627294" CO2_perVeh="35.680815" HC_perVeh="0.011558" PMx_perVeh="0.003746" NOx_perVeh="0.078559" fuel_perVeh="0.014225"/>
        <edge id="end" sampledSeconds="7.26" CO_abs="934.452992" CO2_abs="57119.832049" HC_abs="17.455084" PMx_abs="5.569674" NOx_abs="123.313879" fuel_abs="22.772890"
            CO_normed="449.841978" CO2_normed="27497.261442" HC_normed="8.402808" PMx_normed="2.681219" NOx_normed="59.362814" fuel_normed="10.962779"
            traveltime="18.39" CO_perVeh="2366.058378" CO2_perVeh="144628.845288" HC_perVeh="44.196709" PMx_perVeh="14.102553" NOx_perVeh="312.233829" fuel_perVeh="57.661529"/>
        <edge id="rend" sampledSeconds="7.92" CO_abs="983.035150" CO2_abs="60684.436063" HC_abs="18.390472" PMx_abs="5.777690" NOx_abs="130.473679" fuel_abs="24.194053"
            CO_normed="471.856872" CO2_normed="29128.529310" HC_normed="8.827427" PMx_normed="2.773291" NOx_normed="62.627366" fuel_normed="11.613145"
            traveltime="18.39" CO_perVeh="2283.814000" CO2_perVeh="140983.732494" HC_perVeh="42.725246" PMx_perVeh="13.422886" NOx_perVeh="303.120000" fuel_perVeh="56.208281"/>
    </interval>
    <interval begin="135.00" end="150.00" id="dump_15">
        <edge id="rend" sampledSeconds="10.73" CO_abs="1383.560867" CO2_abs="84817.142045" HC_abs="25.936252" PMx_abs="8.237648" NOx_abs="182.950679" fuel_abs="33.815424"
            CO_normed="664.109216" CO2_normed="40712.228182" HC_normed="12.449401" PMx_normed="3.954071" NOx_normed="87.816326" fuel_normed="16.231403"
            traveltime="18.51" CO_perVeh="2387.243215" CO2_perVeh="146346.396239" HC_perVeh="44.751295" PMx_perVeh="14.213519" NOx_perVeh="315.669356" fuel_perVeh="58.346288"/>
    </interval>
    <interval begin="135.00" end="150.00" id="dump_15_internal">
        <edge id="rend" sampledSeconds="10.73" CO_abs="1383.560867" CO2_abs="84817.142045" HC_abs="25.936252" PMx_abs="8.237648" NOx_abs="182.950679" fuel_abs="33.815424"
            CO_normed="664.109216" CO2_normed="40712.228182" HC_normed="12.449401" PMx_normed="3.954071" NOx_normed="87.816326" fuel_normed="16.231403"
            traveltime="18.51" CO_perVeh="2387.243215" CO2_perVeh="146346.396239" HC_perVeh="44.751295" PMx_perVeh="14.213519" NOx_perVeh="315.669356" fuel_perVeh="58.346288"/>
    </interval>
</netstats>
