<edges>

   <edge id="beg" fromnode="absBeg" tonode="beg" speed="27.8" nolanes="2"/>

   <edge id="beg2left" fromnode="beg" tonode="begleft" speed="27.8"/>

   <edge id="left" fromnode="begleft" tonode="endleft" speed="27.8"/>

   <edge id="middle" fromnode="beg" tonode="end" speed="13.9"/>
   <!-- edge id="middle2" fromnode="mid" tonode="end" speed="13.9"/ -->

   <edge id="left2end" fromnode="endleft" tonode="end" speed="27.8"/>

   <edge id="end" fromnode="end" tonode="absEnd" speed="27.8" nolanes="2"/>
   <edge id="rend" fromnode="absEnd" tonode="rabsEnd" speed="27.8" nolanes="2"/>

   <!-- edge id="fmin" fromnode="midmin" tonode="mid" speed="13.9"/ -->
   <!-- edge id="tmin" fromnode="mid" tonode="midmin" speed="13.9"/ -->
   <!-- edge id="fmax" fromnode="midmax" tonode="mid" speed="13.9"/ -->
   <!-- edge id="tmax" fromnode="mid" tonode="midmax" speed="13.9"/ -->


</edges>

