<?xml version="1.0" encoding="UTF-8"?>
<!-- generated on 2021-08-25 15:58:55.869548 by gtfs2pt.py v1_10_0+0217-5d707262f78
  options: -n net.net.xml <doubleminus>osm-routes ptlines.xml <doubleminus>gtfs gtfs.zip <doubleminus>date 20201111 <doubleminus>bbox 10.509219,52.256458,10.530758,52.270119 <doubleminus>repair <doubleminus>modes bus <doubleminus>min-stops 0 <doubleminus>vtype-output vehtypes.xml <doubleminus>verbose
-->
<routes xmlns:xsi="http://www.w3.org/2001/XMLSchema-instance" xsi:noNamespaceSchemaLocation="http://sumo.dlr.de/xsd/routes_file.xsd">
    <vehicle id="418_132185501.0" line="14781_3_132185501" depart="0:00:00:00" departEdge="4" arrivalEdge="26" type="bus"><!--Braunschweig An der Horst-->
        <route edges="-171756596 -37976103#3 -314841164#1 -37976385#1 -615184925 -198087353#0 -5148300 22978949#0 54684975#0 54684975#11 23386846#0 37983000 28381788 28509534#0 28509534#1 28509707#0 307200571 409312582#1 30425275#0 291686198 210624811#0 210624811#2 210624811#3 210624811#4 409312580 8108069 -376915189 -8107411#2 -320399277#2 -320814805#1 -59873991 -8118981 -320814798 -59873992 -25087143"/>
        <stop busStop="120010034202_0" arrival="0:00:00:00" duration="10" until="0:00:00:00"/><!--Braunschweig Rathaus-->
        <stop busStop="120010032201_0" arrival="0:00:01:00" duration="10" until="0:00:01:00"/><!--Braunschweig Packhof-->
        <stop busStop="120010031501_0" arrival="0:00:02:00" duration="10" until="0:00:02:00"/><!--Braunschweig Hintern Brüdern-->
        <stop busStop="120010001502_0" arrival="0:00:03:00" duration="10" until="0:00:03:00"/><!--Braunschweig Altstadtmarkt-->
        <stop busStop="120010016102_0" arrival="0:00:05:00" duration="10" until="0:00:05:00"/><!--Braunschweig Güldenstraße-->
    </vehicle>
    <vehicle id="412_132184491.0" line="31729_3_132184491" depart="0:00:00:00" departEdge="1" arrivalEdge="2" type="bus"><!--Rautheim-->
        <route edges="5134732 314841164#0 37976103#0"/>
        <stop busStop="120010034201_0" arrival="0:00:00:00" duration="10" until="0:00:00:00"/><!--Braunschweig Rathaus-->
        <stop busStop="120010039402_0" arrival="0:00:01:00" duration="10" until="0:00:01:00"/><!--Braunschweig Staatstheater-->
    </vehicle>
    <vehicle id="420_132187547.0" line="14783_3_132187547" depart="0:00:01:00" departEdge="0" arrivalEdge="11" type="bus"><!--Wolfenbüttel-->
        <route edges="27220201#0 61312640#0 27220216 319583927#0 29087077#0 25730280#0 25730280#3 25730282 315422094 315422095#0 315422095#1 24020888#0"/>
        <stop busStop="120010034205_0" arrival="0:00:01:00" duration="10" until="0:00:01:00"/><!--Braunschweig Rathaus-->
        <stop busStop="120010007513_0" arrival="0:00:02:00" duration="10" until="0:00:02:00"/><!--Braunschweig Schloss-->
        <stop busStop="120010022110_0" arrival="0:00:04:00" duration="10" until="0:00:04:00"/><!--Braunschweig John-F.-Kennedy-Platz-->
    </vehicle>
    <vehicle id="230_132237871.0" line="44892_3_132184491" depart="0:00:03:00" departEdge="1" arrivalEdge="2" type="bus"><!--Wolfsburg Hauptbahnhof-->
        <route edges="5134732 314841164#0 37976103#0"/>
        <stop busStop="120010034201_0" arrival="0:00:03:00" duration="10" until="0:00:03:00"/><!--Braunschweig Rathaus-->
        <stop busStop="120010039402_0" arrival="0:00:04:00" duration="10" until="0:00:04:00"/><!--Braunschweig Staatstheater-->
    </vehicle>
    <vehicle id="422_132188547.0" line="14785_3_132184491" depart="0:05:00:00" departEdge="29" arrivalEdge="30" type="bus"><!--Braunschweig Bebelhof-->
        <route edges="283066855 9887577 25087143 59873992 320814798 8118981 59873991 320814805#0 320399277#0 8107411#0 89428515#0 -625229902 30424433#2 8074362#0 8074362#1 8074362#2 141542465 19045105#0 19045105#2 18962450#0 190405266#0 25116462#0 320044358#0 5021504 220890642#4 5148300 198087353#0 198087353#1 5134732 314841164#0 37976103#0"/>
        <stop busStop="120010034201_0" arrival="0:05:00:00" duration="10" until="0:05:00:00"/><!--Braunschweig Rathaus-->
        <stop busStop="120010039402_0" arrival="0:05:01:00" duration="10" until="0:05:01:00"/><!--Braunschweig Staatstheater-->
    </vehicle>
    <vehicle id="230_132237996.0" line="44892_3_132184491" depart="0:05:03:00" departEdge="1" arrivalEdge="2" type="bus"><!--Wolfsburg Hauptbahnhof-->
        <route edges="5134732 314841164#0 37976103#0"/>
        <stop busStop="120010034201_0" arrival="0:05:03:00" duration="10" until="0:05:03:00"/><!--Braunschweig Rathaus-->
        <stop busStop="120010039402_0" arrival="0:05:04:00" duration="10" until="0:05:04:00"/><!--Braunschweig Staatstheater-->
    </vehicle>
    <vehicle id="420_132187555.0" line="14783_3_132187547" depart="0:05:08:00" departEdge="0" arrivalEdge="11" type="bus"><!--Wolfenbüttel-->
        <route edges="27220201#0 61312640#0 27220216 319583927#0 29087077#0 25730280#0 25730280#3 25730282 315422094 315422095#0 315422095#1 24020888#0"/>
        <stop busStop="120010034205_0" arrival="0:05:08:00" duration="10" until="0:05:08:00"/><!--Braunschweig Rathaus-->
        <stop busStop="120010007513_0" arrival="0:05:09:00" duration="10" until="0:05:09:00"/><!--Braunschweig Schloss-->
        <stop busStop="120010022110_0" arrival="0:05:11:00" duration="10" until="0:05:11:00"/><!--Braunschweig John-F.-Kennedy-Platz-->
    </vehicle>
    <vehicle id="418_132185783.0" line="14781_3_132185501" depart="0:05:15:00" departEdge="4" arrivalEdge="26" type="bus"><!--Westpark-->
        <route edges="-171756596 -37976103#3 -314841164#1 -37976385#1 -615184925 -198087353#0 -5148300 22978949#0 54684975#0 54684975#11 23386846#0 37983000 28381788 28509534#0 28509534#1 28509707#0 307200571 409312582#1 30425275#0 291686198 210624811#0 210624811#2 210624811#3 210624811#4 409312580 8108069 -376915189 -8107411#2 -320399277#2 -320814805#1 -59873991 -8118981 -320814798 -59873992 -25087143"/>
        <stop busStop="120010034202_0" arrival="0:05:15:00" duration="10" until="0:05:15:00"/><!--Braunschweig Rathaus-->
        <stop busStop="120010032201_0" arrival="0:05:16:00" duration="10" until="0:05:16:00"/><!--Braunschweig Packhof-->
        <stop busStop="120010031501_0" arrival="0:05:17:00" duration="10" until="0:05:17:00"/><!--Braunschweig Hintern Brüdern-->
        <stop busStop="120010001502_0" arrival="0:05:18:00" duration="10" until="0:05:18:00"/><!--Braunschweig Altstadtmarkt-->
        <stop busStop="120010016102_0" arrival="0:05:20:00" duration="10" until="0:05:20:00"/><!--Braunschweig Güldenstraße-->
    </vehicle>
    <vehicle id="620_132244371.0" line="14737_3_132244371" depart="0:05:33:00" departEdge="3" arrivalEdge="20" type="bus"><!--Steterburg(Salzgitter) Danziger Straße-->
        <route edges="25290398 25290438 32055654 5059167#0 305951363 25076279#0 25076279#1 23209054#0 29085916#0 588927595 6279149#0 316781871#1 30426426#0 316781875#0 306497784 306497780 23118706 384876527 384876529 559570920#0 122119622#0 559570919#0 61996465#0"/>
        <stop busStop="120010022113_0" arrival="0:05:37:00" duration="10" until="0:05:37:00"/><!--Braunschweig John-F.-Kennedy-Platz-->
        <stop busStop="120010013704_0" arrival="0:05:39:00" duration="10" until="0:05:39:00"/><!--Braunschweig Friedrich-Wilhelm-Platz-->
        <stop busStop="120010013002_0" arrival="0:05:41:00" duration="10" until="0:05:41:00"/><!--Braunschweig Europaplatz-->
    </vehicle>
    <vehicle id="420_132187554.0" line="14783_3_132187547" depart="0:05:38:00" departEdge="0" arrivalEdge="11" type="bus"><!--Wolfenbüttel-->
        <route edges="27220201#0 61312640#0 27220216 319583927#0 29087077#0 25730280#0 25730280#3 25730282 315422094 315422095#0 315422095#1 24020888#0"/>
        <stop busStop="120010034205_0" arrival="0:05:38:00" duration="10" until="0:05:38:00"/><!--Braunschweig Rathaus-->
        <stop busStop="120010007513_0" arrival="0:05:39:00" duration="10" until="0:05:39:00"/><!--Braunschweig Schloss-->
        <stop busStop="120010022110_0" arrival="0:05:41:00" duration="10" until="0:05:41:00"/><!--Braunschweig John-F.-Kennedy-Platz-->
    </vehicle>
    <vehicle id="730_132218521.0" line="22086_3_132187547" depart="0:05:40:00" departEdge="12" arrivalEdge="23" type="bus"><!--Apelnstedt Dorfplatz-->
        <route edges="314842169#0 627097689#0 627097688 326537336#0 191875414#0 -510544114 56816450#0 37975912#0 54684973#0 33230516 315421255#0 499618367 27220201#0 61312640#0 27220216 319583927#0 29087077#0 25730280#0 25730280#3 25730282 315422094 315422095#0 315422095#1 24020888#0"/>
        <stop busStop="120010034205_0" arrival="0:05:40:00" duration="10" until="0:05:40:00"/><!--Braunschweig Rathaus-->
        <stop busStop="120010007513_0" arrival="0:05:41:00" duration="10" until="0:05:41:00"/><!--Braunschweig Schloss-->
        <stop busStop="120010022110_0" arrival="0:05:43:00" duration="10" until="0:05:43:00"/><!--Braunschweig John-F.-Kennedy-Platz-->
    </vehicle>
    <vehicle id="418_132185981.0" line="14781_3_132185501" depart="0:05:45:00" departEdge="4" arrivalEdge="26" type="bus"><!--Westpark-->
        <route edges="-171756596 -37976103#3 -314841164#1 -37976385#1 -615184925 -198087353#0 -5148300 22978949#0 54684975#0 54684975#11 23386846#0 37983000 28381788 28509534#0 28509534#1 28509707#0 307200571 409312582#1 30425275#0 291686198 210624811#0 210624811#2 210624811#3 210624811#4 409312580 8108069 -376915189 -8107411#2 -320399277#2 -320814805#1 -59873991 -8118981 -320814798 -59873992 -25087143"/>
        <stop busStop="120010034202_0" arrival="0:05:45:00" duration="10" until="0:05:45:00"/><!--Braunschweig Rathaus-->
        <stop busStop="120010032201_0" arrival="0:05:46:00" duration="10" until="0:05:46:00"/><!--Braunschweig Packhof-->
        <stop busStop="120010031501_0" arrival="0:05:47:00" duration="10" until="0:05:47:00"/><!--Braunschweig Hintern Brüdern-->
        <stop busStop="120010001502_0" arrival="0:05:48:00" duration="10" until="0:05:48:00"/><!--Braunschweig Altstadtmarkt-->
        <stop busStop="120010016102_0" arrival="0:05:50:00" duration="10" until="0:05:50:00"/><!--Braunschweig Güldenstraße-->
    </vehicle>
    <vehicle id="450_132203723.0" line="14800_3_132203723" depart="0:05:52:00" departEdge="0" arrivalEdge="35" type="bus"><!--Vechelde Bahnhof-->
        <route edges="-615184925 -198087353#0 -5148300 22978949#0 54684975#0 54684975#11 23386846#0 37983000 28381788 28509534#0 28509534#1 28509707#0 307200571 409312582#1 30425275#0 291686198 210624811#0 210624811#2 210624811#3 210624811#4 409312580 8108069 -376915189 -8107411#2 376743573#0 376743573#4 376743573#5 376743572#0 382052543 376743574#0 30424335#0 501412552#0 31413791#0 31413791#1 501412548#1 501412550"/>
        <stop busStop="120010034202_0" arrival="0:05:52:00" duration="10" until="0:05:52:00"/><!--Braunschweig Rathaus-->
        <stop busStop="120010032201_0" arrival="0:05:53:00" duration="10" until="0:05:53:00"/><!--Braunschweig Packhof-->
        <stop busStop="120010031501_0" arrival="0:05:54:00" duration="10" until="0:05:54:00"/><!--Braunschweig Hintern Brüdern-->
        <stop busStop="120010001502_0" arrival="0:05:55:00" duration="10" until="0:05:55:00"/><!--Braunschweig Altstadtmarkt-->
        <stop busStop="120010016106_0" arrival="0:05:56:00" duration="10" until="0:05:56:00"/><!--Braunschweig Güldenstraße-->
        <stop busStop="120010033806_0" arrival="0:05:57:00" duration="10" until="0:05:57:00"/><!--Braunschweig Radeklint-->
        <stop busStop="120010028602_0" arrival="0:05:58:00" duration="10" until="0:05:58:00"/><!--Braunschweig Maschstraße-->
    </vehicle>
    <vehicle id="230_132237995.0" line="44892_3_132184491" depart="0:06:03:00" departEdge="1" arrivalEdge="2" type="bus"><!--Wolfsburg Hauptbahnhof-->
        <route edges="5134732 314841164#0 37976103#0"/>
        <stop busStop="120010034201_0" arrival="0:06:03:00" duration="10" until="0:06:03:00"/><!--Braunschweig Rathaus-->
        <stop busStop="120010039402_0" arrival="0:06:04:00" duration="10" until="0:06:04:00"/><!--Braunschweig Staatstheater-->
    </vehicle>
    <vehicle id="730_132218549.0" line="22086_3_132187547" depart="0:06:05:00" departEdge="12" arrivalEdge="23" type="bus"><!--Evessen Klosterhof-->
        <route edges="314842169#0 627097689#0 627097688 326537336#0 191875414#0 -510544114 56816450#0 37975912#0 54684973#0 33230516 315421255#0 499618367 27220201#0 61312640#0 27220216 319583927#0 29087077#0 25730280#0 25730280#3 25730282 315422094 315422095#0 315422095#1 24020888#0"/>
        <stop busStop="120010034205_0" arrival="0:06:05:00" duration="10" until="0:06:05:00"/><!--Braunschweig Rathaus-->
        <stop busStop="120010007513_0" arrival="0:06:06:00" duration="10" until="0:06:06:00"/><!--Braunschweig Schloss-->
        <stop busStop="120010022110_0" arrival="0:06:08:00" duration="10" until="0:06:08:00"/><!--Braunschweig John-F.-Kennedy-Platz-->
    </vehicle>
    <vehicle id="620_132244370.0" line="14737_3_132244371" depart="0:06:08:00" departEdge="3" arrivalEdge="20" type="bus"><!--Steterburg(Salzgitter) Danziger Straße-->
        <route edges="25290398 25290438 32055654 5059167#0 305951363 25076279#0 25076279#1 23209054#0 29085916#0 588927595 6279149#0 316781871#1 30426426#0 316781875#0 306497784 306497780 23118706 384876527 384876529 559570920#0 122119622#0 559570919#0 61996465#0"/>
        <stop busStop="120010022113_0" arrival="0:06:12:00" duration="10" until="0:06:12:00"/><!--Braunschweig John-F.-Kennedy-Platz-->
        <stop busStop="120010013704_0" arrival="0:06:14:00" duration="10" until="0:06:14:00"/><!--Braunschweig Friedrich-Wilhelm-Platz-->
        <stop busStop="120010013002_0" arrival="0:06:16:00" duration="10" until="0:06:16:00"/><!--Braunschweig Europaplatz-->
    </vehicle>
    <vehicle id="420_132187976.0" line="14783_3_132187547" depart="0:06:12:00" departEdge="0" arrivalEdge="11" type="bus"><!--Wolfenbüttel-->
        <route edges="27220201#0 61312640#0 27220216 319583927#0 29087077#0 25730280#0 25730280#3 25730282 315422094 315422095#0 315422095#1 24020888#0"/>
        <stop busStop="120010034205_0" arrival="0:06:12:00" duration="10" until="0:06:12:00"/><!--Braunschweig Rathaus-->
        <stop busStop="120010007513_0" arrival="0:06:13:00" duration="10" until="0:06:13:00"/><!--Braunschweig Schloss-->
        <stop busStop="120010022110_0" arrival="0:06:15:00" duration="10" until="0:06:15:00"/><!--Braunschweig John-F.-Kennedy-Platz-->
    </vehicle>
    <vehicle id="450_132203609.0" line="14800_3_132203723" depart="0:06:19:00" departEdge="0" arrivalEdge="35" type="bus"><!--Vechelde Bahnhof-->
        <route edges="-615184925 -198087353#0 -5148300 22978949#0 54684975#0 54684975#11 23386846#0 37983000 28381788 28509534#0 28509534#1 28509707#0 307200571 409312582#1 30425275#0 291686198 210624811#0 210624811#2 210624811#3 210624811#4 409312580 8108069 -376915189 -8107411#2 376743573#0 376743573#4 376743573#5 376743572#0 382052543 376743574#0 30424335#0 501412552#0 31413791#0 31413791#1 501412548#1 501412550"/>
        <stop busStop="120010034202_0" arrival="0:06:19:00" duration="10" until="0:06:19:00"/><!--Braunschweig Rathaus-->
        <stop busStop="120010032201_0" arrival="0:06:20:00" duration="10" until="0:06:20:00"/><!--Braunschweig Packhof-->
        <stop busStop="120010031501_0" arrival="0:06:21:00" duration="10" until="0:06:21:00"/><!--Braunschweig Hintern Brüdern-->
        <stop busStop="120010001502_0" arrival="0:06:22:00" duration="10" until="0:06:22:00"/><!--Braunschweig Altstadtmarkt-->
        <stop busStop="120010016106_0" arrival="0:06:24:00" duration="10" until="0:06:24:00"/><!--Braunschweig Güldenstraße-->
        <stop busStop="120010033806_0" arrival="0:06:26:00" duration="10" until="0:06:26:00"/><!--Braunschweig Radeklint-->
        <stop busStop="120010028602_0" arrival="0:06:27:00" duration="10" until="0:06:27:00"/><!--Braunschweig Maschstraße-->
    </vehicle>
    <vehicle id="230_132238092.0" line="44892_3_132184491" depart="0:06:26:00" departEdge="1" arrivalEdge="2" type="bus"><!--Wolfsburg Hauptbahnhof-->
        <route edges="5134732 314841164#0 37976103#0"/>
        <stop busStop="120010034201_0" arrival="0:06:26:00" duration="10" until="0:06:26:00"/><!--Braunschweig Rathaus-->
        <stop busStop="120010039402_0" arrival="0:06:27:00" duration="10" until="0:06:27:00"/><!--Braunschweig Staatstheater-->
    </vehicle>
    <vehicle id="420_132187975.0" line="14783_3_132187547" depart="0:06:27:00" departEdge="0" arrivalEdge="11" type="bus"><!--Wolfenbüttel-->
        <route edges="27220201#0 61312640#0 27220216 319583927#0 29087077#0 25730280#0 25730280#3 25730282 315422094 315422095#0 315422095#1 24020888#0"/>
        <stop busStop="120010034205_0" arrival="0:06:27:00" duration="10" until="0:06:27:00"/><!--Braunschweig Rathaus-->
        <stop busStop="120010007513_0" arrival="0:06:28:00" duration="10" until="0:06:28:00"/><!--Braunschweig Schloss-->
        <stop busStop="120010022110_0" arrival="0:06:30:00" duration="10" until="0:06:30:00"/><!--Braunschweig John-F.-Kennedy-Platz-->
    </vehicle>
    <vehicle id="418_132185895.0" line="14781_3_132185501" depart="0:06:30:00" departEdge="4" arrivalEdge="26" type="bus"><!--Westpark-->
        <route edges="-171756596 -37976103#3 -314841164#1 -37976385#1 -615184925 -198087353#0 -5148300 22978949#0 54684975#0 54684975#11 23386846#0 37983000 28381788 28509534#0 28509534#1 28509707#0 307200571 409312582#1 30425275#0 291686198 210624811#0 210624811#2 210624811#3 210624811#4 409312580 8108069 -376915189 -8107411#2 -320399277#2 -320814805#1 -59873991 -8118981 -320814798 -59873992 -25087143"/>
        <stop busStop="120010034202_0" arrival="0:06:30:00" duration="10" until="0:06:30:00"/><!--Braunschweig Rathaus-->
        <stop busStop="120010032201_0" arrival="0:06:31:00" duration="10" until="0:06:31:00"/><!--Braunschweig Packhof-->
        <stop busStop="120010031501_0" arrival="0:06:32:00" duration="10" until="0:06:32:00"/><!--Braunschweig Hintern Brüdern-->
        <stop busStop="120010001502_0" arrival="0:06:33:00" duration="10" until="0:06:33:00"/><!--Braunschweig Altstadtmarkt-->
        <stop busStop="120010016102_0" arrival="0:06:35:00" duration="10" until="0:06:35:00"/><!--Braunschweig Güldenstraße-->
    </vehicle>
    <vehicle id="560_132206647.0" line="29609_3_132203723" depart="0:06:32:00" departEdge="0" arrivalEdge="35" type="bus"><!--Wipshausen Bahnhof-->
        <route edges="-615184925 -198087353#0 -5148300 22978949#0 54684975#0 54684975#11 23386846#0 37983000 28381788 28509534#0 28509534#1 28509707#0 307200571 409312582#1 30425275#0 291686198 210624811#0 210624811#2 210624811#3 210624811#4 409312580 8108069 -376915189 -8107411#2 376743573#0 376743573#4 376743573#5 376743572#0 382052543 376743574#0 30424335#0 501412552#0 31413791#0 31413791#1 501412548#1 501412550"/>
        <stop busStop="120010034202_0" arrival="0:06:32:00" duration="10" until="0:06:32:00"/><!--Braunschweig Rathaus-->
        <stop busStop="120010032201_0" arrival="0:06:33:00" duration="10" until="0:06:33:00"/><!--Braunschweig Packhof-->
        <stop busStop="120010031501_0" arrival="0:06:34:00" duration="10" until="0:06:34:00"/><!--Braunschweig Hintern Brüdern-->
        <stop busStop="120010001502_0" arrival="0:06:35:00" duration="10" until="0:06:35:00"/><!--Braunschweig Altstadtmarkt-->
        <stop busStop="120010016106_0" arrival="0:06:37:00" duration="10" until="0:06:37:00"/><!--Braunschweig Güldenstraße-->
        <stop busStop="120010033806_0" arrival="0:06:39:00" duration="10" until="0:06:39:00"/><!--Braunschweig Radeklint-->
        <stop busStop="120010028602_0" arrival="0:06:40:00" duration="10" until="0:06:40:00"/><!--Braunschweig Maschstraße-->
    </vehicle>
    <vehicle id="620_132244187.0" line="14737_3_132244371" depart="0:06:38:00" departEdge="3" arrivalEdge="20" type="bus"><!--Steterburg(Salzgitter) Gemeindehaus-->
        <route edges="25290398 25290438 32055654 5059167#0 305951363 25076279#0 25076279#1 23209054#0 29085916#0 588927595 6279149#0 316781871#1 30426426#0 316781875#0 306497784 306497780 23118706 384876527 384876529 559570920#0 122119622#0 559570919#0 61996465#0"/>
        <stop busStop="120010022113_0" arrival="0:06:42:00" duration="10" until="0:06:42:00"/><!--Braunschweig John-F.-Kennedy-Platz-->
        <stop busStop="120010013704_0" arrival="0:06:44:00" duration="10" until="0:06:44:00"/><!--Braunschweig Friedrich-Wilhelm-Platz-->
        <stop busStop="120010013002_0" arrival="0:06:46:00" duration="10" until="0:06:46:00"/><!--Braunschweig Europaplatz-->
    </vehicle>
    <vehicle id="730_132218550.0" line="22086_3_132187547" depart="0:06:40:00" departEdge="12" arrivalEdge="23" type="bus"><!--Evessen Klosterhof-->
        <route edges="314842169#0 627097689#0 627097688 326537336#0 191875414#0 -510544114 56816450#0 37975912#0 54684973#0 33230516 315421255#0 499618367 27220201#0 61312640#0 27220216 319583927#0 29087077#0 25730280#0 25730280#3 25730282 315422094 315422095#0 315422095#1 24020888#0"/>
        <stop busStop="120010034205_0" arrival="0:06:40:00" duration="10" until="0:06:40:00"/><!--Braunschweig Rathaus-->
        <stop busStop="120010007513_0" arrival="0:06:41:00" duration="10" until="0:06:41:00"/><!--Braunschweig Schloss-->
        <stop busStop="120010022110_0" arrival="0:06:43:00" duration="10" until="0:06:43:00"/><!--Braunschweig John-F.-Kennedy-Platz-->
    </vehicle>
    <vehicle id="230_132238091.0" line="44892_3_132184491" depart="0:06:41:00" departEdge="1" arrivalEdge="2" type="bus"><!--Wolfsburg Hauptbahnhof-->
        <route edges="5134732 314841164#0 37976103#0"/>
        <stop busStop="120010034201_0" arrival="0:06:41:00" duration="10" until="0:06:41:00"/><!--Braunschweig Rathaus-->
        <stop busStop="120010039402_0" arrival="0:06:42:00" duration="10" until="0:06:42:00"/><!--Braunschweig Staatstheater-->
    </vehicle>
    <vehicle id="420_132187974.0" line="14783_3_132187547" depart="0:06:42:00" departEdge="0" arrivalEdge="11" type="bus"><!--Wolfenbüttel-->
        <route edges="27220201#0 61312640#0 27220216 319583927#0 29087077#0 25730280#0 25730280#3 25730282 315422094 315422095#0 315422095#1 24020888#0"/>
        <stop busStop="120010034205_0" arrival="0:06:42:00" duration="10" until="0:06:42:00"/><!--Braunschweig Rathaus-->
        <stop busStop="120010007513_0" arrival="0:06:43:00" duration="10" until="0:06:43:00"/><!--Braunschweig Schloss-->
        <stop busStop="120010022110_0" arrival="0:06:45:00" duration="10" until="0:06:45:00"/><!--Braunschweig John-F.-Kennedy-Platz-->
    </vehicle>
    <vehicle id="450_132203608.0" line="14800_3_132203723" depart="0:06:49:00" departEdge="0" arrivalEdge="35" type="bus"><!--Vechelde Bahnhof-->
        <route edges="-615184925 -198087353#0 -5148300 22978949#0 54684975#0 54684975#11 23386846#0 37983000 28381788 28509534#0 28509534#1 28509707#0 307200571 409312582#1 30425275#0 291686198 210624811#0 210624811#2 210624811#3 210624811#4 409312580 8108069 -376915189 -8107411#2 376743573#0 376743573#4 376743573#5 376743572#0 382052543 376743574#0 30424335#0 501412552#0 31413791#0 31413791#1 501412548#1 501412550"/>
        <stop busStop="120010034202_0" arrival="0:06:49:00" duration="10" until="0:06:49:00"/><!--Braunschweig Rathaus-->
        <stop busStop="120010032201_0" arrival="0:06:50:00" duration="10" until="0:06:50:00"/><!--Braunschweig Packhof-->
        <stop busStop="120010031501_0" arrival="0:06:51:00" duration="10" until="0:06:51:00"/><!--Braunschweig Hintern Brüdern-->
        <stop busStop="120010001502_0" arrival="0:06:52:00" duration="10" until="0:06:52:00"/><!--Braunschweig Altstadtmarkt-->
        <stop busStop="120010016106_0" arrival="0:06:54:00" duration="10" until="0:06:54:00"/><!--Braunschweig Güldenstraße-->
        <stop busStop="120010033806_0" arrival="0:06:56:00" duration="10" until="0:06:56:00"/><!--Braunschweig Radeklint-->
        <stop busStop="120010028602_0" arrival="0:06:57:00" duration="10" until="0:06:57:00"/><!--Braunschweig Maschstraße-->
    </vehicle>
    <vehicle id="230_132238090.0" line="44892_3_132184491" depart="0:06:56:00" departEdge="1" arrivalEdge="2" type="bus"><!--Wolfsburg Hauptbahnhof-->
        <route edges="5134732 314841164#0 37976103#0"/>
        <stop busStop="120010034201_0" arrival="0:06:56:00" duration="10" until="0:06:56:00"/><!--Braunschweig Rathaus-->
        <stop busStop="120010039402_0" arrival="0:06:57:00" duration="10" until="0:06:57:00"/><!--Braunschweig Staatstheater-->
    </vehicle>
    <vehicle id="420_132187973.0" line="14783_3_132187547" depart="0:06:57:00" departEdge="0" arrivalEdge="11" type="bus"><!--Wolfenbüttel-->
        <route edges="27220201#0 61312640#0 27220216 319583927#0 29087077#0 25730280#0 25730280#3 25730282 315422094 315422095#0 315422095#1 24020888#0"/>
        <stop busStop="120010034205_0" arrival="0:06:57:00" duration="10" until="0:06:57:00"/><!--Braunschweig Rathaus-->
        <stop busStop="120010007513_0" arrival="0:06:58:00" duration="10" until="0:06:58:00"/><!--Braunschweig Schloss-->
        <stop busStop="120010022110_0" arrival="0:07:00:00" duration="10" until="0:07:00:00"/><!--Braunschweig John-F.-Kennedy-Platz-->
    </vehicle>
    <vehicle id="418_132185521.0" line="14781_3_132185501" depart="0:07:00:00" departEdge="4" arrivalEdge="26" type="bus"><!--Lamme-->
        <route edges="-171756596 -37976103#3 -314841164#1 -37976385#1 -615184925 -198087353#0 -5148300 22978949#0 54684975#0 54684975#11 23386846#0 37983000 28381788 28509534#0 28509534#1 28509707#0 307200571 409312582#1 30425275#0 291686198 210624811#0 210624811#2 210624811#3 210624811#4 409312580 8108069 -376915189 -8107411#2 -320399277#2 -320814805#1 -59873991 -8118981 -320814798 -59873992 -25087143"/>
        <stop busStop="120010034202_0" arrival="0:07:00:00" duration="10" until="0:07:00:00"/><!--Braunschweig Rathaus-->
        <stop busStop="120010032201_0" arrival="0:07:01:00" duration="10" until="0:07:01:00"/><!--Braunschweig Packhof-->
        <stop busStop="120010031501_0" arrival="0:07:02:00" duration="10" until="0:07:02:00"/><!--Braunschweig Hintern Brüdern-->
        <stop busStop="120010001502_0" arrival="0:07:03:00" duration="10" until="0:07:03:00"/><!--Braunschweig Altstadtmarkt-->
        <stop busStop="120010016102_0" arrival="0:07:05:00" duration="10" until="0:07:05:00"/><!--Braunschweig Güldenstraße-->
    </vehicle>
    <vehicle id="620_132244369.0" line="14737_3_132244371" depart="0:07:08:00" departEdge="3" arrivalEdge="20" type="bus"><!--Steterburg(Salzgitter) Danziger Straße-->
        <route edges="25290398 25290438 32055654 5059167#0 305951363 25076279#0 25076279#1 23209054#0 29085916#0 588927595 6279149#0 316781871#1 30426426#0 316781875#0 306497784 306497780 23118706 384876527 384876529 559570920#0 122119622#0 559570919#0 61996465#0"/>
        <stop busStop="120010022113_0" arrival="0:07:12:00" duration="10" until="0:07:12:00"/><!--Braunschweig John-F.-Kennedy-Platz-->
        <stop busStop="120010013704_0" arrival="0:07:14:00" duration="10" until="0:07:14:00"/><!--Braunschweig Friedrich-Wilhelm-Platz-->
        <stop busStop="120010013002_0" arrival="0:07:16:00" duration="10" until="0:07:16:00"/><!--Braunschweig Europaplatz-->
    </vehicle>
    <vehicle id="230_132238089.0" line="44892_3_132184491" depart="0:07:11:00" departEdge="1" arrivalEdge="2" type="bus"><!--Wolfsburg Hauptbahnhof-->
        <route edges="5134732 314841164#0 37976103#0"/>
        <stop busStop="120010034201_0" arrival="0:07:11:00" duration="10" until="0:07:11:00"/><!--Braunschweig Rathaus-->
        <stop busStop="120010039402_0" arrival="0:07:12:00" duration="10" until="0:07:12:00"/><!--Braunschweig Staatstheater-->
    </vehicle>
    <vehicle id="420_132187972.0" line="14783_3_132187547" depart="0:07:12:00" departEdge="0" arrivalEdge="11" type="bus"><!--Wolfenbüttel-->
        <route edges="27220201#0 61312640#0 27220216 319583927#0 29087077#0 25730280#0 25730280#3 25730282 315422094 315422095#0 315422095#1 24020888#0"/>
        <stop busStop="120010034205_0" arrival="0:07:12:00" duration="10" until="0:07:12:00"/><!--Braunschweig Rathaus-->
        <stop busStop="120010007513_0" arrival="0:07:13:00" duration="10" until="0:07:13:00"/><!--Braunschweig Schloss-->
        <stop busStop="120010022110_0" arrival="0:07:15:00" duration="10" until="0:07:15:00"/><!--Braunschweig John-F.-Kennedy-Platz-->
    </vehicle>
    <vehicle id="730_132218545.0" line="22086_3_132187547" depart="0:07:15:00" departEdge="12" arrivalEdge="23" type="bus"><!--Evessen Klosterhof-->
        <route edges="314842169#0 627097689#0 627097688 326537336#0 191875414#0 -510544114 56816450#0 37975912#0 54684973#0 33230516 315421255#0 499618367 27220201#0 61312640#0 27220216 319583927#0 29087077#0 25730280#0 25730280#3 25730282 315422094 315422095#0 315422095#1 24020888#0"/>
        <stop busStop="120010034205_0" arrival="0:07:15:00" duration="10" until="0:07:15:00"/><!--Braunschweig Rathaus-->
        <stop busStop="120010007513_0" arrival="0:07:16:00" duration="10" until="0:07:16:00"/><!--Braunschweig Schloss-->
        <stop busStop="120010022110_0" arrival="0:07:18:00" duration="10" until="0:07:18:00"/><!--Braunschweig John-F.-Kennedy-Platz-->
    </vehicle>
    <vehicle id="450_132203607.0" line="14800_3_132203723" depart="0:07:19:00" departEdge="0" arrivalEdge="35" type="bus"><!--Vechelde Bahnhof-->
        <route edges="-615184925 -198087353#0 -5148300 22978949#0 54684975#0 54684975#11 23386846#0 37983000 28381788 28509534#0 28509534#1 28509707#0 307200571 409312582#1 30425275#0 291686198 210624811#0 210624811#2 210624811#3 210624811#4 409312580 8108069 -376915189 -8107411#2 376743573#0 376743573#4 376743573#5 376743572#0 382052543 376743574#0 30424335#0 501412552#0 31413791#0 31413791#1 501412548#1 501412550"/>
        <stop busStop="120010034202_0" arrival="0:07:19:00" duration="10" until="0:07:19:00"/><!--Braunschweig Rathaus-->
        <stop busStop="120010032201_0" arrival="0:07:20:00" duration="10" until="0:07:20:00"/><!--Braunschweig Packhof-->