<?xml version="1.0" encoding="UTF-8"?>

<!-- generated on 2022-11-11 11:47:04.316850 by gtfs2pt.py v1_15_0+0172-9d9bbfa8cc6
  options: -n net.net.xml <doubleminus>osm-routes ptlines.xml <doubleminus>gtfs gtfs.zip <doubleminus>date 20201111 <doubleminus>bbox 10.509219,52.256458,10.530758,52.270119 <doubleminus>repair <doubleminus>modes bus <doubleminus>min-stops 0 <doubleminus>vtype-output vehtypes.xml <doubleminus>verbose
-->

<routes xmlns:xsi="http://www.w3.org/2001/XMLSchema-instance" xsi:noNamespaceSchemaLocation="http://sumo.dlr.de/xsd/routes_file.xsd">
    <route id="1960" edges="-171756596 -37976103#3 -314841164#1 -37976385#1 -615184925 -198087353#0 -5148300 22978949#0 54684975#0 54684975#11 23386846#0 37983000 28381788 28509534#0 28509534#1 28509707#0 307200571 409312582#1 30425275#0 291686198 210624811#0 210624811#2 210624811#3 210624811#4 409312580 8108069 -376915189 -8107411#2 -320399277#2 -320814805#1 -59873991 -8118981 -320814798 -59873992 -25087143 -25290640 -283066855"/>
    <vehicle id="132185786.trimmed.0" route="1960" line="14781_3_132185786.trimmed" depart="0:00:03:00" departEdge="25" arrivalEdge="28" type="bus">
        <param key="gtfs.route_name" value="418"/>
        <param key="gtfs.trip_headsign" value="A&amp;B -&gt; Wästpark"/>
        <stop busStop="120010001502_0" arrival="0:00:03:00" duration="10" until="0:00:03:00"/><!--"Braunschweig Altstadtmarkt"-->
        <stop busStop="120010016102_0" arrival="0:00:05:00" duration="10" until="0:00:05:00"/><!--"Braunschweig Güldenstraße"-->
    </vehicle>
    <route id="2559" edges="316791974#0 316791974#1 30426508#0 317191948 171349008#0 316791987#1 316791983 316791991 25076268 316779270 23209056#0 23209056#2 305951352 311580921#0 311580921#1 311580921#2 25076286#0 43328051#0"/>
    <vehicle id="132183536.trimmed.0" route="2559" line="32727_3_132183536.trimmed" depart="0:00:19:00" departEdge="1" arrivalEdge="17" type="bus">
        <param key="gtfs.route_name" value="419"/>
        <param key="gtfs.trip_headsign" value="Braunschweig Hauptbahnhof"/>
        <stop busStop="120010016201_0" arrival="0:00:19:00" duration="10" until="0:00:19:00"/><!--"Braunschweig Holzhof"-->
        <stop busStop="120010004601_0" arrival="0:00:20:00" duration="10" until="0:00:20:00"/><!--"Braunschweig Am Wassertor"-->
        <stop busStop="120010022110_0" arrival="0:00:22:00" duration="10" until="0:00:22:00"/><!--"Braunschweig John-F.-Kennedy-Platz"-->
    </vehicle>
    <route id="2548" edges="25290398 25290438 32055654 5059167#0 305951363 25076279#0 25076279#1 23209054#0 29085916#0 588927595 6279149#0 316781871#1 30426426#0 316781875#0 306497784 306497780 23118706 384876527 384876526 4743778#0 127240643#0 127240643#1 127240643#2"/>
    <vehicle id="132194506.0" route="2548" line="32616_3_132194506" depart="0:00:42:00" departEdge="2" arrivalEdge="22" type="bus">
        <param key="gtfs.route_name" value="429"/>
        <param key="gtfs.trip_headsign" value="Braunschweig Hauptbahnhof"/>
        <stop busStop="120010022108_0" arrival="0:00:42:00" duration="10" until="0:00:42:00"/><!--"Braunschweig John-F.-Kennedy-Platz"-->
        <stop busStop="120010013713_0" arrival="0:00:43:00" duration="10" until="0:00:43:00"/><!--"Braunschweig Friedrich-Wilhelm-Platz"-->
        <stop busStop="120010016202_0" arrival="0:00:45:00" duration="10" until="0:00:45:00"/><!--"Braunschweig Holzhof"-->
    </vehicle>
    <vehicle id="132185978.0" route="1960" line="14781_3_132185978" depart="0:01:20:00" departEdge="6" arrivalEdge="28" type="bus">
        <param key="gtfs.route_name" value="418"/>
        <param key="gtfs.trip_headsign" value="Westpark"/>
        <stop busStop="120010034202_0" arrival="0:01:20:00" duration="10" until="0:01:20:00"/><!--"Braunschweig Rathaus"-->
        <stop busStop="120010032201_0" arrival="0:01:21:00" duration="10" until="0:01:21:00"/><!--"Braunschweig Packhof"-->
        <stop busStop="120010031501_0" arrival="0:01:22:00" duration="10" until="0:01:22:00"/><!--"Braunschweig Hintern Brüdern"-->
        <stop busStop="120010001502_0" arrival="0:01:23:00" duration="10" until="0:01:23:00"/><!--"Braunschweig Altstadtmarkt"-->
        <stop busStop="120010016102_0" arrival="0:01:25:00" duration="10" until="0:01:25:00"/><!--"Braunschweig Güldenstraße"-->
    </vehicle>
    <vehicle id="132185783.0" route="1960" line="14781_3_132185978" depart="0:05:15:00" departEdge="6" arrivalEdge="28" type="bus">
        <param key="gtfs.route_name" value="418"/>
        <param key="gtfs.trip_headsign" value="Westpark"/>
        <stop busStop="120010034202_0" arrival="0:05:15:00" duration="10" until="0:05:15:00"/><!--"Braunschweig Rathaus"-->
        <stop busStop="120010032201_0" arrival="0:05:16:00" duration="10" until="0:05:16:00"/><!--"Braunschweig Packhof"-->
        <stop busStop="120010031501_0" arrival="0:05:17:00" duration="10" until="0:05:17:00"/><!--"Braunschweig Hintern Brüdern"-->
        <stop busStop="120010001502_0" arrival="0:05:18:00" duration="10" until="0:05:18:00"/><!--"Braunschweig Altstadtmarkt"-->
        <stop busStop="120010016102_0" arrival="0:05:20:00" duration="10" until="0:05:20:00"/><!--"Braunschweig Güldenstraße"-->
    </vehicle>
    <route id="1824" edges="25290398 25290438 32055654 5059167#0 305951363 25076279#0 25076279#1 23209054#0 29085916#0 588927595 6279149#0 316781871#1 30426426#0 316781875#0 306497784 306497780 23118706 384876527 384876529 559570920#0 122119622#0 559570919#0 61996465#0 24021025 319389907"/>
    <vehicle id="132244371.0" route="1824" line="14737_3_132244371" depart="0:05:33:00" departEdge="3" arrivalEdge="20" type="bus">
        <param key="gtfs.route_name" value="620"/>
        <param key="gtfs.trip_headsign" value="Steterburg(Salzgitter) Danziger Straße"/>
        <stop busStop="120010022113_0" arrival="0:05:37:00" duration="10" until="0:05:37:00"/><!--"Braunschweig John-F.-Kennedy-Platz"-->
        <stop busStop="120010013704_0" arrival="0:05:39:00" duration="10" until="0:05:39:00"/><!--"Braunschweig Friedrich-Wilhelm-Platz"-->
        <stop busStop="120010013002_0" arrival="0:05:41:00" duration="10" until="0:05:41:00"/><!--"Braunschweig Europaplatz"-->
    </vehicle>
    <route id="2115" edges="25290398 25290438 32055654 5059167#0 305951363 25076279#0 25076279#1 23209054#0 29085916#0 32055586#0 23209152#0 190405266#0 25116462#0 320044358#0 5021504 220890642#4 5148300 198087353#0 198087353#1 5134732 314841164#0 27220209#0 314842169#0 -10740033#2 -10740033#1 33230627#0 326537335 627097688 5134711#0 5134711#3 150679087#0 150679087#1"/>
    <vehicle id="132218462.0" route="2115" line="22086_3_132218462" depart="0:06:17:00" departEdge="2" arrivalEdge="21" type="bus">
        <param key="gtfs.route_name" value="730"/>
        <param key="gtfs.trip_headsign" value="Braunschweig Rathaus"/>
        <stop busStop="120010022105_0" arrival="0:06:17:00" duration="10" until="0:06:17:00"/><!--"Braunschweig John-F.-Kennedy-Platz"-->
        <stop busStop="120010007512_0" arrival="0:06:19:00" duration="10" until="0:06:19:00"/><!--"Braunschweig Schloss"-->
        <stop busStop="120010034211_0" arrival="0:06:21:00" duration="10" until="0:06:21:00"/><!--"Braunschweig Rathaus"-->
    </vehicle>
    <route id="2486" edges="-171756596 -37976103#3 -314841164#1 -37976385#1 -615184925 -198087353#0 -5148300 22978949#0 54684975#0 54684975#11 23386846#0 37983000 28381788 28509534#0 28509534#1 28509707#0 307200571 409312582#1 30425275#0 291686198 210624811#0 210624811#2 210624811#3 210624811#4 409312580 8108069 -376915189 -8107411#2 8618349#0 8618349#3 319389908#0 31016344#0 316781879#0 8618348 316785565 23118706 384876527 384876526 4743778#0 127240643#0 127240643#1 127240643#2"/>
    <vehicle id="132189814.0" route="2486" line="31727_3_132189814" depart="0:10:15:00" departEdge="6" arrivalEdge="41" type="bus">
        <param key="gtfs.route_name" value="413"/>
        <param key="gtfs.trip_headsign" value="Braunschweig Dieselstraße"/>
        <stop busStop="120010034202_0" arrival="0:10:17:00" duration="10" until="0:10:17:00"/><!--"Braunschweig Rathaus"-->
        <stop busStop="120010032201_0" arrival="0:10:18:00" duration="10" until="0:10:18:00"/><!--"Braunschweig Packhof"-->
        <stop busStop="120010031501_0" arrival="0:10:19:00" duration="10" until="0:10:19:00"/><!--"Braunschweig Hintern Brüdern"-->
        <stop busStop="120010001502_0" arrival="0:10:20:00" duration="10" until="0:10:20:00"/><!--"Braunschweig Altstadtmarkt"-->
        <stop busStop="120010016104_0" arrival="0:10:22:00" duration="10" until="0:10:22:00"/><!--"Braunschweig Güldenstraße"-->
        <stop busStop="120010041001_0" arrival="0:10:23:00" duration="10" until="0:10:23:00"/><!--"Braunschweig Südstraße"-->
        <stop busStop="120010016202_0" arrival="0:10:24:00" duration="10" until="0:10:24:00"/><!--"Braunschweig Holzhof"-->
    </vehicle>
    <vehicle id="132190299.0" route="2486" line="31727_3_132190299" depart="0:12:02:00" departEdge="6" arrivalEdge="41" type="bus">
        <param key="gtfs.route_name" value="413"/>
        <param key="gtfs.trip_headsign" value="Leiferde"/>
        <stop busStop="120010034202_0" arrival="0:12:02:00" duration="10" until="0:12:02:00"/><!--"Braunschweig Rathaus"-->
        <stop busStop="120010032201_0" arrival="0:12:03:00" duration="10" until="0:12:03:00"/><!--"Braunschweig Packhof"-->
        <stop busStop="120010031501_0" arrival="0:12:04:00" duration="10" until="0:12:04:00"/><!--"Braunschweig Hintern Brüdern"-->
        <stop busStop="120010001502_0" arrival="0:12:05:00" duration="10" until="0:12:05:00"/><!--"Braunschweig Altstadtmarkt"-->
        <stop busStop="120010016104_0" arrival="0:12:07:00" duration="10" until="0:12:07:00"/><!--"Braunschweig Güldenstraße"-->
        <stop busStop="120010041001_0" arrival="0:12:08:00" duration="10" until="0:12:08:00"/><!--"Braunschweig Südstraße"-->
        <stop busStop="120010016202_0" arrival="0:12:09:00" duration="10" until="0:12:09:00"/><!--"Braunschweig Holzhof"-->
    </vehicle>
    <vehicle id="132185786.0" route="1960" line="14781_3_132185978" depart="0:23:55:00" departEdge="6" arrivalEdge="28" type="bus">
        <param key="gtfs.route_name" value="418"/>
        <param key="gtfs.trip_headsign" value="A&amp;B -&gt; Wästpark"/>
        <stop busStop="120010034202_0" arrival="0:23:55:00" duration="10" until="0:23:55:00"/><!--"Braunschweig Rathaus"-->
        <stop busStop="120010032201_0" arrival="0:23:58:00" duration="10" until="0:23:58:00"/><!--"Braunschweig Packhof"-->
        <stop busStop="120010031501_0" arrival="0:23:59:00" duration="10" until="0:23:59:00"/><!--"Braunschweig Hintern Brüdern"-->
        <stop busStop="120010001502_0" arrival="1:00:03:00" duration="10" until="1:00:03:00"/><!--"Braunschweig Altstadtmarkt"-->
        <stop busStop="120010016102_0" arrival="1:00:05:00" duration="10" until="1:00:05:00"/><!--"Braunschweig Güldenstraße"-->
    </vehicle>
    <vehicle id="132183536.0" route="2559" line="32727_3_132183536.trimmed" depart="1:00:19:00" departEdge="1" arrivalEdge="17" type="bus">
        <param key="gtfs.route_name" value="419"/>
        <param key="gtfs.trip_headsign" value="Braunschweig Hauptbahnhof"/>
        <stop busStop="120010016201_0" arrival="1:00:19:00" duration="10" until="1:00:19:00"/><!--"Braunschweig Holzhof"-->
        <stop busStop="120010004601_0" arrival="1:00:20:00" duration="10" until="1:00:20:00"/><!--"Braunschweig Am Wassertor"-->
        <stop busStop="120010022110_0" arrival="1:00:22:00" duration="10" until="1:00:22:00"/><!--"Braunschweig John-F.-Kennedy-Platz"-->
    </vehicle>
</routes>
