<?xml version="1.0" encoding="UTF-8"?>

<!-- generated on Thu Mar 18 16:55:20 2021 by Eclipse SUMO od2trips Version v1_8_0+1716-cf635e7
This data file and the accompanying materials
are made available under the terms of the Eclipse Public License v2.0
which accompanies this distribution, and is available at
http://www.eclipse.org/legal/epl-v20.html
SPDX-License-Identifier: EPL-2.0
<configuration xmlns:xsi="http://www.w3.org/2001/XMLSchema-instance" xsi:noNamespaceSchemaLocation="http://sumo.dlr.de/xsd/od2tripsConfiguration.xsd">

    <input>
        <taz-files value="input_taz.taz.xml"/>
        <od-matrix-files value="input_od_o.fma"/>
    </input>

    <output>
        <write-license value="true"/>
        <output-file value="trips.trips.xml"/>
        <from-attr value="fromJunction"/>
        <to-attr value="toJunction"/>
    </output>

    <processing>
        <no-step-log value="true"/>
    </processing>

    <report>
        <xml-validation value="never"/>
    </report>

</configuration>
-->

<routes xmlns:xsi="http://www.w3.org/2001/XMLSchema-instance" xsi:noNamespaceSchemaLocation="http://sumo.dlr.de/xsd/routes_file.xsd">
    <trip id="0" depart="61114.90" fromJunction="a1" toJunction="b2" fromTaz="1" toTaz="2" departLane="free" departSpeed="max"/>
</routes>
