<?xml version="1.0" encoding="UTF-8"?>

<!-- generated on 2026-03-10T08:26:49.388950+01:00 by Eclipse SUMO netconvert v1_26_0+0486-49ec0de4dff
This data file and the accompanying materials
are made available under the terms of the Eclipse Public License v2.0
which accompanies this distribution, and is available at
http://www.eclipse.org/legal/epl-v20.html
This file may also be made available under the following Secondary
Licenses when the conditions for such availability set forth in the Eclipse
Public License 2.0 are satisfied: GNU General Public License, version 2
or later which is available at
https://www.gnu.org/licenses/old-licenses/gpl-2.0-standalone.html
SPDX-License-Identifier: EPL-2.0 OR GPL-2.0-or-later
<netconvertConfiguration xmlns:xsi="http://www.w3.org/2001/XMLSchema-instance" xsi:noNamespaceSchemaLocation="http://sumo.dlr.de/xsd/netconvertConfiguration.xsd">

    <input>
        <type-files value="${SUMO_HOME}/data/typemap/osmNetconvert.typ.xml,${SUMO_HOME}/data/typemap/osmNetconvertUrbanDe.typ.xml,${SUMO_HOME}/data/typemap/osmNetconvertPedestrians.typ.xml"/>
        <osm-files value="osm.xml"/>
    </input>

    <output>
        <write-license value="true"/>
        <output.street-names value="true"/>
    </output>

    <projection>
        <proj.utm value="true"/>
    </projection>

    <formats>
        <osm.oneway-reverse-sidewalk value="true"/>
    </formats>

    <report>
        <xml-validation value="never"/>
    </report>

</netconvertConfiguration>
-->

<net version="1.20" junctionCornerDetail="5" limitTurnSpeed="5.50" xmlns:xsi="http://www.w3.org/2001/XMLSchema-instance" xsi:noNamespaceSchemaLocation="http://sumo.dlr.de/xsd/net_file.xsd">

    <location netOffset="-456084.39,-5654576.91" convBoundary="0.00,0.00,50.32,41.13" origBoundary="2.373594,51.041054,2.374308,51.041427" projParameter="+proj=utm +zone=31 +ellps=WGS84 +datum=WGS84 +units=m +no_defs"/>

    <type id="highway.tertiary" priority="10" numLanes="1" speed="13.89" disallow="pedestrian tram rail_urban rail rail_electric rail_fast ship container cable_car subway aircraft wheelchair scooter drone" oneway="0" sidewalkWidth="3.00"/>

    <edge id=":1877290319_0" function="internal">
        <lane id=":1877290319_0_0" index="0" disallow="pedestrian tram rail_urban rail rail_electric rail_fast ship container cable_car subway aircraft wheelchair scooter drone" speed="6.70" length="15.61" shape="10.31,3.48 12.44,7.91 12.18,10.62 9.51,11.61 4.45,10.88"/>
    </edge>

    <edge id="-177272023" from="1877289102" to="1877290319" name="Rue de l&amp;apos;Amiral de Ruyter" priority="10" type="highway.tertiary" spreadType="roadCenter" shape="0.00,9.74 6.23,11.33 9.30,12.68 11.48,13.91 27.15,26.05 30.61,28.58 33.91,30.89 37.94,33.50 50.32,41.13">
        <lane id="-177272023_0" index="0" allow="pedestrian" speed="13.89" length="5.53" width="3.00" shape="0.77,6.74 6.13,8.10"/>
    </edge>
    <edge id="-177272024" from="1877290319" to="10030618826" name="Rue de l&amp;apos;Amiral de Ruyter" priority="10" type="highway.tertiary" spreadType="roadCenter" shape="50.32,41.13 40.16,30.84 36.44,27.15 32.49,23.65 28.91,20.42 14.51,8.58 12.91,7.00 11.31,5.07 10.24,3.37 8.46,0.00">
        <lane id="-177272024_0" index="0" allow="pedestrian" speed="13.89" length="4.84" width="3.00" shape="8.04,5.69 7.55,4.92 5.72,1.45"/>
    </edge>
    <edge id="177272023" from="1877290319" to="1877289102" name="Rue de l&amp;apos;Amiral de Ruyter" priority="10" type="highway.tertiary" spreadType="roadCenter" shape="50.32,41.13 37.94,33.50 33.91,30.89 30.61,28.58 27.15,26.05 11.48,13.91 9.30,12.68 6.23,11.33 0.00,9.74">
        <lane id="177272023_0" index="0" allow="pedestrian" speed="13.89" length="4.12" width="3.00" shape="2.77,13.65 -0.77,12.74"/>
        <lane id="177272023_1" index="1" disallow="pedestrian tram rail_urban rail rail_electric rail_fast ship container cable_car subway aircraft wheelchair scooter drone" speed="13.89" length="4.12" shape="4.45,10.88 -0.00,9.74"/>
    </edge>
    <edge id="177272024" from="10030618826" to="1877290319" name="Rue de l&amp;apos;Amiral de Ruyter" priority="10" type="highway.tertiary" spreadType="roadCenter" shape="8.46,0.00 10.24,3.37 11.31,5.07 12.91,7.00 14.51,8.58 28.91,20.42 32.49,23.65 36.44,27.15 40.16,30.84 50.32,41.13">
        <lane id="177272024_0" index="0" allow="pedestrian" speed="13.89" length="3.48" width="3.00" shape="11.20,-1.45 12.61,1.22"/>
        <lane id="177272024_1" index="1" disallow="pedestrian tram rail_urban rail rail_electric rail_fast ship container cable_car subway aircraft wheelchair scooter drone" speed="13.89" length="3.48" shape="8.46,0.00 10.24,3.37 10.31,3.48"/>
    </edge>

    <junction id="10030618826" type="dead_end" x="8.46" y="0.00" incLanes="-177272024_0" intLanes="" shape="7.05,0.75 4.39,2.15 7.05,0.75"/>
    <junction id="1877289102" type="dead_end" x="0.00" y="9.74" incLanes="177272023_0 177272023_1" intLanes="" shape="0.40,8.19 -1.14,14.20 0.40,8.19"/>
    <junction id="1877290319" type="priority" x="50.32" y="41.13" incLanes="177272024_0 177272024_1 -177272023_0" intLanes=":1877290319_0_0" shape="13.73,0.13 6.94,6.76 1.96,14.99 8.59,16.18 13.35,15.91 16.24,14.17 17.27,10.96 16.43,6.28">
        <request index="0" response="0" foes="0" cont="0"/>
    </junction>

    <connection from="177272024" to="177272023" fromLane="1" toLane="1" via=":1877290319_0_0" dir="l" state="M"/>

    <connection from=":1877290319_0" to="177272023" fromLane="0" toLane="1" dir="l" state="M"/>

</net>
