<?xml version="1.0" encoding="UTF-8"?>

<!-- generated on 2021-11-08 10:43:18 by Eclipse SUMO netedit Version v1_10_0+2006-89a784bee9b
-->

<additional xmlns:xsi="http://www.w3.org/2001/XMLSchema-instance" xsi:noNamespaceSchemaLocation="http://sumo.dlr.de/xsd/additional_file.xsd">
    <taz id="TAZ_0" shape="12.00,8.00 12.00,18.00 2.00,18.00 2.00,8.00 12.00,8.00" center="20.00,30.00" fill="1" name="name1" color="red">
        <param key="keyFinal1" value="value1"/>
        <param key="keyFinal2" value="value2"/>
        <param key="keyFinal3" value="value3"/>
    </taz>
    <taz id="TAZ_1" shape="32.00,8.00 32.00,18.00 22.00,18.00 22.00,8.00 32.00,8.00" center="40.00,50.00" name="name2" color="red">
        <param key="keyFinal1" value="value1"/>
        <param key="keyFinal2" value="value2"/>
        <param key="keyFinal3" value="value3"/>
    </taz>
</additional>
