<?xml version="1.0" encoding="UTF-8"?>

<!-- generated on Wed May 30 09:50:03 2018 by Eclipse SUMO Version b2daee9
This data file and the accompanying materials
are made available under the terms of the Eclipse Public License v2.0
which accompanies this distribution, and is available at
http://www.eclipse.org/legal/epl-v20.html
SPDX-License-Identifier: EPL-2.0
<configuration xmlns:xsi="http://www.w3.org/2001/XMLSchema-instance" xsi:noNamespaceSchemaLocation="http://sumo.dlr.de/xsd/sumoConfiguration.xsd">

    <input>
        <net-file value="net.net.xml"/>
        <route-files value="input_routes.rou.xml"/>
    </input>

    <output>
        <write-license value="true"/>
        <amitran-output value="full.xml"/>
    </output>

    <time>
        <begin value="0"/>
        <end value="120"/>
    </time>

    <processing>
        <lateral-resolution value="0.8"/>
    </processing>

    <report>
        <xml-validation value="never"/>
        <duration-log.disable value="true"/>
        <no-step-log value="true"/>
    </report>

</configuration>
-->

<trajectories xmlns:xsi="http://www.w3.org/2001/XMLSchema-instance" xsi:noNamespaceSchemaLocation="http://sumo.dlr.de/xsd/amitran/trajectories.xsd" timeStepSize="1000">
    <actorConfig id="0" vehicleClass="Passenger" fuel="Gasoline" emissionClass="Euro4" ref="DEFAULT_VEHTYPE"/>
    <vehicle id="0" actorConfig="0" startTime="100000" ref="always_left.0"/>
    <motionState vehicle="0" speed="0" time="100000" acceleration="0"/>
    <vehicle id="1" actorConfig="0" startTime="100000" ref="always_right.0"/>
    <motionState vehicle="1" speed="0" time="100000" acceleration="0"/>
    <vehicle id="2" actorConfig="0" startTime="100000" ref="horizontal.0"/>
    <motionState vehicle="2" speed="0" time="100000" acceleration="0"/>
    <motionState vehicle="0" speed="254" time="101000" acceleration="2541"/>
    <motionState vehicle="1" speed="144" time="101000" acceleration="1442"/>
    <motionState vehicle="2" speed="167" time="101000" acceleration="1674"/>
    <motionState vehicle="0" speed="508" time="102000" acceleration="2543"/>
    <motionState vehicle="1" speed="340" time="102000" acceleration="1961"/>
    <motionState vehicle="2" speed="351" time="102000" acceleration="1833"/>
    <motionState vehicle="0" speed="698" time="103000" acceleration="1891"/>
    <motionState vehicle="1" speed="504" time="103000" acceleration="1634"/>
    <motionState vehicle="2" speed="579" time="103000" acceleration="2278"/>
    <vehicle id="3" actorConfig="0" startTime="103000" ref="vertical.0"/>
    <motionState vehicle="3" speed="0" time="103000" acceleration="0"/>
    <motionState vehicle="0" speed="897" time="104000" acceleration="1994"/>
    <motionState vehicle="1" speed="667" time="104000" acceleration="1631"/>
    <motionState vehicle="2" speed="751" time="104000" acceleration="1725"/>
    <motionState vehicle="3" speed="259" time="104000" acceleration="2592"/>
    <motionState vehicle="0" speed="1103" time="105000" acceleration="2062"/>
    <motionState vehicle="1" speed="868" time="105000" acceleration="2012"/>
    <motionState vehicle="2" speed="977" time="105000" acceleration="2256"/>
    <motionState vehicle="3" speed="446" time="105000" acceleration="1864"/>
    <motionState vehicle="0" speed="1105" time="106000" acceleration="18"/>
    <motionState vehicle="1" speed="997" time="106000" acceleration="1292"/>
    <motionState vehicle="2" speed="1022" time="106000" acceleration="455"/>
    <motionState vehicle="3" speed="664" time="106000" acceleration="2181"/>
    <motionState vehicle="0" speed="989" time="107000" acceleration="-1160"/>
    <motionState vehicle="1" speed="1044" time="107000" acceleration="471"/>
    <motionState vehicle="2" speed="1029" time="107000" acceleration="65"/>
    <motionState vehicle="3" speed="884" time="107000" acceleration="2201"/>
    <motionState vehicle="0" speed="1040" time="108000" acceleration="513"/>
    <motionState vehicle="1" speed="1004" time="108000" acceleration="-404"/>
    <motionState vehicle="2" speed="1059" time="108000" acceleration="308"/>
    <motionState vehicle="3" speed="996" time="108000" acceleration="1118"/>
    <motionState vehicle="0" speed="1012" time="109000" acceleration="-285"/>
    <motionState vehicle="1" speed="1080" time="109000" acceleration="764"/>
    <motionState vehicle="2" speed="1072" time="109000" acceleration="123"/>
    <motionState vehicle="3" speed="1107" time="109000" acceleration="1112"/>
    <motionState vehicle="0" speed="1022" time="110000" acceleration="103"/>
    <vehicle id="4" actorConfig="0" startTime="110000" ref="always_left.1"/>
    <motionState vehicle="4" speed="0" time="110000" acceleration="0"/>
    <motionState vehicle="1" speed="1090" time="110000" acceleration="101"/>
    <vehicle id="5" actorConfig="0" startTime="110000" ref="always_right.1"/>
    <motionState vehicle="5" speed="0" time="110000" acceleration="0"/>
    <motionState vehicle="2" speed="1107" time="110000" acceleration="354"/>
    <vehicle id="6" actorConfig="0" startTime="110000" ref="horizontal.1"/>
    <motionState vehicle="6" speed="0" time="110000" acceleration="0"/>
    <motionState vehicle="3" speed="987" time="110000" acceleration="-1200"/>
    <motionState vehicle="0" speed="1077" time="111000" acceleration="547"/>
    <motionState vehicle="4" speed="231" time="111000" acceleration="2310"/>
    <motionState vehicle="1" speed="1068" time="111000" acceleration="-223"/>
    <motionState vehicle="5" speed="244" time="111000" acceleration="2437"/>
    <motionState vehicle="2" speed="1058" time="111000" acceleration="-495"/>
    <motionState vehicle="6" speed="135" time="111000" acceleration="1346"/>
    <motionState vehicle="3" speed="1094" time="111000" acceleration="1075"/>
    <motionState vehicle="0" speed="1024" time="112000" acceleration="-524"/>
    <motionState vehicle="4" speed="398" time="112000" acceleration="1670"/>
    <motionState vehicle="1" speed="1089" time="112000" acceleration="212"/>
    <motionState vehicle="5" speed="472" time="112000" acceleration="2286"/>
    <motionState vehicle="2" speed="1005" time="112000" acceleration="-519"/>
    <motionState vehicle="6" speed="383" time="112000" acceleration="2484"/>
    <motionState vehicle="3" speed="1037" time="112000" acceleration="-574"/>
    <motionState vehicle="0" speed="1047" time="113000" acceleration="228"/>
    <motionState vehicle="4" speed="583" time="113000" acceleration="1846"/>
    <motionState vehicle="1" speed="1033" time="113000" acceleration="-556"/>
    <motionState vehicle="5" speed="611" time="113000" acceleration="1384"/>
    <motionState vehicle="2" speed="986" time="113000" acceleration="-192"/>
    <motionState vehicle="6" speed="603" time="113000" acceleration="2200"/>
    <motionState vehicle="3" speed="1021" time="113000" acceleration="-155"/>
    <vehicle id="7" actorConfig="0" startTime="113000" ref="vertical.1"/>
    <motionState vehicle="7" speed="0" time="113000" acceleration="0"/>
    <motionState vehicle="0" speed="1075" time="114000" acceleration="278"/>
    <motionState vehicle="4" speed="771" time="114000" acceleration="1889"/>
    <motionState vehicle="1" speed="1089" time="114000" acceleration="556"/>
    <motionState vehicle="5" speed="847" time="114000" acceleration="2362"/>
    <motionState vehicle="2" speed="1091" time="114000" acceleration="1051"/>
    <motionState vehicle="6" speed="859" time="114000" acceleration="2564"/>
    <motionState vehicle="3" speed="987" time="114000" acceleration="-341"/>
    <motionState vehicle="7" speed="177" time="114000" acceleration="1766"/>
    <motionState vehicle="0" speed="1100" time="115000" acceleration="251"/>
    <motionState vehicle="4" speed="958" time="115000" acceleration="1863"/>
    <motionState vehicle="1" speed="990" time="115000" acceleration="-987"/>
    <motionState vehicle="5" speed="1084" time="115000" acceleration="2367"/>
    <motionState vehicle="2" speed="1070" time="115000" acceleration="-210"/>
    <motionState vehicle="6" speed="1067" time="115000" acceleration="2075"/>
    <motionState vehicle="3" speed="1102" time="115000" acceleration="1154"/>
    <motionState vehicle="7" speed="308" time="115000" acceleration="1310"/>
    <motionState vehicle="0" speed="1073" time="116000" acceleration="-264"/>
    <motionState vehicle="4" speed="1083" time="116000" acceleration="1256"/>
    <motionState vehicle="1" speed="1084" time="116000" acceleration="937"/>
    <motionState vehicle="5" speed="1105" time="116000" acceleration="213"/>
    <motionState vehicle="2" speed="1017" time="116000" acceleration="-529"/>
    <motionState vehicle="6" speed="1065" time="116000" acceleration="-16"/>
    <motionState vehicle="3" speed="1088" time="116000" acceleration="-147"/>
    <motionState vehicle="7" speed="557" time="116000" acceleration="2496"/>
    <motionState vehicle="0" speed="1035" time="117000" acceleration="-382"/>
    <motionState vehicle="4" speed="1057" time="117000" acceleration="-265"/>
    <motionState vehicle="1" speed="1023" time="117000" acceleration="-612"/>
    <motionState vehicle="5" speed="1031" time="117000" acceleration="-738"/>
    <motionState vehicle="2" speed="1044" time="117000" acceleration="272"/>
    <motionState vehicle="6" speed="1004" time="117000" acceleration="-615"/>
    <motionState vehicle="3" speed="1056" time="117000" acceleration="-314"/>
    <motionState vehicle="7" speed="767" time="117000" acceleration="2093"/>
    <motionState vehicle="0" speed="1030" time="118000" acceleration="-51"/>
    <motionState vehicle="4" speed="991" time="118000" acceleration="-659"/>
    <motionState vehicle="1" speed="1064" time="118000" acceleration="408"/>
    <motionState vehicle="5" speed="1108" time="118000" acceleration="769"/>
    <motionState vehicle="2" speed="1097" time="118000" acceleration="531"/>
    <motionState vehicle="6" speed="997" time="118000" acceleration="-64"/>
    <motionState vehicle="3" speed="984" time="118000" acceleration="-719"/>
    <motionState vehicle="7" speed="987" time="118000" acceleration="2206"/>
    <motionState vehicle="0" speed="985" time="119000" acceleration="-449"/>
    <motionState vehicle="4" speed="1072" time="119000" acceleration="817"/>
    <motionState vehicle="1" speed="1047" time="119000" acceleration="-165"/>
    <motionState vehicle="5" speed="1019" time="119000" acceleration="-892"/>
    <motionState vehicle="2" speed="997" time="119000" acceleration="-999"/>
    <motionState vehicle="6" speed="1036" time="119000" acceleration="392"/>
    <motionState vehicle="3" speed="1056" time="119000" acceleration="717"/>
    <motionState vehicle="7" speed="1052" time="119000" acceleration="646"/>
</trajectories>
