<?xml version="1.0" encoding="UTF-8"?>

<!-- generated on Mon Nov 28 14:38:28 2016 by SUMO netconvert Version dev-SVN-r22106
<?xml version="1.0" encoding="UTF-8"?>

<configuration xmlns:xsi="http://www.w3.org/2001/XMLSchema-instance" xsi:noNamespaceSchemaLocation="http://sumo.dlr.de/xsd/netconvertConfiguration.xsd">

    <input>
        <osm-files value="osm.xml"/>
    </input>

    <projection>
        <proj.utm value="true"/>
    </projection>

    <processing>
        <geometry.remove value="true"/>
        <junctions.join value="true"/>
    </processing>

    <report>
        <xml-validation value="never"/>
    </report>

</configuration>
-->

<net version="0.27" xmlns:xsi="http://www.w3.org/2001/XMLSchema-instance" xsi:noNamespaceSchemaLocation="http://sumo.dlr.de/xsd/net_file.xsd">

    <location netOffset="-422408.05,-6194362.61" convBoundary="0.00,0.00,58.36,498.49" origBoundary="-4.240568,55.888473,-4.239705,55.892959" projParameter="+proj=utm +zone=30 +ellps=WGS84 +datum=WGS84 +units=m +no_defs"/>

    <type id="highway.bridleway" priority="1" numLanes="1" speed="2.78" allow="pedestrian" oneway="1" width="2.00"/>
    <type id="highway.bus_guideway" priority="1" numLanes="1" speed="8.33" allow="bus" oneway="1"/>
    <type id="highway.cycleway" priority="1" numLanes="1" speed="5.56" allow="bicycle" oneway="0" width="1.00"/>
    <type id="highway.footway" priority="1" numLanes="1" speed="2.78" allow="pedestrian" oneway="1" width="2.00"/>
    <type id="highway.ford" priority="1" numLanes="1" speed="2.78" allow="army" oneway="0"/>
    <type id="highway.living_street" priority="3" numLanes="1" speed="2.78" disallow="tram rail_urban rail rail_electric ship" oneway="0"/>
    <type id="highway.motorway" priority="13" numLanes="2" speed="44.44" allow="private emergency authority army vip passenger hov taxi bus coach delivery truck trailer motorcycle evehicle custom1 custom2" oneway="1"/>
    <type id="highway.motorway_link" priority="12" numLanes="1" speed="22.22" allow="private emergency authority army vip passenger hov taxi bus coach delivery truck trailer motorcycle evehicle custom1 custom2" oneway="1"/>
    <type id="highway.path" priority="1" numLanes="1" speed="2.78" allow="bicycle pedestrian" oneway="1" width="2.00"/>
    <type id="highway.pedestrian" priority="1" numLanes="1" speed="2.78" allow="pedestrian" oneway="1" width="2.00"/>
    <type id="highway.primary" priority="9" numLanes="2" speed="27.78" disallow="tram rail_urban rail rail_electric ship" oneway="0"/>
    <type id="highway.primary_link" priority="8" numLanes="1" speed="22.22" disallow="tram rail_urban rail rail_electric ship" oneway="0"/>
    <type id="highway.raceway" priority="14" numLanes="2" speed="83.33" allow="vip" oneway="0"/>
    <type id="highway.residential" priority="4" numLanes="1" speed="13.89" disallow="tram rail_urban rail rail_electric ship" oneway="0"/>
    <type id="highway.secondary" priority="7" numLanes="2" speed="27.78" disallow="tram rail_urban rail rail_electric ship" oneway="0"/>
    <type id="highway.secondary_link" priority="6" numLanes="1" speed="22.22" disallow="tram rail_urban rail rail_electric ship" oneway="0"/>
    <type id="highway.service" priority="2" numLanes="1" speed="5.56" allow="delivery bicycle pedestrian" oneway="0"/>
    <type id="highway.services" priority="1" numLanes="1" speed="8.33" disallow="tram rail_urban rail rail_electric ship" oneway="0"/>
    <type id="highway.stairs" priority="1" numLanes="1" speed="1.39" allow="pedestrian" oneway="1" width="2.00"/>
    <type id="highway.step" priority="1" numLanes="1" speed="1.39" allow="pedestrian" oneway="1" width="2.00"/>
    <type id="highway.steps" priority="1" numLanes="1" speed="1.39" allow="pedestrian" oneway="1" width="2.00"/>
    <type id="highway.tertiary" priority="6" numLanes="1" speed="22.22" disallow="tram rail_urban rail rail_electric ship" oneway="0"/>
    <type id="highway.tertiary_link" priority="5" numLanes="1" speed="22.22" disallow="tram rail_urban rail rail_electric ship" oneway="0"/>
    <type id="highway.track" priority="1" numLanes="1" speed="5.56" disallow="tram rail_urban rail rail_electric ship" oneway="0"/>
    <type id="highway.trunk" priority="11" numLanes="2" speed="27.78" disallow="tram rail_urban rail rail_electric bicycle pedestrian ship" oneway="0"/>
    <type id="highway.trunk_link" priority="10" numLanes="1" speed="22.22" disallow="tram rail_urban rail rail_electric bicycle pedestrian ship" oneway="0"/>
    <type id="highway.unclassified" priority="5" numLanes="1" speed="13.89" disallow="tram rail_urban rail rail_electric ship" oneway="0"/>
    <type id="highway.unsurfaced" priority="1" numLanes="1" speed="8.33" disallow="tram rail_urban rail rail_electric ship" oneway="0"/>
    <type id="railway.light_rail" priority="15" numLanes="1" speed="27.78" allow="rail_urban" oneway="1"/>
    <type id="railway.preserved" priority="15" numLanes="1" speed="27.78" allow="rail" oneway="1"/>
    <type id="railway.rail" priority="15" numLanes="1" speed="83.33" allow="rail rail_electric" oneway="1"/>
    <type id="railway.subway" priority="15" numLanes="1" speed="27.78" allow="rail_urban" oneway="1"/>
    <type id="railway.tram" priority="15" numLanes="1" speed="13.89" allow="tram" oneway="1"/>

    <edge id=":1596765647_0" function="internal">
        <lane id=":1596765647_0_0" index="0" allow="rail rail_electric" speed="83.33" length="2.80" shape="5.30,35.05 4.86,32.28"/>
    </edge>
    <edge id=":1596765684_0" function="internal">
        <lane id=":1596765684_0_0" index="0" allow="rail rail_electric" speed="83.33" length="0.13" shape="18.56,82.99 18.60,82.87"/>
    </edge>
    <edge id=":1596765684_2" function="internal">
        <lane id=":1596765684_2_0" index="0" speed="83.33" length="0.30" shape="18.60,82.87 18.66,82.81 18.75,82.82 18.85,82.91"/>
    </edge>
    <edge id=":1596765684_1" function="internal">
        <lane id=":1596765684_1_0" index="0" allow="rail rail_electric" speed="83.33" length="2.99" shape="17.99,80.05 18.85,82.91"/>
    </edge>
    <edge id=":1596765709_0" function="internal">
        <lane id=":1596765709_0_0" index="0" allow="rail rail_electric" speed="83.33" length="5.00" shape="31.87,124.93 33.37,129.70"/>
    </edge>
    <edge id=":1596765709_1" function="internal">
        <lane id=":1596765709_1_0" index="0" allow="rail rail_electric" speed="83.33" length="6.09" shape="31.87,124.93 31.90,126.56 31.12,127.65 30.26,128.77 30.02,130.46"/>
    </edge>
    <edge id=":1596765735_0" function="internal">
        <lane id=":1596765735_0_0" index="0" allow="rail rail_electric" speed="83.33" length="0.14" shape="35.49,137.45 35.53,137.32"/>
    </edge>
    <edge id=":1596765735_2" function="internal">
        <lane id=":1596765735_2_0" index="0" speed="83.33" length="0.32" shape="35.53,137.32 35.59,137.26 35.68,137.27 35.79,137.36"/>
    </edge>
    <edge id=":1596765735_1" function="internal">
        <lane id=":1596765735_1_0" index="0" allow="rail rail_electric" speed="83.33" length="2.99" shape="34.89,134.51 35.79,137.36"/>
    </edge>
    <edge id=":1596765757_0" function="internal">
        <lane id=":1596765757_0_0" index="0" allow="rail rail_electric" speed="83.33" length="5.01" shape="48.88,178.83 50.09,183.69"/>
    </edge>
    <edge id=":1596765757_1" function="internal">
        <lane id=":1596765757_1_0" index="0" allow="rail rail_electric" speed="83.33" length="6.32" shape="48.88,178.83 48.86,180.51 47.98,181.63 47.04,182.76 46.82,184.49"/>
    </edge>
    <edge id=":1596765849_0" function="internal">
        <lane id=":1596765849_0_0" index="0" allow="rail rail_electric" speed="83.33" length="5.05" shape="58.31,245.98 58.39,247.47 58.58,248.49 58.76,249.50 58.81,250.99"/>
    </edge>
    <edge id=":1596765849_1" function="internal">
        <lane id=":1596765849_1_0" index="0" allow="rail rail_electric" speed="83.33" length="6.22" shape="54.95,246.11 58.81,250.99"/>
    </edge>
    <edge id=":1596765923_0" function="internal">
        <lane id=":1596765923_0_0" index="0" allow="rail rail_electric" speed="83.33" length="2.75" shape="54.87,353.33 54.77,356.07"/>
    </edge>
    <edge id=":1596765963_0" function="internal">
        <lane id=":1596765963_0_0" index="0" allow="rail rail_electric" speed="83.33" length="0.10" shape="53.41,391.48 53.37,391.55"/>
    </edge>
    <edge id=":1596765963_2" function="internal">
        <lane id=":1596765963_2_0" index="0" speed="83.33" length="0.18" shape="53.37,391.55 53.32,391.58 53.28,391.56 53.23,391.50"/>
    </edge>
    <edge id=":1596765963_1" function="internal">
        <lane id=":1596765963_1_0" index="0" allow="rail rail_electric" speed="83.33" length="2.79" shape="53.30,394.28 53.33,393.46 53.33,392.89 53.29,392.32 53.23,391.50"/>
    </edge>
    <edge id=":cluster_1596765862_1596765895_0" function="internal">
        <lane id=":cluster_1596765862_1596765895_0_0" index="0" allow="rail rail_electric" speed="83.33" length="0.43" shape="56.73,305.00 56.72,305.44"/>
    </edge>
    <edge id=":cluster_1596765862_1596765895_1" function="internal">
        <lane id=":cluster_1596765862_1596765895_1_0" index="0" allow="rail rail_electric" speed="83.33" length="1.62" shape="56.73,305.00 56.77,304.40 56.81,304.20 56.87,304.41 56.93,305.01"/>
    </edge>
    <edge id=":cluster_1596765862_1596765895_2" function="internal">
        <lane id=":cluster_1596765862_1596765895_2_0" index="0" allow="rail rail_electric" speed="83.33" length="25.08" shape="55.75,330.49 56.72,305.44"/>
    </edge>

    <edge id="146404892#0" from="1596766027" to="1596765963" priority="15" type="railway.rail" spreadType="center" shape="49.54,498.49 50.54,462.56 52.20,421.43 52.71,408.75 53.35,392.98">
        <lane id="146404892#0_0" index="0" allow="rail rail_electric" speed="83.33" length="104.27" shape="49.54,498.49 50.54,462.56 52.20,421.43 52.71,408.75 53.30,394.28"/>
    </edge>
    <edge id="146404892#1" from="1596765963" to="1596765647" priority="15" type="railway.rail" spreadType="center" shape="53.35,392.98 49.95,352.23 17.72,110.97 9.56,61.72 5.06,33.60">
        <lane id="146404892#1_0" index="0" allow="rail rail_electric" speed="83.33" length="359.74" shape="53.23,391.50 49.95,352.23 17.72,110.97 9.56,61.72 5.30,35.05"/>
    </edge>
    <edge id="146404892#2" from="1596765647" to="1596765615" priority="15" type="railway.rail" spreadType="center">
        <lane id="146404892#2_0" index="0" allow="rail rail_electric" speed="83.33" length="32.64" shape="4.86,32.28 0.00,0.00"/>
    </edge>
    <edge id="146404896#0" from="1596765647" to="1596765684" priority="15" type="railway.rail" spreadType="center" shape="5.06,33.60 14.63,68.81 18.33,81.17">
        <lane id="146404896#0_0" index="0" allow="rail rail_electric" speed="83.33" length="46.76" shape="5.45,35.01 14.63,68.81 17.99,80.05"/>
    </edge>
    <edge id="146404896#1" from="1596765684" to="1596765709" priority="15" type="railway.rail" spreadType="center" shape="18.33,81.17 23.21,97.52 27.11,109.87">
        <lane id="146404896#1_0" index="0" allow="rail rail_electric" speed="83.33" length="43.99" shape="18.85,82.91 23.21,97.52 31.87,124.93"/>
    </edge>
    <edge id="146404896#2" from="1596765709" to="1596765735" priority="15" type="railway.rail" spreadType="center" shape="27.11,109.87 32.23,126.08 35.23,135.60">
        <lane id="146404896#2_0" index="0" allow="rail rail_electric" speed="83.33" length="5.04" shape="33.37,129.70 34.89,134.51"/>
    </edge>
    <edge id="146404896#3" from="1596765735" to="1596765757" priority="15" type="railway.rail" spreadType="center">
        <lane id="146404896#3_0" index="0" allow="rail rail_electric" speed="83.33" length="43.49" shape="35.79,137.36 48.88,178.83"/>
    </edge>
    <edge id="146404896#4" from="1596765757" to="1596765849" priority="15" type="railway.rail" spreadType="center" shape="41.40,155.14 51.98,189.90 57.08,215.14 58.36,242.66 57.83,276.30">
        <lane id="146404896#4_0" index="0" allow="rail rail_electric" speed="83.33" length="63.11" shape="50.09,183.69 51.98,189.90 57.08,215.14 58.36,242.66 58.31,245.98"/>
    </edge>
    <edge id="146404896#5" from="1596765849" to="cluster_1596765862_1596765895" priority="15" type="railway.rail" spreadType="center" shape="57.83,276.30 56.79,303.40">
        <lane id="146404896#5_0" index="0" allow="rail rail_electric" speed="83.33" length="54.05" shape="58.81,250.99 56.73,305.00"/>
    </edge>
    <edge id="146404896#7" from="cluster_1596765862_1596765895" to="1596765923" priority="15" type="railway.rail" spreadType="center" shape="55.75,330.49 54.81,354.91">
        <lane id="146404896#7_0" index="0" allow="rail rail_electric" speed="83.33" length="47.93" shape="56.72,305.44 54.87,353.33"/>
    </edge>
    <edge id="146404896#8" from="1596765923" to="1596765963" priority="15" type="railway.rail" spreadType="center">
        <lane id="146404896#8_0" index="0" allow="rail rail_electric" speed="83.33" length="35.43" shape="54.77,356.07 53.41,391.48"/>
    </edge>
    <edge id="146404901" from="cluster_1596765862_1596765895" to="1596765735" priority="15" type="railway.rail" spreadType="center" shape="56.79,303.40 54.17,272.37 35.23,135.60">
        <lane id="146404901_0" index="0" allow="rail rail_electric" speed="83.33" length="168.96" shape="56.93,305.01 54.17,272.37 35.49,137.45"/>
    </edge>
    <edge id="146404902" from="1596765757" to="1596765849" priority="15" type="railway.rail" spreadType="center" shape="41.40,155.14 47.64,188.90 54.67,243.14 57.83,276.30">
        <lane id="146404902_0" index="0" allow="rail rail_electric" speed="83.33" length="62.17" shape="46.82,184.49 47.64,188.90 54.67,243.14 54.95,246.11"/>
    </edge>
    <edge id="146404904" from="1596765709" to="cluster_1596765862_1596765895" priority="15" type="railway.rail" spreadType="center" shape="27.11,109.87 31.23,139.05 54.40,314.10 55.75,330.49">
        <lane id="146404904_0" index="0" allow="rail rail_electric" speed="83.33" length="201.70" shape="30.02,130.46 31.23,139.05 54.40,314.10 55.75,330.49"/>
    </edge>
    <edge id="146404905" from="1596765923" to="1596765684" priority="15" type="railway.rail" spreadType="center" shape="54.81,354.91 50.40,319.91 22.08,110.30 18.33,81.17">
        <lane id="146404905_0" index="0" allow="rail rail_electric" speed="83.33" length="272.76" shape="54.62,353.36 50.40,319.91 22.08,110.30 18.56,82.99"/>
    </edge>

    <junction id="1596765615" type="unregulated" x="0.00" y="0.00" incLanes="146404892#2_0" intLanes="" shape="-1.58,0.24 1.58,-0.24"/>
    <junction id="1596765647" type="priority" x="5.06" y="33.60" incLanes="146404892#1_0" intLanes=":1596765647_0_0" shape="3.74,35.47 6.99,34.59 6.45,32.04 3.28,32.52">
        <request index="0" response="0" foes="0" cont="0"/>
    </junction>
    <junction id="1596765684" type="priority" x="18.33" y="81.17" incLanes="146404905_0 146404896#0_0" intLanes=":1596765684_2_0 :1596765684_1_0" shape="17.01,83.45 20.38,82.46 19.53,79.59 16.46,80.51">
        <request index="0" response="10" foes="10" cont="1"/>
        <request index="1" response="00" foes="01" cont="0"/>
    </junction>
    <junction id="1596765709" type="priority" x="27.11" y="109.87" incLanes="146404896#1_0" intLanes=":1596765709_0_0 :1596765709_1_0" shape="28.43,130.68 31.60,130.24 31.84,130.18 34.89,129.22 33.40,124.45 30.35,125.41">
        <request index="0" response="00" foes="00" cont="0"/>
        <request index="1" response="00" foes="00" cont="0"/>
    </junction>
    <junction id="1596765735" type="priority" x="35.23" y="135.60" incLanes="146404901_0 146404896#2_0" intLanes=":1596765735_2_0 :1596765735_1_0" shape="33.94,137.93 37.32,136.89 36.41,134.03 33.36,134.99">
        <request index="0" response="10" foes="10" cont="1"/>
        <request index="1" response="00" foes="01" cont="0"/>
    </junction>
    <junction id="1596765757" type="priority" x="41.40" y="155.14" incLanes="146404896#3_0" intLanes=":1596765757_0_0 :1596765757_1_0" shape="45.25,184.78 48.39,184.20 48.56,184.16 51.62,183.23 50.40,178.35 47.35,179.31">
        <request index="0" response="00" foes="00" cont="0"/>
        <request index="1" response="00" foes="00" cont="0"/>
    </junction>
    <junction id="1596765849" type="priority" x="57.83" y="276.30" incLanes="146404896#4_0 146404902_0" intLanes=":1596765849_0_0 :1596765849_1_0" shape="59.91,246.00 56.71,245.95 56.55,245.96 53.36,246.26 57.21,250.93 60.40,251.05">
        <request index="0" response="00" foes="10" cont="0"/>
        <request index="1" response="01" foes="01" cont="0"/>
    </junction>
    <junction id="1596765923" type="priority" x="54.81" y="354.91" incLanes="146404896#7_0" intLanes=":1596765923_0_0" shape="56.48,353.14 53.03,353.55 53.17,356.01 56.37,356.14">
        <request index="0" response="0" foes="0" cont="0"/>
    </junction>
    <junction id="1596765963" type="priority" x="53.35" y="392.98" incLanes="146404896#8_0 146404892#0_0" intLanes=":1596765963_2_0 :1596765963_1_0" shape="55.01,391.35 51.63,391.63 51.70,394.22 54.90,394.35">
        <request index="0" response="10" foes="10" cont="1"/>
        <request index="1" response="00" foes="01" cont="0"/>
    </junction>
    <junction id="1596766027" type="unregulated" x="49.54" y="498.49" incLanes="" intLanes="" shape="51.14,498.53 47.94,498.44"/>
    <junction id="cluster_1596765862_1596765895" type="priority" x="56.27" y="316.95" incLanes="146404896#5_0 146404904_0" intLanes=":cluster_1596765862_1596765895_0_0 :cluster_1596765862_1596765895_1_0 :cluster_1596765862_1596765895_2_0" shape="58.31,305.50 55.12,305.37 54.41,302.00 55.06,301.95 55.13,304.94 58.33,305.06">
        <request index="0" response="100" foes="100" cont="0"/>
        <request index="1" response="100" foes="100" cont="0"/>
        <request index="2" response="000" foes="011" cont="0"/>
    </junction>

    <junction id=":1596765684_2_0" type="internal" x="18.60" y="82.87" incLanes=":1596765684_0_0 146404896#0_0" intLanes=":1596765684_1_0"/>
    <junction id=":1596765735_2_0" type="internal" x="35.53" y="137.32" incLanes=":1596765735_0_0 146404896#2_0" intLanes=":1596765735_1_0"/>
    <junction id=":1596765963_2_0" type="internal" x="53.37" y="391.55" incLanes=":1596765963_0_0 146404892#0_0" intLanes=":1596765963_1_0"/>

    <connection from="146404892#0" to="146404892#1" fromLane="0" toLane="0" via=":1596765963_1_0" dir="s" state="M"/>
    <connection from="146404892#1" to="146404892#2" fromLane="0" toLane="0" via=":1596765647_0_0" dir="s" state="M"/>
    <connection from="146404896#0" to="146404896#1" fromLane="0" toLane="0" via=":1596765684_1_0" dir="s" state="M"/>
    <connection from="146404896#1" to="146404896#2" fromLane="0" toLane="0" via=":1596765709_0_0" dir="s" state="M"/>
    <connection from="146404896#1" to="146404904" fromLane="0" toLane="0" via=":1596765709_1_0" dir="s" state="M"/>
    <connection from="146404896#2" to="146404896#3" fromLane="0" toLane="0" via=":1596765735_1_0" dir="s" state="M"/>
    <connection from="146404896#3" to="146404896#4" fromLane="0" toLane="0" via=":1596765757_0_0" dir="s" state="M"/>
    <connection from="146404896#3" to="146404902" fromLane="0" toLane="0" via=":1596765757_1_0" dir="s" state="M"/>
    <connection from="146404896#4" to="146404896#5" fromLane="0" toLane="0" via=":1596765849_0_0" dir="s" state="M"/>
    <connection from="146404896#5" to="146404896#7" fromLane="0" toLane="0" via=":cluster_1596765862_1596765895_0_0" dir="s" state="m"/>
    <connection from="146404896#5" to="146404901" fromLane="0" toLane="0" via=":cluster_1596765862_1596765895_1_0" dir="L" state="m"/>
    <connection from="146404896#7" to="146404896#8" fromLane="0" toLane="0" via=":1596765923_0_0" dir="s" state="M"/>
    <connection from="146404896#8" to="146404892#1" fromLane="0" toLane="0" via=":1596765963_0_0" dir="t" state="m"/>
    <connection from="146404901" to="146404896#3" fromLane="0" toLane="0" via=":1596765735_0_0" dir="t" state="m"/>
    <connection from="146404902" to="146404896#5" fromLane="0" toLane="0" via=":1596765849_1_0" dir="s" state="m"/>
    <connection from="146404904" to="146404896#7" fromLane="0" toLane="0" via=":cluster_1596765862_1596765895_2_0" dir="s" state="M"/>
    <connection from="146404905" to="146404896#1" fromLane="0" toLane="0" via=":1596765684_0_0" dir="t" state="m"/>

    <connection from=":1596765647_0" to="146404892#2" fromLane="0" toLane="0" dir="s" state="M"/>
    <connection from=":1596765684_0" to="146404896#1" fromLane="0" toLane="0" via=":1596765684_2_0" dir="s" state="m"/>
    <connection from=":1596765684_2" to="146404896#1" fromLane="0" toLane="0" dir="s" state="M"/>
    <connection from=":1596765684_1" to="146404896#1" fromLane="0" toLane="0" dir="s" state="M"/>
    <connection from=":1596765709_0" to="146404896#2" fromLane="0" toLane="0" dir="s" state="M"/>
    <connection from=":1596765709_1" to="146404904" fromLane="0" toLane="0" dir="s" state="M"/>
    <connection from=":1596765735_0" to="146404896#3" fromLane="0" toLane="0" via=":1596765735_2_0" dir="s" state="m"/>
    <connection from=":1596765735_2" to="146404896#3" fromLane="0" toLane="0" dir="s" state="M"/>
    <connection from=":1596765735_1" to="146404896#3" fromLane="0" toLane="0" dir="s" state="M"/>
    <connection from=":1596765757_0" to="146404896#4" fromLane="0" toLane="0" dir="s" state="M"/>
    <connection from=":1596765757_1" to="146404902" fromLane="0" toLane="0" dir="s" state="M"/>
    <connection from=":1596765849_0" to="146404896#5" fromLane="0" toLane="0" dir="s" state="M"/>
    <connection from=":1596765849_1" to="146404896#5" fromLane="0" toLane="0" dir="s" state="M"/>
    <connection from=":1596765923_0" to="146404896#8" fromLane="0" toLane="0" dir="s" state="M"/>
    <connection from=":1596765963_0" to="146404892#1" fromLane="0" toLane="0" via=":1596765963_2_0" dir="s" state="m"/>
    <connection from=":1596765963_2" to="146404892#1" fromLane="0" toLane="0" dir="s" state="M"/>
    <connection from=":1596765963_1" to="146404892#1" fromLane="0" toLane="0" dir="s" state="M"/>
    <connection from=":cluster_1596765862_1596765895_0" to="146404896#7" fromLane="0" toLane="0" dir="s" state="M"/>
    <connection from=":cluster_1596765862_1596765895_1" to="146404901" fromLane="0" toLane="0" dir="s" state="M"/>
    <connection from=":cluster_1596765862_1596765895_2" to="146404896#7" fromLane="0" toLane="0" dir="s" state="M"/>

</net>
