<?xml version="1.0" encoding="UTF-8"?>

<!-- generated on Thu Apr 23 13:57:59 2015 by SUMO netconvert Version dev-SVN-r18276I
<?xml version="1.0" encoding="UTF-8"?>

<configuration xmlns:xsi="http://www.w3.org/2001/XMLSchema-instance" xsi:noNamespaceSchemaLocation="http://sumo.dlr.de/xsd/netconvertConfiguration.xsd">

    <input>
        <osm-files value="osm.xml"/>
    </input>

    <output>
        <output-file value="net.net.xml"/>
    </output>

    <projection>
        <proj.utm value="true"/>
    </projection>

    <processing>
        <geometry.remove value="true"/>
        <junctions.join value="true"/>
    </processing>

    <report>
        <xml-validation value="never"/>
    </report>

</configuration>
-->

<net version="0.13" xmlns:xsi="http://www.w3.org/2001/XMLSchema-instance" xsi:noNamespaceSchemaLocation="http://sumo.dlr.de/xsd/net_file.xsd">

    <location netOffset="-422408.05,-6194362.61" convBoundary="0.00,0.00,58.36,498.49" origBoundary="-4.240568,55.888473,-4.239705,55.892959" projParameter="+proj=utm +zone=30 +ellps=WGS84 +datum=WGS84 +units=m +no_defs"/>

    <edge id=":1596765647_0" function="internal">
        <lane id=":1596765647_0_0" index="0" allow="rail" speed="83.33" length="2.80" shape="5.30,35.05 4.86,32.28"/>
    </edge>
    <edge id=":1596765647_1" function="internal">
        <lane id=":1596765647_1_0" index="0" allow="rail" speed="83.33" length="0.23" shape="5.30,35.05 5.32,34.98 5.35,34.95 5.39,34.96 5.45,35.01"/>
    </edge>
    <edge id=":1596765684_0" function="internal">
        <lane id=":1596765684_0_0" index="0" allow="rail" speed="83.33" length="0.10" shape="18.44,82.08 18.46,82.01"/>
    </edge>
    <edge id=":1596765684_2" function="internal">
        <lane id=":1596765684_2_0" index="0" speed="83.33" length="0.15" shape="18.46,82.01 18.49,81.99 18.54,81.99 18.59,82.04"/>
    </edge>
    <edge id=":1596765684_1" function="internal">
        <lane id=":1596765684_1_0" index="0" allow="rail" speed="83.33" length="2.07" shape="17.99,80.05 18.59,82.04"/>
    </edge>
    <edge id=":1596765709_0" function="internal">
        <lane id=":1596765709_0_0" index="0" allow="rail" speed="83.33" length="5.00" shape="31.87,124.93 33.37,129.70"/>
    </edge>
    <edge id=":1596765709_1" function="internal">
        <lane id=":1596765709_1_0" index="0" allow="rail" speed="83.33" length="5.83" shape="31.87,124.93 30.02,130.46"/>
    </edge>
    <edge id=":1596765735_0" function="internal">
        <lane id=":1596765735_0_0" index="0" allow="rail" speed="83.33" length="0.10" shape="35.35,136.48 35.37,136.41"/>
    </edge>
    <edge id=":1596765735_2" function="internal">
        <lane id=":1596765735_2_0" index="0" speed="83.33" length="0.15" shape="35.37,136.41 35.40,136.39 35.44,136.39 35.49,136.43"/>
    </edge>
    <edge id=":1596765735_1" function="internal">
        <lane id=":1596765735_1_0" index="0" allow="rail" speed="83.33" length="2.02" shape="34.89,134.51 35.49,136.43"/>
    </edge>
    <edge id=":1596765757_0" function="internal">
        <lane id=":1596765757_0_0" index="0" allow="rail" speed="83.33" length="2.25" shape="41.17,154.41 43.14,155.68"/>
        <lane id=":1596765757_0_1" index="1" allow="rail" speed="83.33" length="2.25" shape="41.17,154.41 39.87,156.13"/>
    </edge>
    <edge id=":1596765849_0" function="internal">
        <lane id=":1596765849_0_0" index="0" allow="rail" speed="83.33" length="2.32" shape="59.37,275.33 57.81,277.05"/>
    </edge>
    <edge id=":1596765923_0" function="internal">
        <lane id=":1596765923_0_0" index="0" allow="rail" speed="83.33" length="2.75" shape="54.87,353.33 54.77,356.07"/>
    </edge>
    <edge id=":1596765923_1" function="internal">
        <lane id=":1596765923_1_0" index="0" allow="rail" speed="83.33" length="0.38" shape="54.87,353.33 54.82,353.44 54.76,353.48 54.69,353.45 54.62,353.36"/>
    </edge>
    <edge id=":1596765963_0" function="internal">
        <lane id=":1596765963_0_0" index="0" allow="rail" speed="83.33" length="0.10" shape="53.41,391.48 53.37,391.55"/>
    </edge>
    <edge id=":1596765963_2" function="internal">
        <lane id=":1596765963_2_0" index="0" speed="83.33" length="0.18" shape="53.37,391.55 53.32,391.58 53.28,391.56 53.23,391.50"/>
    </edge>
    <edge id=":1596765963_1" function="internal">
        <lane id=":1596765963_1_0" index="0" allow="rail" speed="83.33" length="2.79" shape="53.30,394.28 53.23,391.50"/>
    </edge>
    <edge id=":cluster_1596765862_1596765895_0" function="internal">
        <lane id=":cluster_1596765862_1596765895_0_0" index="0" allow="rail" speed="83.33" length="9.52" shape="56.73,305.00 56.37,314.51"/>
    </edge>
    <edge id=":cluster_1596765862_1596765895_1" function="internal">
        <lane id=":cluster_1596765862_1596765895_1_0" index="0" allow="rail" speed="83.33" length="1.62" shape="56.73,305.00 56.77,304.40 56.81,304.20 56.87,304.41 56.93,305.01"/>
    </edge>
    <edge id=":cluster_1596765862_1596765895_2" function="internal">
        <lane id=":cluster_1596765862_1596765895_2_0" index="0" allow="rail" speed="83.33" length="16.03" shape="55.75,330.49 56.05,329.40 56.29,322.50 56.41,315.60 56.37,314.51"/>
    </edge>
    <edge id=":cluster_1596765862_1596765895_3" function="internal">
        <lane id=":cluster_1596765862_1596765895_3_0" index="0" allow="rail" speed="83.33" length="36.35" shape="55.75,330.49 46.49,323.68 43.60,317.16 47.08,310.94 56.16,305.48"/>
    </edge>
    <edge id=":cluster_1596765862_1596765895_4" function="internal">
        <lane id=":cluster_1596765862_1596765895_4_0" index="0" speed="83.33" length="0.90" shape="56.16,305.48 56.93,305.01"/>
    </edge>

    <edge id="146404892#0" from="1596766027" to="1596765963" priority="15" type="railway.rail" spreadType="center" shape="49.54,498.49 50.54,462.56 52.20,421.43 52.71,408.75 53.35,392.98">
        <lane id="146404892#0_0" index="0" allow="rail" speed="83.33" length="104.27" shape="49.54,498.49 50.54,462.56 52.20,421.43 52.71,408.75 53.30,394.28"/>
    </edge>
    <edge id="146404892#1" from="1596765963" to="1596765647" priority="15" type="railway.rail" spreadType="center" shape="53.35,392.98 49.95,352.23 17.72,110.97 9.56,61.72 5.06,33.60">
        <lane id="146404892#1_0" index="0" allow="rail" speed="83.33" length="359.74" shape="53.23,391.50 49.95,352.23 17.72,110.97 9.56,61.72 5.30,35.05"/>
    </edge>
    <edge id="146404892#2" from="1596765647" to="1596765615" priority="15" type="railway.rail" spreadType="center">
        <lane id="146404892#2_0" index="0" allow="rail" speed="83.33" length="32.64" shape="4.86,32.28 0.00,0.00"/>
    </edge>
    <edge id="146404896#0" from="1596765647" to="1596765684" priority="15" type="railway.rail" spreadType="center" shape="5.06,33.60 14.63,68.81 18.33,81.17">
        <lane id="146404896#0_0" index="0" allow="rail" speed="83.33" length="46.76" shape="5.45,35.01 14.63,68.81 17.99,80.05"/>
    </edge>
    <edge id="146404896#1" from="1596765684" to="1596765709" priority="15" type="railway.rail" spreadType="center" shape="18.33,81.17 23.21,97.52 27.11,109.87">
        <lane id="146404896#1_0" index="0" allow="rail" speed="83.33" length="44.91" shape="18.59,82.04 23.21,97.52 31.87,124.93"/>
    </edge>
    <edge id="146404896#2" from="1596765709" to="1596765735" priority="15" type="railway.rail" spreadType="center" shape="27.11,109.87 32.23,126.08 35.23,135.60">
        <lane id="146404896#2_0" index="0" allow="rail" speed="83.33" length="5.04" shape="33.37,129.70 34.89,134.51"/>
    </edge>
    <edge id="146404896#3" from="1596765735" to="1596765757" priority="15" type="railway.rail" spreadType="center">
        <lane id="146404896#3_0" index="0" allow="rail" speed="83.33" length="18.85" shape="35.49,136.43 41.17,154.41"/>
    </edge>
    <edge id="146404896#4+146404902" from="1596765757" to="1596765849" priority="15" spreadType="center">
        <lane id="146404896#4+146404902_0" index="0" allow="rail" speed="83.33" length="120.74" shape="43.14,155.68 59.37,275.33"/>
        <lane id="146404896#4+146404902_1" index="1" allow="rail" speed="83.33" length="120.74" shape="39.87,156.13 56.10,275.78"/>
    </edge>
    <edge id="146404896#5" from="1596765849" to="cluster_1596765862_1596765895" priority="15" type="railway.rail" spreadType="center" shape="57.83,276.30 56.79,303.40">
        <lane id="146404896#5_0" index="0" allow="rail" speed="83.33" length="27.97" shape="57.81,277.05 56.73,305.00"/>
    </edge>
    <edge id="146404896#7" from="cluster_1596765862_1596765895" to="1596765923" priority="15" type="railway.rail" spreadType="center" shape="55.75,330.49 54.81,354.91">
        <lane id="146404896#7_0" index="0" allow="rail" speed="83.33" length="38.85" shape="56.37,314.51 54.87,353.33"/>
    </edge>
    <edge id="146404896#8" from="1596765923" to="1596765963" priority="15" type="railway.rail" spreadType="center">
        <lane id="146404896#8_0" index="0" allow="rail" speed="83.33" length="35.43" shape="54.77,356.07 53.41,391.48"/>
    </edge>
    <edge id="146404901" from="cluster_1596765862_1596765895" to="1596765735" priority="15" type="railway.rail" spreadType="center" shape="56.79,303.40 54.17,272.37 35.23,135.60">
        <lane id="146404901_0" index="0" allow="rail" speed="83.33" length="169.95" shape="56.93,305.01 54.17,272.37 35.35,136.48"/>
    </edge>
    <edge id="146404904" from="1596765709" to="cluster_1596765862_1596765895" priority="15" type="railway.rail" spreadType="center" shape="27.11,109.87 31.23,139.05 54.40,314.10 55.75,330.49">
        <lane id="146404904_0" index="0" allow="rail" speed="83.33" length="201.70" shape="30.02,130.46 31.23,139.05 54.40,314.10 55.75,330.49"/>
    </edge>
    <edge id="146404905" from="1596765923" to="1596765684" priority="15" type="railway.rail" spreadType="center" shape="54.81,354.91 50.40,319.91 22.08,110.30 18.33,81.17">
        <lane id="146404905_0" index="0" allow="rail" speed="83.33" length="273.69" shape="54.62,353.36 50.40,319.91 22.08,110.30 18.44,82.08"/>
    </edge>

    <junction id="1596765615" type="unregulated" x="0.00" y="0.00" incLanes="146404892#2_0" intLanes="" shape="-1.58,0.24 1.58,-0.24"/>
    <junction id="1596765647" type="priority" x="5.06" y="33.60" incLanes="146404892#1_0" intLanes=":1596765647_0_0 :1596765647_1_0" shape="3.74,35.47 6.99,34.59 6.45,32.04 3.28,32.52">
        <request index="0" response="00" foes="00" cont="0"/>
        <request index="1" response="00" foes="00" cont="0"/>
    </junction>
    <junction id="1596765684" type="priority" x="18.33" y="81.17" incLanes="146404905_0 146404896#0_0" intLanes=":1596765684_2_0 :1596765684_1_0" shape="16.89,82.54 20.12,81.58 19.53,79.59 16.46,80.51">
        <request index="0" response="10" foes="10" cont="1"/>
        <request index="1" response="00" foes="01" cont="0"/>
    </junction>
    <junction id="1596765709" type="priority" x="27.11" y="109.87" incLanes="146404896#1_0" intLanes=":1596765709_0_0 :1596765709_1_0" shape="28.43,130.68 31.60,130.24 31.84,130.18 34.89,129.22 33.40,124.45 30.35,125.41">
        <request index="0" response="00" foes="00" cont="0"/>
        <request index="1" response="00" foes="00" cont="0"/>
    </junction>
    <junction id="1596765735" type="priority" x="35.23" y="135.60" incLanes="146404901_0 146404896#2_0" intLanes=":1596765735_2_0 :1596765735_1_0" shape="33.80,136.96 37.02,135.96 36.41,134.03 33.36,134.99">
        <request index="0" response="10" foes="10" cont="1"/>
        <request index="1" response="00" foes="01" cont="0"/>
    </junction>
    <junction id="1596765757" type="priority" x="41.40" y="155.14" incLanes="146404896#3_0" intLanes=":1596765757_0_0 :1596765757_0_1" shape="38.28,156.34 44.72,155.47 42.69,153.92 39.64,154.89">
        <request index="0" response="00" foes="00" cont="0"/>
        <request index="1" response="00" foes="00" cont="0"/>
    </junction>
    <junction id="1596765849" type="priority" x="57.83" y="276.30" incLanes="146404896#4+146404902_0 146404896#4+146404902_1" intLanes=":1596765849_0_0" shape="60.95,275.12 54.51,275.99 56.21,276.99 59.40,277.11">
        <request index="0" response="0" foes="0" cont="0"/>
    </junction>
    <junction id="1596765923" type="priority" x="54.81" y="354.91" incLanes="146404896#7_0" intLanes=":1596765923_0_0 :1596765923_1_0" shape="56.48,353.14 53.03,353.55 53.17,356.01 56.37,356.14">
        <request index="0" response="00" foes="00" cont="0"/>
        <request index="1" response="00" foes="00" cont="0"/>
    </junction>
    <junction id="1596765963" type="priority" x="53.35" y="392.98" incLanes="146404896#8_0 146404892#0_0" intLanes=":1596765963_2_0 :1596765963_1_0" shape="55.01,391.35 51.63,391.63 51.70,394.22 54.90,394.35">
        <request index="0" response="10" foes="10" cont="1"/>
        <request index="1" response="00" foes="01" cont="0"/>
    </junction>
    <junction id="1596766027" type="unregulated" x="49.54" y="498.49" incLanes="" intLanes="" shape="51.14,498.53 47.94,498.44"/>
    <junction id="cluster_1596765862_1596765895" type="priority" x="56.27" y="316.95" incLanes="146404896#5_0 146404904_0" intLanes=":cluster_1596765862_1596765895_0_0 :cluster_1596765862_1596765895_1_0 :cluster_1596765862_1596765895_2_0 :cluster_1596765862_1596765895_4_0" shape="57.97,314.57 54.77,314.45 55.27,305.12 55.06,301.95 55.13,304.94 58.33,305.06">
        <request index="0" response="0000" foes="0100" cont="0"/>
        <request index="1" response="0000" foes="1000" cont="0"/>
        <request index="2" response="0001" foes="0001" cont="0"/>
        <request index="3" response="0010" foes="0010" cont="1"/>
    </junction>

    <junction id=":1596765684_2_0" type="internal" x="18.46" y="82.01" incLanes=":1596765684_0_0 146404896#0_0" intLanes=":1596765684_1_0"/>
    <junction id=":1596765735_2_0" type="internal" x="35.37" y="136.41" incLanes=":1596765735_0_0 146404896#2_0" intLanes=":1596765735_1_0"/>
    <junction id=":1596765963_2_0" type="internal" x="53.37" y="391.55" incLanes=":1596765963_0_0 146404892#0_0" intLanes=":1596765963_1_0"/>
    <junction id=":cluster_1596765862_1596765895_4_0" type="internal" x="56.16" y="305.48" incLanes=":cluster_1596765862_1596765895_3_0 146404896#5_0" intLanes=":cluster_1596765862_1596765895_1_0"/>

    <connection from="146404892#0" to="146404892#1" fromLane="0" toLane="0" via=":1596765963_1_0" dir="s" state="M"/>
    <connection from="146404892#1" to="146404892#2" fromLane="0" toLane="0" via=":1596765647_0_0" dir="s" state="M"/>
    <connection from="146404892#1" to="146404896#0" fromLane="0" toLane="0" via=":1596765647_1_0" dir="t" state="M"/>
    <connection from="146404896#0" to="146404896#1" fromLane="0" toLane="0" via=":1596765684_1_0" dir="s" state="M"/>
    <connection from="146404896#1" to="146404896#2" fromLane="0" toLane="0" via=":1596765709_0_0" dir="s" state="M"/>
    <connection from="146404896#1" to="146404904" fromLane="0" toLane="0" via=":1596765709_1_0" dir="s" state="M"/>
    <connection from="146404896#2" to="146404896#3" fromLane="0" toLane="0" via=":1596765735_1_0" dir="s" state="M"/>
    <connection from="146404896#3" to="146404896#4+146404902" fromLane="0" toLane="0" via=":1596765757_0_0" dir="s" state="M"/>
    <connection from="146404896#3" to="146404896#4+146404902" fromLane="0" toLane="1" via=":1596765757_0_1" dir="s" state="M"/>
    <connection from="146404896#4+146404902" to="146404896#5" fromLane="0" toLane="0" via=":1596765849_0_0" dir="s" state="M"/>
    <connection from="146404896#5" to="146404896#7" fromLane="0" toLane="0" via=":cluster_1596765862_1596765895_0_0" dir="s" state="M"/>
    <connection from="146404896#5" to="146404901" fromLane="0" toLane="0" via=":cluster_1596765862_1596765895_1_0" dir="l" state="M"/>
    <connection from="146404896#7" to="146404896#8" fromLane="0" toLane="0" via=":1596765923_0_0" dir="s" state="M"/>
    <connection from="146404896#7" to="146404905" fromLane="0" toLane="0" via=":1596765923_1_0" dir="t" state="M"/>
    <connection from="146404896#8" to="146404892#1" fromLane="0" toLane="0" via=":1596765963_0_0" dir="t" state="m"/>
    <connection from="146404901" to="146404896#3" fromLane="0" toLane="0" via=":1596765735_0_0" dir="t" state="m"/>
    <connection from="146404904" to="146404896#7" fromLane="0" toLane="0" via=":cluster_1596765862_1596765895_2_0" dir="s" state="m"/>
    <connection from="146404904" to="146404901" fromLane="0" toLane="0" via=":cluster_1596765862_1596765895_3_0" dir="t" state="m"/>
    <connection from="146404905" to="146404896#1" fromLane="0" toLane="0" via=":1596765684_0_0" dir="t" state="m"/>

    <connection from=":1596765647_0" to="146404892#2" fromLane="0" toLane="0" dir="s" state="M"/>
    <connection from=":1596765647_1" to="146404896#0" fromLane="0" toLane="0" dir="s" state="M"/>
    <connection from=":1596765684_0" to="146404896#1" fromLane="0" toLane="0" via=":1596765684_2_0" dir="s" state="m"/>
    <connection from=":1596765684_2" to="146404896#1" fromLane="0" toLane="0" dir="s" state="M"/>
    <connection from=":1596765684_1" to="146404896#1" fromLane="0" toLane="0" dir="s" state="M"/>
    <connection from=":1596765709_0" to="146404896#2" fromLane="0" toLane="0" dir="s" state="M"/>
    <connection from=":1596765709_1" to="146404904" fromLane="0" toLane="0" dir="s" state="M"/>
    <connection from=":1596765735_0" to="146404896#3" fromLane="0" toLane="0" via=":1596765735_2_0" dir="s" state="m"/>
    <connection from=":1596765735_2" to="146404896#3" fromLane="0" toLane="0" dir="s" state="M"/>
    <connection from=":1596765735_1" to="146404896#3" fromLane="0" toLane="0" dir="s" state="M"/>
    <connection from=":1596765757_0" to="146404896#4+146404902" fromLane="0" toLane="0" dir="s" state="M"/>
    <connection from=":1596765757_0" to="146404896#4+146404902" fromLane="1" toLane="1" dir="s" state="M"/>
    <connection from=":1596765849_0" to="146404896#5" fromLane="0" toLane="0" dir="s" state="M"/>
    <connection from=":1596765923_0" to="146404896#8" fromLane="0" toLane="0" dir="s" state="M"/>
    <connection from=":1596765923_1" to="146404905" fromLane="0" toLane="0" dir="s" state="M"/>
    <connection from=":1596765963_0" to="146404892#1" fromLane="0" toLane="0" via=":1596765963_2_0" dir="s" state="m"/>
    <connection from=":1596765963_2" to="146404892#1" fromLane="0" toLane="0" dir="s" state="M"/>
    <connection from=":1596765963_1" to="146404892#1" fromLane="0" toLane="0" dir="s" state="M"/>
    <connection from=":cluster_1596765862_1596765895_0" to="146404896#7" fromLane="0" toLane="0" dir="s" state="M"/>
    <connection from=":cluster_1596765862_1596765895_1" to="146404901" fromLane="0" toLane="0" dir="s" state="M"/>
    <connection from=":cluster_1596765862_1596765895_2" to="146404896#7" fromLane="0" toLane="0" dir="s" state="M"/>
    <connection from=":cluster_1596765862_1596765895_3" to="146404901" fromLane="0" toLane="0" via=":cluster_1596765862_1596765895_4_0" dir="s" state="m"/>
    <connection from=":cluster_1596765862_1596765895_4" to="146404901" fromLane="0" toLane="0" dir="s" state="M"/>

</net>
