<routes>
    <vehicle id="veh0" depart="0" departPos="400" endPos="20">
        <route edges="right2end end"/>
        <param key="example" value="42"/>
    </vehicle>

</routes>
