<?xml version="1.0" encoding="UTF-8"?>

<!-- generated on 01/12/2020 14:40:17 by Eclipse SUMO netedit Version 1.8.0
-->

<routes xmlns:xsi="http://www.w3.org/2001/XMLSchema-instance" xsi:noNamespaceSchemaLocation="http://sumo.dlr.de/xsd/routes_file.xsd">
</routes>
