<?xml version="1.0" encoding="UTF-8"?>

<!-- generated on 2024-09-18 14:56:00 by Eclipse SUMO sumo Version v1_20_0+2031-cd9a71df42c
<sumoConfiguration xmlns:xsi="http://www.w3.org/2001/XMLSchema-instance" xsi:noNamespaceSchemaLocation="http://sumo.dlr.de/xsd/sumoConfiguration.xsd">

    <input>
        <net-file value="net.net.xml"/>
        <route-files value="input_routes.rou.xml"/>
        <additional-files value="input_additional.add.xml,input_additional2.add.xml"/>
    </input>

    <output>
        <stop-output value="stopinfos.xml"/>
        <save-state.times value="20"/>
        <save-state.files value="state.xml"/>
    </output>

    <processing>
        <default.speeddev value="0"/>
    </processing>

    <report>
        <verbose value="true"/>
        <duration-log.disable value="true"/>
        <no-step-log value="true"/>
    </report>

    <mesoscopic>
        <mesosim value="true"/>
    </mesoscopic>

</sumoConfiguration>
-->

<snapshot xmlns:xsi="http://www.w3.org/2001/XMLSchema-instance" xsi:noNamespaceSchemaLocation="http://sumo.dlr.de/xsd/state_file.xsd" version="v1_20_0+2031-cd9a71df42c" time="20.00" type="meso">
    <route id="!v_0" state="0" edges="E0 -E0"/>
    <delay number="1" begin="1" end="0" depart="0.00" time="0.00"/>
    <vType id="DEFAULT_VEHTYPE"/>
    <vehicle id="v_0" depart="0.00" route="!v_0" distance="117.5 0" speedFactor="1.0000" state="0 0 1 0 0 0 22414 13459 9223372036854774807">
        <stop parkingArea="pa_1" duration="5.00" started="8.46" ended="14.00"/>
    </vehicle>
    <segment id="-E0:0">
        <vehicles time="-1" value="v_0"/>
    </segment>
    <segment id="E0:0">
        <vehicles time="10128" value=""/>
    </segment>
</snapshot>
