<?xml version="1.0" encoding="UTF-8"?>

<!-- generated on 2023-06-29 15:03:56.211880 by routeSampler.py v1_17_0+1318-85f891f765f
<configuration>
    <route-files value="input_routes.rou.xml"/>
    <turn-files value="input_turns.xml"/>
    <write-flows value="number"/>
    <write-route-ids value="True"/>
</configuration>
-->

<routes xmlns:xsi="http://www.w3.org/2001/XMLSchema-instance" xsi:noNamespaceSchemaLocation="http://sumo.dlr.de/xsd/routes_file.xsd">
<!-- begin="0.0" end="99.0" -->
    <route id="0" edges="-109.80.00 -11 -11.80.00 3 3.180.00 27 27.80.00 -27"/> <!-- 1 -->
    <route id="1" edges="-109.80.00 -11 -11.80.00 3 3.180.00 27 27.80.00 -27 -27.80.00"/> <!-- 1 -->
    <route id="2" edges="-109.80.00 23 23.80.00 31 31.80.00 -31 -31.80.00"/> <!-- 1 -->
    <route id="3" edges="-11 -11.80.00 15 15.180.00 -123 -123.121.42 -120 -120.180.00"/> <!-- 1 -->
    <route id="4" edges="-11.80.00 3 3.180.00 27 27.80.00 55 71"/> <!-- 1 -->
    <route id="5" edges="-120 -120.180.00 -64 -64.80.00 -31 -31.80.00 -23 -23.80.00 -11 -11.80.00 3 3.180.00 -71 -55 -55.80.00"/> <!-- 1 -->
    <route id="6" edges="-123 -123.121.42 131 131.180.00"/> <!-- 1 -->
    <route id="7" edges="-123.121.42 131"/> <!-- 1 -->
    <route id="8" edges="-131.180.00 -109 -109.80.00 -11 -11.80.00 3 3.180.00 -71 -55 -55.80.00"/> <!-- 1 -->
    <route id="10" edges="-144 -144.121.42 152"/> <!-- 2 -->
    <route id="12" edges="-148 -148.80.00 -131 -131.180.00 -109 -109.80.00 23 23.80.00 37 -58 -58.121.42"/> <!-- 1 -->
    <route id="13" edges="-148 -148.80.00 144 144.121.42 -15 -15.180.00 3 3.180.00 -3"/> <!-- 1 -->
    <route id="14" edges="-15 -15.180.00 15 15.180.00"/> <!-- 1 -->
    <route id="15" edges="-15.180.00 11 11.80.00 23 23.80.00 31 31.80.00 64 64.80.00 120"/> <!-- 1 -->
    <route id="17" edges="-152.80.00 -131 -131.180.00 131"/> <!-- 2 -->
    <route id="18" edges="-27 -27.80.00 -3 -3.180.00 15 15.180.00 -144 -144.121.42 144 144.121.42"/> <!-- 2 -->
    <route id="19" edges="-27.80.00 27 27.80.00 45 -68 -43 -43.80.00"/> <!-- 1 -->
    <route id="20" edges="-3.180.00 11 11.80.00 23 23.80.00"/> <!-- 1 -->
    <route id="22" edges="-31.80.00 -23 -23.80.00 109 109.80.00 123"/> <!-- 1 -->
    <route id="23" edges="-37 -37.80.00 -23 -23.80.00 109 109.80.00 131 131.180.00 144"/> <!-- 1 -->
    <route id="24" edges="-37.80.00 -23 -23.80.00 -11 -11.80.00 15 15.180.00"/> <!-- 1 -->
    <route id="26" edges="-37.80.00 -23 -23.80.00 109 109.80.00 131"/> <!-- 1 -->
    <route id="27" edges="-43 -43.80.00 -27 -27.80.00"/> <!-- 1 -->
    <route id="28" edges="-43 -43.80.00 -27 -27.80.00 -3 -3.180.00 11 11.80.00 109 109.80.00"/> <!-- 2 -->
    <route id="30" edges="-43.80.00 -27 -27.80.00 -71 -55 -55.80.00"/> <!-- 1 -->
    <route id="31" edges="-43.80.00 -27 -27.80.00 27 27.80.00"/> <!-- 1 -->
    <route id="33" edges="-45.80.00 -27 -27.80.00 -3 -3.180.00 11 11.80.00 23 23.80.00 37 -58"/> <!-- 1 -->
    <route id="36" edges="-55 -55.80.00 -27 -27.80.00 -3 -3.180.00 15 15.180.00 -144 -144.121.42 -131"/> <!-- 1 -->
    <route id="37" edges="-58 -58.121.42 64 64.80.00 120 120.180.00"/> <!-- 1 -->
    <route id="40" edges="-64 -64.80.00 64 64.80.00 120 120.180.00 -120 -120.180.00"/> <!-- 1 -->
    <route id="41" edges="-64 -64.80.00 64 64.80.00 120 120.180.00 123 123.121.42"/> <!-- 1 -->
    <route id="42" edges="-64.80.00 -31 -31.80.00 -23 -23.80.00 -11 -11.80.00 3 3.180.00 -3"/> <!-- 1 -->
    <route id="43" edges="-71 -55 -55.80.00 -27 -27.80.00 -3 -3.180.00 11 11.80.00 23 23.80.00 31 31.80.00 58"/> <!-- 2 -->
    <route id="44" edges="-71 -55 -55.80.00 -27 -27.80.00 -3 -3.180.00 11 11.80.00 23 23.80.00 31 31.80.00 64 64.80.00 -64"/> <!-- 2 -->
    <route id="45" edges="-75 -75.121.42 -60 -60.80.00 -31 -31.80.00 -23 -23.80.00 -11 -11.80.00 3 3.180.00 -71"/> <!-- 1 -->
    <route id="46" edges="-75.121.42 -60 -60.80.00 -31 -31.80.00 -23 -23.80.00 23"/> <!-- 1 -->
    <route id="47" edges="-79 -79.80.00 -60 -60.80.00 -31 -31.80.00 -23 -23.80.00 -11 -11.80.00 3 3.180.00 -3 -3.180.00"/> <!-- 1 -->
    <route id="49" edges="-79 -79.80.00 75 75.121.42 120 120.180.00 131 131.180.00 -131 -131.180.00"/> <!-- 2 -->
    <route id="50" edges="-79.80.00 -60 -60.80.00 -31 -31.80.00 -23 -23.80.00 -11 -11.80.00 3 3.180.00 27 27.80.00"/> <!-- 1 -->
    <route id="52" edges="-79.80.00 75 75.121.42 120 120.180.00 131 131.180.00 144 144.121.42"/> <!-- 1 -->
    <route id="55" edges="109 109.80.00 -109 -109.80.00 -11 -11.80.00 3 3.180.00 27 27.80.00 43 68 -45"/> <!-- 1 -->
    <route id="57" edges="11.80.00 23 23.80.00 31"/> <!-- 1 -->
    <route id="58" edges="120 120.180.00 -109 -109.80.00 -11 -11.80.00 3 3.180.00 -71 -55 -55.80.00"/> <!-- 1 -->
    <route id="59" edges="120 120.180.00 -109 -109.80.00 -11 -11.80.00 3 3.180.00 27 27.80.00 43 68 -45"/> <!-- 2 -->
    <route id="60" edges="120 120.180.00 -109 -109.80.00 -11 -11.80.00 3 3.180.00 27 27.80.00 45"/> <!-- 1 -->
    <route id="61" edges="120 120.180.00 -120 -120.180.00 -75 -75.121.42 -60"/> <!-- 1 -->
    <route id="62" edges="123 123.121.42 -123"/> <!-- 1 -->
    <route id="63" edges="123 123.121.42 -15 -15.180.00 3 3.180.00 27 27.80.00 43 68"/> <!-- 1 -->
    <route id="65" edges="144 144.121.42 -123 -123.121.42 -120 -120.180.00 -64 -64.80.00 58"/> <!-- 2 -->
    <route id="66" edges="144 144.121.42 -15 -15.180.00 3 3.180.00 27 27.80.00"/> <!-- 1 -->
    <route id="68" edges="15 15.180.00 -123 -123.121.42 -109 -109.80.00 -11"/> <!-- 1 -->
    <route id="69" edges="15 15.180.00 -123 -123.121.42 -120 -120.180.00 -75 -75.121.42 75"/> <!-- 1 -->
    <route id="70" edges="15.180.00 -15 -15.180.00 11 11.80.00 23 23.80.00 31 31.80.00"/> <!-- 1 -->
    <route id="71" edges="23 23.80.00 -23 -23.80.00 109"/> <!-- 1 -->
    <route id="72" edges="23.80.00 31 31.80.00 60 60.80.00 75 75.121.42"/> <!-- 3 -->
    <route id="74" edges="27 27.80.00 -27 -27.80.00 -3 -3.180.00 11 11.80.00 23 23.80.00 31 31.80.00 64 64.80.00 -75"/> <!-- 1 -->
    <route id="75" edges="27 27.80.00 -27 -27.80.00 -3 -3.180.00 11 11.80.00 23 23.80.00 37 -58 -58.121.42"/> <!-- 1 -->
    <route id="77" edges="3 3.180.00 -3 -3.180.00 11 11.80.00 23 23.80.00 31 31.80.00 64 64.80.00"/> <!-- 2 -->
    <route id="78" edges="3.180.00 -3 -3.180.00 11 11.80.00 23 23.80.00 31 31.80.00 58"/> <!-- 1 -->
    <route id="79" edges="3.180.00 27 27.80.00 55 71"/> <!-- 2 -->
    <route id="80" edges="31 31.80.00 -31 -31.80.00 -23 -23.80.00 -11 -11.80.00 3 3.180.00 27 27.80.00 -27"/> <!-- 1 -->
    <route id="81" edges="31.80.00 58"/> <!-- 1 -->
    <route id="82" edges="37 -58 -58.121.42 -31 -31.80.00 -23 -23.80.00 -11 -11.80.00"/> <!-- 2 -->
    <route id="83" edges="37 -58 -58.121.42 -31 -31.80.00 -23 -23.80.00 109 109.80.00 131 131.180.00 -131 -131.180.00"/> <!-- 1 -->
    <route id="84" edges="43 68 -45 -45.80.00 -27 -27.80.00 -3 -3.180.00 11 11.80.00"/> <!-- 1 -->
    <route id="85" edges="45 -68 -43 -43.80.00 -27 -27.80.00 -3 -3.180.00 11 11.80.00 109 109.80.00 123 123.121.42"/> <!-- 1 -->
    <route id="87" edges="58 -37 -37.80.00 -23"/> <!-- 1 -->
    <route id="88" edges="58 -37 -37.80.00 -23 -23.80.00 -11 -11.80.00 3 3.180.00"/> <!-- 2 -->
    <route id="89" edges="60.80.00 -60 -60.80.00 -31 -31.80.00 -23 -23.80.00 -11 -11.80.00 5"/> <!-- 1 -->
    <route id="93" edges="68 -45 -45.80.00 -27 -27.80.00 -3 -3.180.00 11 11.80.00 -11"/> <!-- 1 -->
    <route id="95" edges="71 71.121.42 -3 -3.180.00 11 11.80.00 109 109.80.00 -120"/> <!-- 1 -->
    <route id="96" edges="71.121.42 -3 -3.180.00 15 15.180.00"/> <!-- 1 -->

    <flow id="70" begin="1.79" end="99.00" number="1" route="70"/>
    <flow id="72" begin="5.90" end="99.00" number="3" route="72"/>
    <flow id="28" begin="8.66" end="99.00" number="2" route="28"/>
    <flow id="14" begin="9.52" end="99.00" number="1" route="14"/>
    <flow id="82" begin="12.40" end="99.00" number="2" route="82"/>
    <flow id="43" begin="13.80" end="99.00" number="2" route="43"/>
    <flow id="3" begin="14.92" end="99.00" number="1" route="3"/>
    <flow id="69" begin="17.42" end="99.00" number="1" route="69"/>
    <flow id="59" begin="18.43" end="99.00" number="2" route="59"/>
    <flow id="42" begin="18.68" end="99.00" number="1" route="42"/>
    <flow id="17" begin="19.68" end="99.00" number="2" route="17"/>
    <flow id="23" begin="20.70" end="99.00" number="1" route="23"/>
    <flow id="88" begin="21.50" end="99.00" number="2" route="88"/>
    <flow id="8" begin="21.80" end="99.00" number="1" route="8"/>
    <flow id="27" begin="22.63" end="99.00" number="1" route="27"/>
    <flow id="65" begin="24.04" end="99.00" number="2" route="65"/>
    <flow id="18" begin="25.63" end="99.00" number="2" route="18"/>
    <flow id="33" begin="25.82" end="99.00" number="1" route="33"/>
    <flow id="79" begin="26.86" end="99.00" number="2" route="79"/>
    <flow id="62" begin="28.11" end="99.00" number="1" route="62"/>
    <flow id="63" begin="30.23" end="99.00" number="1" route="63"/>
    <flow id="78" begin="30.50" end="99.00" number="1" route="78"/>
    <flow id="7" begin="32.27" end="99.00" number="1" route="7"/>
    <flow id="13" begin="34.52" end="99.00" number="1" route="13"/>
    <flow id="89" begin="34.66" end="99.00" number="1" route="89"/>
    <flow id="44" begin="34.67" end="99.00" number="2" route="44"/>
    <flow id="10" begin="35.20" end="99.00" number="2" route="10"/>
    <flow id="77" begin="35.69" end="99.00" number="2" route="77"/>
    <flow id="74" begin="36.28" end="99.00" number="1" route="74"/>
    <flow id="0" begin="39.48" end="99.00" number="1" route="0"/>
    <flow id="47" begin="40.05" end="99.00" number="1" route="47"/>
    <flow id="49" begin="43.94" end="99.00" number="2" route="49"/>
    <flow id="66" begin="44.39" end="99.00" number="1" route="66"/>
    <flow id="85" begin="48.19" end="99.00" number="1" route="85"/>
    <flow id="71" begin="48.90" end="99.00" number="1" route="71"/>
    <flow id="4" begin="50.31" end="99.00" number="1" route="4"/>
    <flow id="80" begin="50.37" end="99.00" number="1" route="80"/>
    <flow id="31" begin="51.15" end="99.00" number="1" route="31"/>
    <flow id="24" begin="53.60" end="99.00" number="1" route="24"/>
    <flow id="40" begin="55.27" end="99.00" number="1" route="40"/>
    <flow id="58" begin="57.49" end="99.00" number="1" route="58"/>
    <flow id="83" begin="58.40" end="99.00" number="1" route="83"/>
    <flow id="81" begin="63.00" end="99.00" number="1" route="81"/>
    <flow id="93" begin="63.87" end="99.00" number="1" route="93"/>
    <flow id="95" begin="66.22" end="99.00" number="1" route="95"/>
    <flow id="57" begin="66.23" end="99.00" number="1" route="57"/>
    <flow id="20" begin="66.89" end="99.00" number="1" route="20"/>
    <flow id="26" begin="68.88" end="99.00" number="1" route="26"/>
    <flow id="5" begin="68.89" end="99.00" number="1" route="5"/>
    <flow id="22" begin="72.79" end="99.00" number="1" route="22"/>
    <flow id="75" begin="73.67" end="99.00" number="1" route="75"/>
    <flow id="55" begin="77.75" end="99.00" number="1" route="55"/>
    <flow id="2" begin="79.04" end="99.00" number="1" route="2"/>
    <flow id="12" begin="80.14" end="99.00" number="1" route="12"/>
    <flow id="1" begin="80.83" end="99.00" number="1" route="1"/>
    <flow id="19" begin="82.93" end="99.00" number="1" route="19"/>
    <flow id="45" begin="83.82" end="99.00" number="1" route="45"/>
    <flow id="50" begin="84.24" end="99.00" number="1" route="50"/>
    <flow id="46" begin="84.78" end="99.00" number="1" route="46"/>
    <flow id="6" begin="84.98" end="99.00" number="1" route="6"/>
    <flow id="96" begin="85.55" end="99.00" number="1" route="96"/>
    <flow id="41" begin="87.38" end="99.00" number="1" route="41"/>
    <flow id="87" begin="89.70" end="99.00" number="1" route="87"/>
    <flow id="52" begin="92.63" end="99.00" number="1" route="52"/>
    <flow id="60" begin="93.07" end="99.00" number="1" route="60"/>
    <flow id="15" begin="93.11" end="99.00" number="1" route="15"/>
    <flow id="37" begin="95.58" end="99.00" number="1" route="37"/>
    <flow id="61" begin="96.39" end="99.00" number="1" route="61"/>
    <flow id="84" begin="96.91" end="99.00" number="1" route="84"/>
    <flow id="30" begin="97.23" end="99.00" number="1" route="30"/>
    <flow id="68" begin="98.45" end="99.00" number="1" route="68"/>
    <flow id="36" begin="98.63" end="99.00" number="1" route="36"/>
</routes>
