<?xml version="1.0" encoding="UTF-8"?>

<!-- generated on Mon 23 Nov 2015 02:53:11 PM CET by Netedit Version dev-SVN-r19405I
<?xml version="1.0" encoding="UTF-8"?>

<configuration xmlns:xsi="http://www.w3.org/2001/XMLSchema-instance" xsi:noNamespaceSchemaLocation="http://sumo.dlr.de/xsd/netedit.exeConfiguration.xsd">

    <input>
        <sumo-net-file value="/scr1/sumoI/sumo/tests/sumo/basic/dynamics/roundabout/no_requests_from_outside/net.net.xml"/>
    </input>

    <output>
        <output-file value="/scr1/sumoI/sumo/tests/sumo/basic/dynamics/roundabout/no_requests_from_outside/net.net.xml"/>
    </output>

    <processing>
        <no-turnarounds value="true"/>
        <offset.disable-normalization value="true"/>
        <lefthand value="false"/>
        <junctions.corner-detail value="0"/>
    </processing>

</configuration>
-->

<net version="0.13" xmlns:xsi="http://www.w3.org/2001/XMLSchema-instance" xsi:noNamespaceSchemaLocation="http://sumo.dlr.de/xsd/net_file.xsd">

    <location netOffset="850.00,850.00" convBoundary="0.00,0.00,800.00,800.00" origBoundary="-850.00,-850.00,850.00,850.00" projParameter="!"/>

    <edge id=":Ce_0" function="internal">
        <lane id=":Ce_0_0" index="0" speed="13.89" length="4.44" shape="413.45,401.65 412.30,401.79 411.31,402.19 410.49,402.87 409.83,403.82"/>
    </edge>
    <edge id=":Ce_1" function="internal">
        <lane id=":Ce_1_0" index="0" speed="13.89" length="4.48" shape="409.73,396.26 410.42,397.17 411.27,397.83 412.28,398.22 413.45,398.35"/>
    </edge>
    <edge id=":Ce_2" function="internal">
        <lane id=":Ce_2_0" index="0" speed="13.89" length="7.91" shape="409.73,396.26 410.55,398.12 410.83,400.00 410.59,401.90 409.83,403.82"/>
    </edge>
    <edge id=":Cn_0" function="internal">
        <lane id=":Cn_0_0" index="0" speed="13.89" length="4.48" shape="398.35,413.51 398.21,412.35 397.79,411.37 397.10,410.55 396.12,409.91"/>
    </edge>
    <edge id=":Cn_1" function="internal">
        <lane id=":Cn_1_0" index="0" speed="13.89" length="4.50" shape="403.83,409.84 402.87,410.50 402.19,411.33 401.79,412.34 401.65,413.51"/>
    </edge>
    <edge id=":Cn_2" function="internal">
        <lane id=":Cn_2_0" index="0" speed="13.89" length="8.01" shape="403.83,409.84 401.92,410.60 400.00,410.87 398.07,410.64 396.12,409.91"/>
    </edge>
    <edge id=":Cs_0" function="internal">
        <lane id=":Cs_0_0" index="0" speed="13.89" length="4.59" shape="401.65,386.42 401.78,387.65 402.17,388.70 402.83,389.57 403.74,390.27"/>
    </edge>
    <edge id=":Cs_1" function="internal">
        <lane id=":Cs_1_0" index="0" speed="13.89" length="4.51" shape="396.06,390.00 397.06,389.38 397.78,388.58 398.21,387.59 398.35,386.42"/>
    </edge>
    <edge id=":Cs_2" function="internal">
        <lane id=":Cs_2_0" index="0" speed="13.89" length="8.00" shape="396.06,390.00 398.05,389.32 399.99,389.14 401.89,389.45 403.74,390.27"/>
    </edge>
    <edge id=":Cw_0" function="internal">
        <lane id=":Cw_0_0" index="0" speed="13.89" length="4.61" shape="389.98,403.95 389.36,402.95 388.54,402.23 387.52,401.79 386.31,401.65"/>
    </edge>
    <edge id=":Cw_1" function="internal">
        <lane id=":Cw_1_0" index="0" speed="13.89" length="8.22" shape="389.98,403.95 389.31,401.99 389.06,400.00 389.24,397.99 389.85,395.96"/>
    </edge>
    <edge id=":Cw_2" function="internal">
        <lane id=":Cw_2_0" index="0" speed="13.89" length="4.56" shape="386.31,398.35 387.50,398.20 388.48,397.75 389.27,397.00 389.85,395.96"/>
    </edge>
    <edge id=":E_0" function="internal">
        <lane id=":E_0_0" index="0" speed="13.89" length="4.82" shape="800.00,398.35 801.24,399.17 801.65,400.00 801.24,400.82 800.00,401.65"/>
    </edge>
    <edge id=":W_0" function="internal">
        <lane id=":W_0_0" index="0" speed="13.89" length="4.82" shape="0.00,401.65 -1.24,400.83 -1.65,400.00 -1.24,399.18 0.00,398.35"/>
    </edge>

    <edge id="CE" from="Ce" to="E" priority="-1">
        <lane id="CE_0" index="0" speed="13.89" length="386.55" shape="413.45,398.35 800.00,398.35"/>
    </edge>
    <edge id="CN" from="Cn" to="N" priority="-1">
        <lane id="CN_0" index="0" speed="13.89" length="386.49" shape="401.65,413.51 401.65,800.00"/>
    </edge>
    <edge id="CS" from="Cs" to="S" priority="1">
        <lane id="CS_0" index="0" speed="13.89" length="386.42" shape="398.35,386.42 398.35,0.00"/>
    </edge>
    <edge id="CW" from="Cw" to="W" priority="-1">
        <lane id="CW_0" index="0" speed="13.89" length="386.31" shape="386.31,401.65 0.00,401.65"/>
    </edge>
    <edge id="CeCn" from="Ce" to="Cn" priority="1" shape="410.00,400.00 406.48,406.57 400.00,410.00">
        <lane id="CeCn_0" index="0" speed="13.89" length="8.89" shape="409.83,403.82 407.70,407.79 403.83,409.84"/>
    </edge>
    <edge id="CnCw" from="Cn" to="Cw" priority="1" shape="400.00,410.00 392.94,406.48 390.00,400.00">
        <lane id="CnCw_0" index="0" speed="13.89" length="9.07" shape="396.12,409.91 391.68,407.70 389.98,403.95"/>
    </edge>
    <edge id="CsCe" from="Cs" to="Ce" priority="1" shape="400.00,390.00 406.30,393.66 410.00,400.00">
        <lane id="CsCe_0" index="0" speed="13.89" length="8.76" shape="403.74,390.27 407.51,392.45 409.73,396.26"/>
    </edge>
    <edge id="CwCs" from="Cw" to="Cs" priority="1" shape="390.00,400.00 392.67,393.39 400.00,390.00">
        <lane id="CwCs_0" index="0" speed="13.89" length="9.24" shape="389.85,395.96 391.38,392.17 396.06,390.00"/>
    </edge>
    <edge id="EC" from="E" to="Ce" priority="0">
        <lane id="EC_0" index="0" speed="13.89" length="386.55" shape="800.00,401.65 413.45,401.65"/>
    </edge>
    <edge id="NC" from="N" to="Cn" priority="0">
        <lane id="NC_0" index="0" speed="13.89" length="386.49" shape="398.35,800.00 398.35,413.51"/>
    </edge>
    <edge id="SC" from="S" to="Cs" priority="0">
        <lane id="SC_0" index="0" speed="13.89" length="386.42" shape="401.65,0.00 401.65,386.42"/>
    </edge>
    <edge id="WC" from="W" to="Cw" priority="0">
        <lane id="WC_0" index="0" speed="13.89" length="386.31" shape="0.00,398.35 386.31,398.35"/>
    </edge>

    <junction id="Ce" type="priority" x="410.00" y="400.00" incLanes="EC_0 CsCe_0" intLanes=":Ce_0_0 :Ce_1_0 :Ce_2_0" shape="413.45,403.25 413.45,396.75 411.11,395.45 408.35,397.07 408.42,403.06 411.24,404.57">
        <request index="0" response="100" foes="100" cont="0"/>
        <request index="1" response="000" foes="000" cont="0"/>
        <request index="2" response="000" foes="001" cont="0"/>
    </junction>
    <junction id="Cn" type="priority" x="400.00" y="410.00" incLanes="NC_0 CeCn_0" intLanes=":Cn_0_0 :Cn_1_0 :Cn_2_0" shape="396.75,413.51 403.25,413.51 404.58,411.26 403.08,408.43 396.84,408.48 395.41,411.34">
        <request index="0" response="100" foes="100" cont="0"/>
        <request index="1" response="000" foes="000" cont="0"/>
        <request index="2" response="000" foes="001" cont="0"/>
    </junction>
    <junction id="Cs" type="priority" x="400.00" y="390.00" incLanes="SC_0 CwCs_0" intLanes=":Cs_0_0 :Cs_1_0 :Cs_2_0" shape="402.94,391.65 404.55,388.88 403.25,386.42 396.75,386.42 395.39,388.55 396.73,391.46">
        <request index="0" response="100" foes="100" cont="0"/>
        <request index="1" response="000" foes="000" cont="0"/>
        <request index="2" response="000" foes="001" cont="0"/>
    </junction>
    <junction id="Cw" type="priority" x="390.00" y="400.00" incLanes="CnCw_0 WC_0" intLanes=":Cw_0_0 :Cw_1_0 :Cw_2_0" shape="388.53,404.62 391.44,403.29 391.34,396.56 388.37,395.36 386.31,396.75 386.31,403.25">
        <request index="0" response="000" foes="000" cont="0"/>
        <request index="1" response="000" foes="100" cont="0"/>
        <request index="2" response="010" foes="010" cont="0"/>
    </junction>
    <junction id="E" type="priority" x="800.00" y="400.00" incLanes="CE_0" intLanes=":E_0_0" shape="800.00,400.05 800.00,403.25 800.00,396.75 800.00,399.95">
        <request index="0" response="0" foes="0" cont="0"/>
    </junction>
    <junction id="N" type="unregulated" x="400.00" y="800.00" incLanes="CN_0" intLanes="" shape="399.95,800.00 396.75,800.00 403.25,800.00 400.05,800.00"/>
    <junction id="S" type="unregulated" x="400.00" y="0.00" incLanes="CS_0" intLanes="" shape="400.05,0.00 403.25,0.00 396.75,0.00 399.95,0.00"/>
    <junction id="W" type="priority" x="0.00" y="400.00" incLanes="CW_0" intLanes=":W_0_0" shape="0.00,399.95 0.00,396.75 0.00,403.25 0.00,400.05">
        <request index="0" response="0" foes="0" cont="0"/>
    </junction>

    <connection from="CE" to="EC" fromLane="0" toLane="0" via=":E_0_0" dir="t" state="M"/>
    <connection from="CW" to="WC" fromLane="0" toLane="0" via=":W_0_0" dir="t" state="M"/>
    <connection from="CeCn" to="CN" fromLane="0" toLane="0" via=":Cn_1_0" dir="r" state="M"/>
    <connection from="CeCn" to="CnCw" fromLane="0" toLane="0" via=":Cn_2_0" dir="l" state="M"/>
    <connection from="CnCw" to="CW" fromLane="0" toLane="0" via=":Cw_0_0" dir="r" state="M"/>
    <connection from="CnCw" to="CwCs" fromLane="0" toLane="0" via=":Cw_1_0" dir="l" state="M"/>
    <connection from="CsCe" to="CE" fromLane="0" toLane="0" via=":Ce_1_0" dir="r" state="M"/>
    <connection from="CsCe" to="CeCn" fromLane="0" toLane="0" via=":Ce_2_0" dir="l" state="M"/>
    <connection from="CwCs" to="CS" fromLane="0" toLane="0" via=":Cs_1_0" dir="r" state="M"/>
    <connection from="CwCs" to="CsCe" fromLane="0" toLane="0" via=":Cs_2_0" dir="l" state="M"/>
    <connection from="EC" to="CeCn" fromLane="0" toLane="0" via=":Ce_0_0" dir="r" state="m"/>
    <connection from="NC" to="CnCw" fromLane="0" toLane="0" via=":Cn_0_0" dir="r" state="m"/>
    <connection from="SC" to="CsCe" fromLane="0" toLane="0" via=":Cs_0_0" dir="r" state="m"/>
    <connection from="WC" to="CwCs" fromLane="0" toLane="0" via=":Cw_2_0" dir="r" state="m"/>

    <connection from=":Ce_0" to="CeCn" fromLane="0" toLane="0" dir="s" state="M"/>
    <connection from=":Ce_1" to="CE" fromLane="0" toLane="0" dir="s" state="M"/>
    <connection from=":Ce_2" to="CeCn" fromLane="0" toLane="0" dir="s" state="M"/>
    <connection from=":Cn_0" to="CnCw" fromLane="0" toLane="0" dir="s" state="M"/>
    <connection from=":Cn_1" to="CN" fromLane="0" toLane="0" dir="s" state="M"/>
    <connection from=":Cn_2" to="CnCw" fromLane="0" toLane="0" dir="s" state="M"/>
    <connection from=":Cs_0" to="CsCe" fromLane="0" toLane="0" dir="s" state="M"/>
    <connection from=":Cs_1" to="CS" fromLane="0" toLane="0" dir="s" state="M"/>
    <connection from=":Cs_2" to="CsCe" fromLane="0" toLane="0" dir="s" state="M"/>
    <connection from=":Cw_0" to="CW" fromLane="0" toLane="0" dir="s" state="M"/>
    <connection from=":Cw_1" to="CwCs" fromLane="0" toLane="0" dir="s" state="M"/>
    <connection from=":Cw_2" to="CwCs" fromLane="0" toLane="0" dir="s" state="M"/>
    <connection from=":E_0" to="EC" fromLane="0" toLane="0" dir="s" state="M"/>
    <connection from=":W_0" to="WC" fromLane="0" toLane="0" dir="s" state="M"/>

    <roundabout nodes="Ce Cn Cs Cw" edges="CeCn CnCw CsCe CwCs"/>

</net>
