<additional xmlns:xsi="http://www.w3.org/2001/XMLSchema-instance" xsi:noNamespaceSchemaLocation="http://sumo.dlr.de/xsd/additional_file.xsd">

    <!-- non valid name -->
    <calibratorLane id="calibrator01" lane="center0_0" pos="0.00" period="100.00" name="///" output="calibrator01.txt"/>

    <!-- valid name-->
    <calibratorLane id="calibrator02" lane="center0_0" pos="0.00" period="100.00" name="ownName" output="calibrator02.txt"/>

</additional>
