<?xml version="1.0" encoding="UTF-8"?>

<!-- generated on Di 27 Feb 2018 09:32:48 CET by Netedit Version v0_32_0+0547-32395b7
<configuration xmlns:xsi="http://www.w3.org/2001/XMLSchema-instance" xsi:noNamespaceSchemaLocation="https://sumo.dlr.de/xsd/netconvertConfiguration.xsd">

    <input>
        <sumo-net-file value="/home/kobo/dlr/sumo/tests/netconvert/import/XML/junctionLogic/parallel_bike_path2/net.netconvert"/>
    </input>

    <output>
        <output-file value="/home/kobo/dlr/sumo/tests/netconvert/import/XML/junctionLogic/parallel_bike_path2/net.netconvert"/>
        <plain-output-prefix value="/home/kobo/dlr/sumo/tests/netconvert/import/XML/junctionLogic/parallel_bike_path2/input_plain"/>
    </output>

    <processing>
        <no-turnarounds value="true"/>
        <offset.disable-normalization value="true"/>
        <lefthand value="false"/>
        <junctions.corner-detail value="0"/>
        <rectangular-lane-cut value="false"/>
        <walkingareas value="false"/>
    </processing>

</configuration>
-->

<edges version="0.27" xmlns:xsi="http://www.w3.org/2001/XMLSchema-instance" xsi:noNamespaceSchemaLocation="https://sumo.dlr.de/xsd/edges_file.xsd">
    <edge id="-CNb" from="gneJ3" to="cluster_C_gneJ2_gneJ4" priority="2" numLanes="1" speed="13.89" shape="107.91,200.69 107.70,110.67" width="1.00" allow="bicycle"/>
    <edge id="-SCb" from="cluster_C_gneJ2_gneJ4" to="gneJ1" priority="2" numLanes="1" speed="13.89" shape="107.91,93.89 107.89,0.00" width="1.00" allow="bicycle"/>
    <edge id="CE" from="cluster_C_gneJ2_gneJ4" to="E" priority="2" numLanes="1" speed="13.89" shape="100.00,100.35 200.00,100.35" disallow="bicycle"/>
    <edge id="CN" from="cluster_C_gneJ2_gneJ4" to="N" priority="2" numLanes="2" speed="13.89" shape="100.00,100.35 100.00,200.35" disallow="bicycle"/>
    <edge id="CNb" from="cluster_C_gneJ2_gneJ4" to="gneJ3" priority="2" numLanes="1" speed="13.89" shape="107.70,110.67 107.91,200.69" width="1.00" allow="bicycle"/>
    <edge id="EC" from="E" to="cluster_C_gneJ2_gneJ4" priority="2" numLanes="1" speed="13.89" shape="200.00,100.35 100.00,100.35" disallow="bicycle"/>
    <edge id="SC" from="S" to="cluster_C_gneJ2_gneJ4" priority="2" numLanes="2" speed="13.89" shape="100.00,0.35 100.00,100.35" disallow="bicycle"/>
    <edge id="SCb" from="gneJ1" to="cluster_C_gneJ2_gneJ4" priority="2" numLanes="1" speed="13.89" shape="107.89,0.00 107.91,93.89" width="1.00" allow="bicycle"/>
</edges>
