<?xml version="1.0" encoding="UTF-8"?>

<!-- generated on Tue Feb 27 14:52:27 2018 by SUMO netconvert Version v0_32_0+0554-8006ddc
This data file and the accompanying materials
are made available under the terms of the Eclipse Public License v2.0
which accompanies this distribution, and is available at
http://www.eclipse.org/legal/epl-v20.html
SPDX-License-Identifier: EPL-2.0
<configuration xmlns:xsi="http://www.w3.org/2001/XMLSchema-instance" xsi:noNamespaceSchemaLocation="http://sumo.dlr.de/xsd/netconvertConfiguration.xsd">

    <input>
        <node-files value="input_plain.nod.xml"/>
        <edge-files value="input_plain.edg.xml"/>
    </input>

    <output>
        <write-license value="true"/>
        <output-file value="net.net.xml"/>
    </output>

    <report>
        <xml-validation value="never"/>
    </report>

</configuration>
-->

<net version="0.27" xmlns:xsi="http://www.w3.org/2001/XMLSchema-instance" xsi:noNamespaceSchemaLocation="http://sumo.dlr.de/xsd/net_file.xsd">

    <location netOffset="0.00,100.35" convBoundary="0.00,0.00,100.00,200.69" origBoundary="-10000000000.00,-10000000000.00,10000000000.00,10000000000.00" projParameter="!"/>

    <edge id=":E_0" function="internal">
        <lane id=":E_0_0" index="0" disallow="bicycle" speed="13.89" length="4.82" shape="100.00,98.70 101.24,99.53 101.65,100.35 101.24,101.18 100.00,102.00"/>
    </edge>
    <edge id=":cluster_C_gneJ2_gneJ4_0" function="internal">
        <lane id=":cluster_C_gneJ2_gneJ4_0_0" index="0" allow="bicycle" speed="13.89" length="18.60" width="1.00" shape="7.15,110.61 7.36,92.01"/>
    </edge>
    <edge id=":cluster_C_gneJ2_gneJ4_1" function="internal">
        <lane id=":cluster_C_gneJ2_gneJ4_1_0" index="0" allow="bicycle" speed="13.89" length="0.18" width="1.00" shape="7.15,110.61 7.25,110.46"/>
    </edge>
    <edge id=":cluster_C_gneJ2_gneJ4_9" function="internal">
        <lane id=":cluster_C_gneJ2_gneJ4_9_0" index="0" speed="13.89" length="1.42" width="1.00" shape="7.25,110.46 7.43,110.20 7.70,110.06 7.98,110.20 8.25,110.62"/>
    </edge>
    <edge id=":cluster_C_gneJ2_gneJ4_2" function="internal">
        <lane id=":cluster_C_gneJ2_gneJ4_2_0" index="0" disallow="bicycle" speed="13.89" length="11.59" shape="10.59,102.00 8.12,102.54 6.36,104.15 5.30,106.84 4.95,110.61"/>
    </edge>
    <edge id=":cluster_C_gneJ2_gneJ4_3" function="internal">
        <lane id=":cluster_C_gneJ2_gneJ4_3_0" index="0" disallow="bicycle" speed="13.89" length="4.82" shape="10.59,102.00 9.35,101.18 8.94,100.35 9.35,99.53 10.59,98.70"/>
    </edge>
    <edge id=":cluster_C_gneJ2_gneJ4_4" function="internal">
        <lane id=":cluster_C_gneJ2_gneJ4_4_0" index="0" allow="bicycle" speed="13.89" length="18.62" width="1.00" shape="8.46,91.99 8.25,110.62"/>
    </edge>
    <edge id=":cluster_C_gneJ2_gneJ4_5" function="internal">
        <lane id=":cluster_C_gneJ2_gneJ4_5_0" index="0" allow="bicycle" speed="13.89" length="0.19" width="1.00" shape="8.46,91.99 8.36,92.15"/>
    </edge>
    <edge id=":cluster_C_gneJ2_gneJ4_10" function="internal">
        <lane id=":cluster_C_gneJ2_gneJ4_10_0" index="0" speed="13.89" length="1.42" width="1.00" shape="8.36,92.15 8.19,92.41 7.92,92.55 7.64,92.42 7.36,92.01"/>
    </edge>
    <edge id=":cluster_C_gneJ2_gneJ4_6" function="internal">
        <lane id=":cluster_C_gneJ2_gneJ4_6_0" index="0" disallow="bicycle" speed="13.89" length="9.93" shape="4.95,92.05 5.30,94.96 6.36,97.04 8.12,98.28 10.59,98.70"/>
    </edge>
    <edge id=":cluster_C_gneJ2_gneJ4_7" function="internal">
        <lane id=":cluster_C_gneJ2_gneJ4_7_0" index="0" disallow="bicycle" speed="13.89" length="18.53" shape="4.95,92.05 4.95,110.61"/>
        <lane id=":cluster_C_gneJ2_gneJ4_7_1" index="1" disallow="bicycle" speed="13.89" length="18.53" shape="1.65,92.09 1.65,110.60"/>
    </edge>
    <edge id=":gneJ1_0" function="internal">
        <lane id=":gneJ1_0_0" index="0" allow="bicycle" speed="13.89" length="1.61" width="1.00" shape="7.34,0.00 7.61,-0.41 7.89,-0.55 8.16,-0.41 8.44,-0.00"/>
    </edge>
    <edge id=":gneJ3_0" function="internal">
        <lane id=":gneJ3_0_0" index="0" allow="bicycle" speed="13.89" length="1.61" width="1.00" shape="8.46,200.69 8.19,201.10 7.91,201.24 7.64,201.10 7.36,200.69"/>
    </edge>

    <edge id="-CNb" from="gneJ3" to="cluster_C_gneJ2_gneJ4" priority="2" shape="7.91,200.69 7.70,110.67">
        <lane id="-CNb_0" index="0" allow="bicycle" speed="13.89" length="90.08" width="1.00" shape="7.36,200.69 7.15,110.61"/>
    </edge>
    <edge id="-SCb" from="cluster_C_gneJ2_gneJ4" to="gneJ1" priority="2" shape="7.91,93.89 7.89,0.00">
        <lane id="-SCb_0" index="0" allow="bicycle" speed="13.89" length="92.01" width="1.00" shape="7.36,92.01 7.34,0.00"/>
    </edge>
    <edge id="CE" from="cluster_C_gneJ2_gneJ4" to="E" priority="2" shape="0.00,100.35 100.00,100.35">
        <lane id="CE_0" index="0" disallow="bicycle" speed="13.89" length="89.41" shape="10.59,98.70 100.00,98.70"/>
    </edge>
    <edge id="CN" from="cluster_C_gneJ2_gneJ4" to="N" priority="2" shape="0.00,100.35 0.00,200.35">
        <lane id="CN_0" index="0" disallow="bicycle" speed="13.89" length="89.75" shape="4.95,110.61 4.95,200.35"/>
        <lane id="CN_1" index="1" disallow="bicycle" speed="13.89" length="89.75" shape="1.65,110.60 1.65,200.35"/>
    </edge>
    <edge id="CNb" from="cluster_C_gneJ2_gneJ4" to="gneJ3" priority="2" shape="7.70,110.67 7.91,200.69">
        <lane id="CNb_0" index="0" allow="bicycle" speed="13.89" length="90.07" width="1.00" shape="8.25,110.62 8.46,200.69"/>
    </edge>
    <edge id="EC" from="E" to="cluster_C_gneJ2_gneJ4" priority="2" shape="100.00,100.35 0.00,100.35">
        <lane id="EC_0" index="0" disallow="bicycle" speed="13.89" length="89.41" shape="100.00,102.00 10.59,102.00"/>
    </edge>
    <edge id="SC" from="S" to="cluster_C_gneJ2_gneJ4" priority="2" shape="0.00,0.35 0.00,100.35">
        <lane id="SC_0" index="0" disallow="bicycle" speed="13.89" length="91.72" shape="4.95,0.35 4.95,92.05"/>
        <lane id="SC_1" index="1" disallow="bicycle" speed="13.89" length="91.72" shape="1.65,0.35 1.65,92.09"/>
    </edge>
    <edge id="SCb" from="gneJ1" to="cluster_C_gneJ2_gneJ4" priority="2" shape="7.89,0.00 7.91,93.89">
        <lane id="SCb_0" index="0" allow="bicycle" speed="13.89" length="91.99" width="1.00" shape="8.44,-0.00 8.46,91.99"/>
    </edge>

    <junction id="E" type="priority" x="100.00" y="100.35" incLanes="CE_0" intLanes=":E_0_0" shape="100.00,100.40 100.00,97.10 100.00,100.30">
        <request index="0" response="0" foes="0" cont="0"/>
    </junction>
    <junction id="N" type="dead_end" x="0.00" y="200.35" incLanes="CN_0 CN_1" intLanes="" shape="6.55,200.35 0.05,200.35"/>
    <junction id="S" type="dead_end" x="0.00" y="0.35" incLanes="" intLanes="" shape="0.05,0.35 6.55,0.35"/>
    <junction id="cluster_C_gneJ2_gneJ4" type="priority" x="5.20" y="101.64" incLanes="-CNb_0 EC_0 SCb_0 SC_0 SC_1" intLanes=":cluster_C_gneJ2_gneJ4_0_0 :cluster_C_gneJ2_gneJ4_9_0 :cluster_C_gneJ2_gneJ4_2_0 :cluster_C_gneJ2_gneJ4_3_0 :cluster_C_gneJ2_gneJ4_4_0 :cluster_C_gneJ2_gneJ4_10_0 :cluster_C_gneJ2_gneJ4_6_0 :cluster_C_gneJ2_gneJ4_7_0 :cluster_C_gneJ2_gneJ4_7_1" shape="-0.13,92.12 -0.13,110.59 9.44,110.62 10.59,107.39 10.59,93.46 9.44,91.98" customShape="1">
        <request index="0" response="000000000" foes="001100100" cont="0"/>
        <request index="1" response="000010000" foes="000010000" cont="1"/>
        <request index="2" response="110010001" foes="110010001" cont="0"/>
        <request index="3" response="001000000" foes="001000000" cont="0"/>
        <request index="4" response="000000000" foes="001000110" cont="0"/>
        <request index="5" response="000000001" foes="000000001" cont="1"/>
        <request index="6" response="000010001" foes="000011001" cont="0"/>
        <request index="7" response="000000000" foes="000000100" cont="0"/>
        <request index="8" response="000000000" foes="000000100" cont="0"/>
    </junction>
    <junction id="gneJ1" type="priority" x="7.89" y="0.00" incLanes="-SCb_0" intLanes=":gneJ1_0_0" shape="7.94,-0.00 6.84,0.00 7.84,0.00">
        <request index="0" response="0" foes="0" cont="0"/>
    </junction>
    <junction id="gneJ3" type="priority" x="7.91" y="200.69" incLanes="CNb_0" intLanes=":gneJ3_0_0" shape="7.86,200.69 8.96,200.69 7.96,200.69">
        <request index="0" response="0" foes="0" cont="0"/>
    </junction>

    <junction id=":cluster_C_gneJ2_gneJ4_9_0" type="internal" x="7.25" y="110.46" incLanes=":cluster_C_gneJ2_gneJ4_1_0 SCb_0" intLanes=":cluster_C_gneJ2_gneJ4_4_0"/>
    <junction id=":cluster_C_gneJ2_gneJ4_10_0" type="internal" x="8.36" y="92.15" incLanes=":cluster_C_gneJ2_gneJ4_5_0 -CNb_0" intLanes=":cluster_C_gneJ2_gneJ4_0_0"/>

    <connection from="-CNb" to="-SCb" fromLane="0" toLane="0" via=":cluster_C_gneJ2_gneJ4_0_0" dir="s" state="M"/>
    <connection from="-CNb" to="CNb" fromLane="0" toLane="0" via=":cluster_C_gneJ2_gneJ4_1_0" dir="t" state="m"/>
    <connection from="-SCb" to="SCb" fromLane="0" toLane="0" via=":gneJ1_0_0" dir="t" state="M"/>
    <connection from="CE" to="EC" fromLane="0" toLane="0" via=":E_0_0" dir="t" state="M"/>
    <connection from="CNb" to="-CNb" fromLane="0" toLane="0" via=":gneJ3_0_0" dir="t" state="M"/>
    <connection from="EC" to="CN" fromLane="0" toLane="0" via=":cluster_C_gneJ2_gneJ4_2_0" dir="r" state="m"/>
    <connection from="EC" to="CE" fromLane="0" toLane="0" via=":cluster_C_gneJ2_gneJ4_3_0" dir="t" state="m"/>
    <connection from="SC" to="CE" fromLane="0" toLane="0" via=":cluster_C_gneJ2_gneJ4_6_0" dir="r" state="m"/>
    <connection from="SC" to="CN" fromLane="0" toLane="0" via=":cluster_C_gneJ2_gneJ4_7_0" dir="s" state="M"/>
    <connection from="SC" to="CN" fromLane="1" toLane="1" via=":cluster_C_gneJ2_gneJ4_7_1" dir="s" state="M"/>
    <connection from="SCb" to="CNb" fromLane="0" toLane="0" via=":cluster_C_gneJ2_gneJ4_4_0" dir="s" state="M"/>
    <connection from="SCb" to="-SCb" fromLane="0" toLane="0" via=":cluster_C_gneJ2_gneJ4_5_0" dir="t" state="m"/>

    <connection from=":E_0" to="EC" fromLane="0" toLane="0" dir="t" state="M"/>
    <connection from=":cluster_C_gneJ2_gneJ4_0" to="-SCb" fromLane="0" toLane="0" dir="s" state="M"/>
    <connection from=":cluster_C_gneJ2_gneJ4_1" to="CNb" fromLane="0" toLane="0" via=":cluster_C_gneJ2_gneJ4_9_0" dir="t" state="m"/>
    <connection from=":cluster_C_gneJ2_gneJ4_9" to="CNb" fromLane="0" toLane="0" dir="t" state="M"/>
    <connection from=":cluster_C_gneJ2_gneJ4_2" to="CN" fromLane="0" toLane="0" dir="r" state="M"/>
    <connection from=":cluster_C_gneJ2_gneJ4_3" to="CE" fromLane="0" toLane="0" dir="t" state="M"/>
    <connection from=":cluster_C_gneJ2_gneJ4_4" to="CNb" fromLane="0" toLane="0" dir="s" state="M"/>
    <connection from=":cluster_C_gneJ2_gneJ4_5" to="-SCb" fromLane="0" toLane="0" via=":cluster_C_gneJ2_gneJ4_10_0" dir="t" state="m"/>
    <connection from=":cluster_C_gneJ2_gneJ4_10" to="-SCb" fromLane="0" toLane="0" dir="t" state="M"/>
    <connection from=":cluster_C_gneJ2_gneJ4_6" to="CE" fromLane="0" toLane="0" dir="r" state="M"/>
    <connection from=":cluster_C_gneJ2_gneJ4_7" to="CN" fromLane="0" toLane="0" dir="s" state="M"/>
    <connection from=":cluster_C_gneJ2_gneJ4_7" to="CN" fromLane="1" toLane="1" dir="s" state="M"/>
    <connection from=":gneJ1_0" to="SCb" fromLane="0" toLane="0" dir="t" state="M"/>
    <connection from=":gneJ3_0" to="-CNb" fromLane="0" toLane="0" dir="t" state="M"/>

</net>
