<?xml version="1.0" encoding="UTF-8"?>

<!-- generated on 14.08.2019 13:13:21 by Eclipse SUMO netedit Version v1_2_0+1572-82b725e2be
-->

<routes xmlns:xsi="http://www.w3.org/2001/XMLSchema-instance" xsi:noNamespaceSchemaLocation="http://sumo.dlr.de/xsd/routes_file.xsd">
    <trip id="customID" depart="0.00" from="gneE2" to="gneE5"/>
    <trip id="duplicatedVehicle" depart="0.00" from="gneE8" to="gneE9"/>
</routes>
