<?xml version="1.0" encoding="UTF-8"?>

<!-- generated on Mon Feb 17 15:30:56 2020 by Eclipse SUMO netconvert Version v1_5_0+0130-ceb0a01
This data file and the accompanying materials
are made available under the terms of the Eclipse Public License v2.0
which accompanies this distribution, and is available at
http://www.eclipse.org/legal/epl-v20.html
SPDX-License-Identifier: EPL-2.0
<configuration xmlns:xsi="http://www.w3.org/2001/XMLSchema-instance" xsi:noNamespaceSchemaLocation="http://sumo.dlr.de/xsd/netconvertConfiguration.xsd">

    <input>
        <sumo-net-file value="input_net.net.xml"/>
    </input>

    <output>
        <write-license value="true"/>
        <output-file value="net.net.xml"/>
        <plain-output-prefix value="plain"/>
    </output>

    <processing>
        <geometry.min-radius.fix.railways value="false"/>
        <geometry.max-grade.fix value="false"/>
        <offset.disable-normalization value="true"/>
        <lefthand value="false"/>
    </processing>

    <junctions>
        <no-turnarounds value="true"/>
        <junctions.corner-detail value="0"/>
        <junctions.limit-turn-speed value="-1"/>
        <rectangular-lane-cut value="false"/>
    </junctions>

    <pedestrian>
        <walkingareas value="false"/>
    </pedestrian>

    <report>
        <xml-validation value="never"/>
        <aggregate-warnings value="5"/>
    </report>

</configuration>
-->

<tlLogics version="1.6" xmlns:xsi="http://www.w3.org/2001/XMLSchema-instance" xsi:noNamespaceSchemaLocation="http://sumo.dlr.de/xsd/tllogic_file.xsd">
    <tlLogic id="node_centertl" type="static" programID="0" offset="10">
        <phase duration="31" state="rrrGGgGgg"/>
        <phase duration="3"  state="rrryygygg"/>
        <phase duration="6"  state="rrrrrGrGG"/>
        <phase duration="3"  state="rrrrryryy"/>
        <phase duration="31" state="GGgGrrrrr"/>
        <phase duration="3"  state="yyyyrrrrr"/>
    </tlLogic>
    <tlLogic id="node_centertl" type="static" programID="alternative" offset="0">
        <phase duration="31" state="rrrGGgGgg" name="1"/>
        <phase duration="3"  state="rrryygygg" name="1-2"/>
        <phase duration="6"  state="rrrrrGrGG" name="2"/>
        <phase duration="3"  state="rrrrryryy" name="2-3"/>
        <phase duration="31" state="GGgGrrrrr" name="3"/>
        <phase duration="3"  state="yyyyrrrrr" name="3-1" next="0"/>
        <phase duration="3"  state="rrryyyyyy" name="1-3" next="5"/>
    </tlLogic>

    <connection from="edge_left" to="-edge_right" fromLane="0" toLane="0" tl="node_centertl" linkIndex="6"/>
    <connection from="edge_left" to="-edge_up" fromLane="0" toLane="0" tl="node_centertl" linkIndex="7"/>
    <connection from="edge_left" to="-edge_left" fromLane="0" toLane="0" tl="node_centertl" linkIndex="8"/>
    <connection from="edge_right" to="-edge_up" fromLane="0" toLane="0" tl="node_centertl" linkIndex="3"/>
    <connection from="edge_right" to="-edge_left" fromLane="0" toLane="0" tl="node_centertl" linkIndex="4"/>
    <connection from="edge_right" to="-edge_right" fromLane="0" toLane="0" tl="node_centertl" linkIndex="5"/>
    <connection from="edge_up" to="-edge_left" fromLane="0" toLane="0" tl="node_centertl" linkIndex="0"/>
    <connection from="edge_up" to="-edge_right" fromLane="0" toLane="0" tl="node_centertl" linkIndex="1"/>
    <connection from="edge_up" to="-edge_up" fromLane="0" toLane="0" tl="node_centertl" linkIndex="2"/>
</tlLogics>
