<?xml version="1.0" encoding="UTF-8"?>

<!-- generated on 2025-04-04 15:58:46 by Eclipse SUMO sumo Version v1_14_1+18586-0db099af1ab
This data file and the accompanying materials
are made available under the terms of the Eclipse Public License v2.0
which accompanies this distribution, and is available at
http://www.eclipse.org/legal/epl-v20.html
This file may also be made available under the following Secondary
Licenses when the conditions for such availability set forth in the Eclipse
Public License 2.0 are satisfied: GNU General Public License, version 2
or later which is available at
https://www.gnu.org/licenses/old-licenses/gpl-2.0-standalone.html
SPDX-License-Identifier: EPL-2.0 OR GPL-2.0-or-later
<sumoConfiguration xmlns:xsi="http://www.w3.org/2001/XMLSchema-instance" xsi:noNamespaceSchemaLocation="http://sumo.dlr.de/xsd/sumoConfiguration.xsd">

    <input>
        <net-file value="net.net.xml"/>
        <route-files value="input_routes.rou.xml"/>
        <additional-files value="input_additional.add.xml"/>
    </input>

    <output>
        <write-license value="true"/>
        <battery-output value="battery.xml"/>
        <battery-output.precision value="4"/>
        <chargingstations-output value="chargingstations.xml"/>
        <tripinfo-output value="tripinfos.xml"/>
    </output>

    <processing>
        <default.speeddev value="0"/>
    </processing>

    <report>
        <xml-validation value="never"/>
        <duration-log.disable value="true"/>
        <no-step-log value="true"/>
    </report>

    <battery>
        <device.stationfinder.probability value="1"/>
        <device.stationfinder.reserveFactor value="1.15"/>
        <device.stationfinder.emptyThreshold value="0"/>
    </battery>

</sumoConfiguration>
-->

<chargingstations-export>
    <chargingStation id="CS1" totalEnergyCharged="300.83" chargingSteps="114">
        <vehicle id="veh1" type="ElectricVehicle1" totalEnergyChargedIntoVehicle="300.83" chargingBegin="15.00" chargingEnd="128.00">
            <step time="15.00" chargingStatus="chargingStopped" energyCharged="2.64" partialCharge="2.64" power="10000.00" efficiency="0.95" actualBatteryCapacity="55.89" maximumBatteryCapacity="6000.00"/>
            <step time="16.00" chargingStatus="chargingStopped" energyCharged="2.64" partialCharge="5.28" power="10000.00" efficiency="0.95" actualBatteryCapacity="58.52" maximumBatteryCapacity="6000.00"/>
            <step time="17.00" chargingStatus="chargingStopped" energyCharged="2.64" partialCharge="7.92" power="10000.00" efficiency="0.95" actualBatteryCapacity="61.14" maximumBatteryCapacity="6000.00"/>
            <step time="18.00" chargingStatus="chargingStopped" energyCharged="2.64" partialCharge="10.56" power="10000.00" efficiency="0.95" actualBatteryCapacity="63.77" maximumBatteryCapacity="6000.00"/>
            <step time="19.00" chargingStatus="chargingStopped" energyCharged="2.64" partialCharge="13.19" power="10000.00" efficiency="0.95" actualBatteryCapacity="66.40" maximumBatteryCapacity="6000.00"/>
            <step time="20.00" chargingStatus="chargingStopped" energyCharged="2.64" partialCharge="15.83" power="10000.00" efficiency="0.95" actualBatteryCapacity="69.03" maximumBatteryCapacity="6000.00"/>
            <step time="21.00" chargingStatus="chargingStopped" energyCharged="2.64" partialCharge="18.47" power="10000.00" efficiency="0.95" actualBatteryCapacity="71.65" maximumBatteryCapacity="6000.00"/>
            <step time="22.00" chargingStatus="chargingStopped" energyCharged="2.64" partialCharge="21.11" power="10000.00" efficiency="0.95" actualBatteryCapacity="74.28" maximumBatteryCapacity="6000.00"/>
            <step time="23.00" chargingStatus="chargingStopped" energyCharged="2.64" partialCharge="23.75" power="10000.00" efficiency="0.95" actualBatteryCapacity="76.91" maximumBatteryCapacity="6000.00"/>
            <step time="24.00" chargingStatus="chargingStopped" energyCharged="2.64" partialCharge="26.39" power="10000.00" efficiency="0.95" actualBatteryCapacity="79.54" maximumBatteryCapacity="6000.00"/>
            <step time="25.00" chargingStatus="chargingStopped" energyCharged="2.64" partialCharge="29.03" power="10000.00" efficiency="0.95" actualBatteryCapacity="82.17" maximumBatteryCapacity="6000.00"/>
            <step time="26.00" chargingStatus="chargingStopped" energyCharged="2.64" partialCharge="31.67" power="10000.00" efficiency="0.95" actualBatteryCapacity="84.79" maximumBatteryCapacity="6000.00"/>
            <step time="27.00" chargingStatus="chargingStopped" energyCharged="2.64" partialCharge="34.31" power="10000.00" efficiency="0.95" actualBatteryCapacity="87.42" maximumBatteryCapacity="6000.00"/>
            <step time="28.00" chargingStatus="chargingStopped" energyCharged="2.64" partialCharge="36.94" power="10000.00" efficiency="0.95" actualBatteryCapacity="90.05" maximumBatteryCapacity="6000.00"/>
            <step time="29.00" chargingStatus="chargingStopped" energyCharged="2.64" partialCharge="39.58" power="10000.00" efficiency="0.95" actualBatteryCapacity="92.68" maximumBatteryCapacity="6000.00"/>
            <step time="30.00" chargingStatus="chargingStopped" energyCharged="2.64" partialCharge="42.22" power="10000.00" efficiency="0.95" actualBatteryCapacity="95.30" maximumBatteryCapacity="6000.00"/>
            <step time="31.00" chargingStatus="chargingStopped" energyCharged="2.64" partialCharge="44.86" power="10000.00" efficiency="0.95" actualBatteryCapacity="97.93" maximumBatteryCapacity="6000.00"/>
            <step time="32.00" chargingStatus="chargingStopped" energyCharged="2.64" partialCharge="47.50" power="10000.00" efficiency="0.95" actualBatteryCapacity="100.56" maximumBatteryCapacity="6000.00"/>
            <step time="33.00" chargingStatus="chargingStopped" energyCharged="2.64" partialCharge="50.14" power="10000.00" efficiency="0.95" actualBatteryCapacity="103.19" maximumBatteryCapacity="6000.00"/>
            <step time="34.00" chargingStatus="chargingStopped" energyCharged="2.64" partialCharge="52.78" power="10000.00" efficiency="0.95" actualBatteryCapacity="105.82" maximumBatteryCapacity="6000.00"/>
            <step time="35.00" chargingStatus="chargingStopped" energyCharged="2.64" partialCharge="55.42" power="10000.00" efficiency="0.95" actualBatteryCapacity="108.44" maximumBatteryCapacity="6000.00"/>
            <step time="36.00" chargingStatus="chargingStopped" energyCharged="2.64" partialCharge="58.06" power="10000.00" efficiency="0.95" actualBatteryCapacity="111.07" maximumBatteryCapacity="6000.00"/>
            <step time="37.00" chargingStatus="chargingStopped" energyCharged="2.64" partialCharge="60.69" power="10000.00" efficiency="0.95" actualBatteryCapacity="113.70" maximumBatteryCapacity="6000.00"/>
            <step time="38.00" chargingStatus="chargingStopped" energyCharged="2.64" partialCharge="63.33" power="10000.00" efficiency="0.95" actualBatteryCapacity="116.33" maximumBatteryCapacity="6000.00"/>
            <step time="39.00" chargingStatus="chargingStopped" energyCharged="2.64" partialCharge="65.97" power="10000.00" efficiency="0.95" actualBatteryCapacity="118.95" maximumBatteryCapacity="6000.00"/>
            <step time="40.00" chargingStatus="chargingStopped" energyCharged="2.64" partialCharge="68.61" power="10000.00" efficiency="0.95" actualBatteryCapacity="121.58" maximumBatteryCapacity="6000.00"/>
            <step time="41.00" chargingStatus="chargingStopped" energyCharged="2.64" partialCharge="71.25" power="10000.00" efficiency="0.95" actualBatteryCapacity="124.21" maximumBatteryCapacity="6000.00"/>
            <step time="42.00" chargingStatus="chargingStopped" energyCharged="2.64" partialCharge="73.89" power="10000.00" efficiency="0.95" actualBatteryCapacity="126.84" maximumBatteryCapacity="6000.00"/>
            <step time="43.00" chargingStatus="chargingStopped" energyCharged="2.64" partialCharge="76.53" power="10000.00" efficiency="0.95" actualBatteryCapacity="129.47" maximumBatteryCapacity="6000.00"/>
            <step time="44.00" chargingStatus="chargingStopped" energyCharged="2.64" partialCharge="79.17" power="10000.00" efficiency="0.95" actualBatteryCapacity="132.09" maximumBatteryCapacity="6000.00"/>
            <step time="45.00" chargingStatus="chargingStopped" energyCharged="2.64" partialCharge="81.81" power="10000.00" efficiency="0.95" actualBatteryCapacity="134.72" maximumBatteryCapacity="6000.00"/>
            <step time="46.00" chargingStatus="chargingStopped" energyCharged="2.64" partialCharge="84.44" power="10000.00" efficiency="0.95" actualBatteryCapacity="137.35" maximumBatteryCapacity="6000.00"/>
            <step time="47.00" chargingStatus="chargingStopped" energyCharged="2.64" partialCharge="87.08" power="10000.00" efficiency="0.95" actualBatteryCapacity="139.98" maximumBatteryCapacity="6000.00"/>
            <step time="48.00" chargingStatus="chargingStopped" energyCharged="2.64" partialCharge="89.72" power="10000.00" efficiency="0.95" actualBatteryCapacity="142.60" maximumBatteryCapacity="6000.00"/>
            <step time="49.00" chargingStatus="chargingStopped" energyCharged="2.64" partialCharge="92.36" power="10000.00" efficiency="0.95" actualBatteryCapacity="145.23" maximumBatteryCapacity="6000.00"/>
            <step time="50.00" chargingStatus="chargingStopped" energyCharged="2.64" partialCharge="95.00" power="10000.00" efficiency="0.95" actualBatteryCapacity="147.86" maximumBatteryCapacity="6000.00"/>
            <step time="51.00" chargingStatus="chargingStopped" energyCharged="2.64" partialCharge="97.64" power="10000.00" efficiency="0.95" actualBatteryCapacity="150.49" maximumBatteryCapacity="6000.00"/>
            <step time="52.00" chargingStatus="chargingStopped" energyCharged="2.64" partialCharge="100.28" power="10000.00" efficiency="0.95" actualBatteryCapacity="153.12" maximumBatteryCapacity="6000.00"/>
            <step time="53.00" chargingStatus="chargingStopped" energyCharged="2.64" partialCharge="102.92" power="10000.00" efficiency="0.95" actualBatteryCapacity="155.74" maximumBatteryCapacity="6000.00"/>
            <step time="54.00" chargingStatus="chargingStopped" energyCharged="2.64" partialCharge="105.56" power="10000.00" efficiency="0.95" actualBatteryCapacity="158.37" maximumBatteryCapacity="6000.00"/>
            <step time="55.00" chargingStatus="chargingStopped" energyCharged="2.64" partialCharge="108.19" power="10000.00" efficiency="0.95" actualBatteryCapacity="161.00" maximumBatteryCapacity="6000.00"/>
            <step time="56.00" chargingStatus="chargingStopped" energyCharged="2.64" partialCharge="110.83" power="10000.00" efficiency="0.95" actualBatteryCapacity="163.63" maximumBatteryCapacity="6000.00"/>
            <step time="57.00" chargingStatus="chargingStopped" energyCharged="2.64" partialCharge="113.47" power="10000.00" efficiency="0.95" actualBatteryCapacity="166.25" maximumBatteryCapacity="6000.00"/>
            <step time="58.00" chargingStatus="chargingStopped" energyCharged="2.64" partialCharge="116.11" power="10000.00" efficiency="0.95" actualBatteryCapacity="168.88" maximumBatteryCapacity="6000.00"/>
            <step time="59.00" chargingStatus="chargingStopped" energyCharged="2.64" partialCharge="118.75" power="10000.00" efficiency="0.95" actualBatteryCapacity="171.51" maximumBatteryCapacity="6000.00"/>
            <step time="60.00" chargingStatus="chargingStopped" energyCharged="2.64" partialCharge="121.39" power="10000.00" efficiency="0.95" actualBatteryCapacity="174.14" maximumBatteryCapacity="6000.00"/>
            <step time="61.00" chargingStatus="chargingStopped" energyCharged="2.64" partialCharge="124.03" power="10000.00" efficiency="0.95" actualBatteryCapacity="176.77" maximumBatteryCapacity="6000.00"/>
            <step time="62.00" chargingStatus="chargingStopped" energyCharged="2.64" partialCharge="126.67" power="10000.00" efficiency="0.95" actualBatteryCapacity="179.39" maximumBatteryCapacity="6000.00"/>
            <step time="63.00" chargingStatus="chargingStopped" energyCharged="2.64" partialCharge="129.31" power="10000.00" efficiency="0.95" actualBatteryCapacity="182.02" maximumBatteryCapacity="6000.00"/>
            <step time="64.00" chargingStatus="chargingStopped" energyCharged="2.64" partialCharge="131.94" power="10000.00" efficiency="0.95" actualBatteryCapacity="184.65" maximumBatteryCapacity="6000.00"/>
            <step time="65.00" chargingStatus="chargingStopped" energyCharged="2.64" partialCharge="134.58" power="10000.00" efficiency="0.95" actualBatteryCapacity="187.28" maximumBatteryCapacity="6000.00"/>
            <step time="66.00" chargingStatus="chargingStopped" energyCharged="2.64" partialCharge="137.22" power="10000.00" efficiency="0.95" actualBatteryCapacity="189.90" maximumBatteryCapacity="6000.00"/>
            <step time="67.00" chargingStatus="chargingStopped" energyCharged="2.64" partialCharge="139.86" power="10000.00" efficiency="0.95" actualBatteryCapacity="192.53" maximumBatteryCapacity="6000.00"/>
            <step time="68.00" chargingStatus="chargingStopped" energyCharged="2.64" partialCharge="142.50" power="10000.00" efficiency="0.95" actualBatteryCapacity="195.16" maximumBatteryCapacity="6000.00"/>
            <step time="69.00" chargingStatus="chargingStopped" energyCharged="2.64" partialCharge="145.14" power="10000.00" efficiency="0.95" actualBatteryCapacity="197.79" maximumBatteryCapacity="6000.00"/>
            <step time="70.00" chargingStatus="chargingStopped" energyCharged="2.64" partialCharge="147.78" power="10000.00" efficiency="0.95" actualBatteryCapacity="200.42" maximumBatteryCapacity="6000.00"/>
            <step time="71.00" chargingStatus="chargingStopped" energyCharged="2.64" partialCharge="150.42" power="10000.00" efficiency="0.95" actualBatteryCapacity="203.04" maximumBatteryCapacity="6000.00"/>
            <step time="72.00" chargingStatus="chargingStopped" energyCharged="2.64" partialCharge="153.06" power="10000.00" efficiency="0.95" actualBatteryCapacity="205.67" maximumBatteryCapacity="6000.00"/>
            <step time="73.00" chargingStatus="chargingStopped" energyCharged="2.64" partialCharge="155.69" power="10000.00" efficiency="0.95" actualBatteryCapacity="208.30" maximumBatteryCapacity="6000.00"/>
            <step time="74.00" chargingStatus="chargingStopped" energyCharged="2.64" partialCharge="158.33" power="10000.00" efficiency="0.95" actualBatteryCapacity="210.93" maximumBatteryCapacity="6000.00"/>
            <step time="75.00" chargingStatus="chargingStopped" energyCharged="2.64" partialCharge="160.97" power="10000.00" efficiency="0.95" actualBatteryCapacity="213.55" maximumBatteryCapacity="6000.00"/>
            <step time="76.00" chargingStatus="chargingStopped" energyCharged="2.64" partialCharge="163.61" power="10000.00" efficiency="0.95" actualBatteryCapacity="216.18" maximumBatteryCapacity="6000.00"/>
            <step time="77.00" chargingStatus="chargingStopped" energyCharged="2.64" partialCharge="166.25" power="10000.00" efficiency="0.95" actualBatteryCapacity="218.81" maximumBatteryCapacity="6000.00"/>
            <step time="78.00" chargingStatus="chargingStopped" energyCharged="2.64" partialCharge="168.89" power="10000.00" efficiency="0.95" actualBatteryCapacity="221.44" maximumBatteryCapacity="6000.00"/>
            <step time="79.00" chargingStatus="chargingStopped" energyCharged="2.64" partialCharge="171.53" power="10000.00" efficiency="0.95" actualBatteryCapacity="224.07" maximumBatteryCapacity="6000.00"/>
            <step time="80.00" chargingStatus="chargingStopped" energyCharged="2.64" partialCharge="174.17" power="10000.00" efficiency="0.95" actualBatteryCapacity="226.69" maximumBatteryCapacity="6000.00"/>
            <step time="81.00" chargingStatus="chargingStopped" energyCharged="2.64" partialCharge="176.81" power="10000.00" efficiency="0.95" actualBatteryCapacity="229.32" maximumBatteryCapacity="6000.00"/>
            <step time="82.00" chargingStatus="chargingStopped" energyCharged="2.64" partialCharge="179.44" power="10000.00" efficiency="0.95" actualBatteryCapacity="231.95" maximumBatteryCapacity="6000.00"/>
            <step time="83.00" chargingStatus="chargingStopped" energyCharged="2.64" partialCharge="182.08" power="10000.00" efficiency="0.95" actualBatteryCapacity="234.58" maximumBatteryCapacity="6000.00"/>
            <step time="84.00" chargingStatus="chargingStopped" energyCharged="2.64" partialCharge="184.72" power="10000.00" efficiency="0.95" actualBatteryCapacity="237.20" maximumBatteryCapacity="6000.00"/>
            <step time="85.00" chargingStatus="chargingStopped" energyCharged="2.64" partialCharge="187.36" power="10000.00" efficiency="0.95" actualBatteryCapacity="239.83" maximumBatteryCapacity="6000.00"/>
            <step time="86.00" chargingStatus="chargingStopped" energyCharged="2.64" partialCharge="190.00" power="10000.00" efficiency="0.95" actualBatteryCapacity="242.46" maximumBatteryCapacity="6000.00"/>
            <step time="87.00" chargingStatus="chargingStopped" energyCharged="2.64" partialCharge="192.64" power="10000.00" efficiency="0.95" actualBatteryCapacity="245.09" maximumBatteryCapacity="6000.00"/>
            <step time="88.00" chargingStatus="chargingStopped" energyCharged="2.64" partialCharge="195.28" power="10000.00" efficiency="0.95" actualBatteryCapacity="247.72" maximumBatteryCapacity="6000.00"/>
            <step time="89.00" chargingStatus="chargingStopped" energyCharged="2.64" partialCharge="197.92" power="10000.00" efficiency="0.95" actualBatteryCapacity="250.34" maximumBatteryCapacity="6000.00"/>
            <step time="90.00" chargingStatus="chargingStopped" energyCharged="2.64" partialCharge="200.56" power="10000.00" efficiency="0.95" actualBatteryCapacity="252.97" maximumBatteryCapacity="6000.00"/>
            <step time="91.00" chargingStatus="chargingStopped" energyCharged="2.64" partialCharge="203.19" power="10000.00" efficiency="0.95" actualBatteryCapacity="255.60" maximumBatteryCapacity="6000.00"/>
            <step time="92.00" chargingStatus="chargingStopped" energyCharged="2.64" partialCharge="205.83" power="10000.00" efficiency="0.95" actualBatteryCapacity="258.23" maximumBatteryCapacity="6000.00"/>
            <step time="93.00" chargingStatus="chargingStopped" energyCharged="2.64" partialCharge="208.47" power="10000.00" efficiency="0.95" actualBatteryCapacity="260.85" maximumBatteryCapacity="6000.00"/>
            <step time="94.00" chargingStatus="chargingStopped" energyCharged="2.64" partialCharge="211.11" power="10000.00" efficiency="0.95" actualBatteryCapacity="263.48" maximumBatteryCapacity="6000.00"/>
            <step time="95.00" chargingStatus="chargingStopped" energyCharged="2.64" partialCharge="213.75" power="10000.00" efficiency="0.95" actualBatteryCapacity="266.11" maximumBatteryCapacity="6000.00"/>
            <step time="96.00" chargingStatus="chargingStopped" energyCharged="2.64" partialCharge="216.39" power="10000.00" efficiency="0.95" actualBatteryCapacity="268.74" maximumBatteryCapacity="6000.00"/>
            <step time="97.00" chargingStatus="chargingStopped" energyCharged="2.64" partialCharge="219.03" power="10000.00" efficiency="0.95" actualBatteryCapacity="271.37" maximumBatteryCapacity="6000.00"/>
            <step time="98.00" chargingStatus="chargingStopped" energyCharged="2.64" partialCharge="221.67" power="10000.00" efficiency="0.95" actualBatteryCapacity="273.99" maximumBatteryCapacity="6000.00"/>
            <step time="99.00" chargingStatus="chargingStopped" energyCharged="2.64" partialCharge="224.31" power="10000.00" efficiency="0.95" actualBatteryCapacity="276.62" maximumBatteryCapacity="6000.00"/>
            <step time="100.00" chargingStatus="chargingStopped" energyCharged="2.64" partialCharge="226.94" power="10000.00" efficiency="0.95" actualBatteryCapacity="279.25" maximumBatteryCapacity="6000.00"/>
            <step time="101.00" chargingStatus="chargingStopped" energyCharged="2.64" partialCharge="229.58" power="10000.00" efficiency="0.95" actualBatteryCapacity="281.88" maximumBatteryCapacity="6000.00"/>
            <step time="102.00" chargingStatus="chargingStopped" energyCharged="2.64" partialCharge="232.22" power="10000.00" efficiency="0.95" actualBatteryCapacity="284.50" maximumBatteryCapacity="6000.00"/>
            <step time="103.00" chargingStatus="chargingStopped" energyCharged="2.64" partialCharge="234.86" power="10000.00" efficiency="0.95" actualBatteryCapacity="287.13" maximumBatteryCapacity="6000.00"/>
            <step time="104.00" chargingStatus="chargingStopped" energyCharged="2.64" partialCharge="237.50" power="10000.00" efficiency="0.95" actualBatteryCapacity="289.76" maximumBatteryCapacity="6000.00"/>
            <step time="105.00" chargingStatus="chargingStopped" energyCharged="2.64" partialCharge="240.14" power="10000.00" efficiency="0.95" actualBatteryCapacity="292.39" maximumBatteryCapacity="6000.00"/>
            <step time="106.00" chargingStatus="chargingStopped" energyCharged="2.64" partialCharge="242.78" power="10000.00" efficiency="0.95" actualBatteryCapacity="295.02" maximumBatteryCapacity="6000.00"/>
            <step time="107.00" chargingStatus="chargingStopped" energyCharged="2.64" partialCharge="245.42" power="10000.00" efficiency="0.95" actualBatteryCapacity="297.64" maximumBatteryCapacity="6000.00"/>
            <step time="108.00" chargingStatus="chargingStopped" energyCharged="2.64" partialCharge="248.06" power="10000.00" efficiency="0.95" actualBatteryCapacity="300.27" maximumBatteryCapacity="6000.00"/>
            <step time="109.00" chargingStatus="chargingStopped" energyCharged="2.64" partialCharge="250.69" power="10000.00" efficiency="0.95" actualBatteryCapacity="302.90" maximumBatteryCapacity="6000.00"/>
            <step time="110.00" chargingStatus="chargingStopped" energyCharged="2.64" partialCharge="253.33" power="10000.00" efficiency="0.95" actualBatteryCapacity="305.53" maximumBatteryCapacity="6000.00"/>
            <step time="111.00" chargingStatus="chargingStopped" energyCharged="2.64" partialCharge="255.97" power="10000.00" efficiency="0.95" actualBatteryCapacity="308.15" maximumBatteryCapacity="6000.00"/>
            <step time="112.00" chargingStatus="chargingStopped" energyCharged="2.64" partialCharge="258.61" power="10000.00" efficiency="0.95" actualBatteryCapacity="310.78" maximumBatteryCapacity="6000.00"/>
            <step time="113.00" chargingStatus="chargingStopped" energyCharged="2.64" partialCharge="261.25" power="10000.00" efficiency="0.95" actualBatteryCapacity="313.41" maximumBatteryCapacity="6000.00"/>
            <step time="114.00" chargingStatus="chargingStopped" energyCharged="2.64" partialCharge="263.89" power="10000.00" efficiency="0.95" actualBatteryCapacity="316.04" maximumBatteryCapacity="6000.00"/>
            <step time="115.00" chargingStatus="chargingStopped" energyCharged="2.64" partialCharge="266.53" power="10000.00" efficiency="0.95" actualBatteryCapacity="318.67" maximumBatteryCapacity="6000.00"/>
            <step time="116.00" chargingStatus="chargingStopped" energyCharged="2.64" partialCharge="269.17" power="10000.00" efficiency="0.95" actualBatteryCapacity="321.29" maximumBatteryCapacity="6000.00"/>
            <step time="117.00" chargingStatus="chargingStopped" energyCharged="2.64" partialCharge="271.81" power="10000.00" efficiency="0.95" actualBatteryCapacity="323.92" maximumBatteryCapacity="6000.00"/>
            <step time="118.00" chargingStatus="chargingStopped" energyCharged="2.64" partialCharge="274.44" power="10000.00" efficiency="0.95" actualBatteryCapacity="326.55" maximumBatteryCapacity="6000.00"/>
            <step time="119.00" chargingStatus="chargingStopped" energyCharged="2.64" partialCharge="277.08" power="10000.00" efficiency="0.95" actualBatteryCapacity="329.18" maximumBatteryCapacity="6000.00"/>
            <step time="120.00" chargingStatus="chargingStopped" energyCharged="2.64" partialCharge="279.72" power="10000.00" efficiency="0.95" actualBatteryCapacity="331.80" maximumBatteryCapacity="6000.00"/>
            <step time="121.00" chargingStatus="chargingStopped" energyCharged="2.64" partialCharge="282.36" power="10000.00" efficiency="0.95" actualBatteryCapacity="334.43" maximumBatteryCapacity="6000.00"/>
            <step time="122.00" chargingStatus="chargingStopped" energyCharged="2.64" partialCharge="285.00" power="10000.00" efficiency="0.95" actualBatteryCapacity="337.06" maximumBatteryCapacity="6000.00"/>
            <step time="123.00" chargingStatus="chargingStopped" energyCharged="2.64" partialCharge="287.64" power="10000.00" efficiency="0.95" actualBatteryCapacity="339.69" maximumBatteryCapacity="6000.00"/>
            <step time="124.00" chargingStatus="chargingStopped" energyCharged="2.64" partialCharge="290.28" power="10000.00" efficiency="0.95" actualBatteryCapacity="342.32" maximumBatteryCapacity="6000.00"/>
            <step time="125.00" chargingStatus="chargingStopped" energyCharged="2.64" partialCharge="292.92" power="10000.00" efficiency="0.95" actualBatteryCapacity="344.94" maximumBatteryCapacity="6000.00"/>
            <step time="126.00" chargingStatus="chargingStopped" energyCharged="2.64" partialCharge="295.56" power="10000.00" efficiency="0.95" actualBatteryCapacity="347.57" maximumBatteryCapacity="6000.00"/>
            <step time="127.00" chargingStatus="chargingStopped" energyCharged="2.64" partialCharge="298.19" power="10000.00" efficiency="0.95" actualBatteryCapacity="350.20" maximumBatteryCapacity="6000.00"/>
            <step time="128.00" chargingStatus="chargingStopped" energyCharged="2.64" partialCharge="300.83" power="10000.00" efficiency="0.95" actualBatteryCapacity="352.83" maximumBatteryCapacity="6000.00"/>
        </vehicle>
    </chargingStation>
    <chargingStation id="CS2" totalEnergyCharged="308.00" chargingSteps="112">
        <vehicle id="veh0" type="ElectricVehicle1" totalEnergyChargedIntoVehicle="308.00" chargingBegin="13.00" chargingEnd="124.00">
            <step time="13.00" chargingStatus="chargingInTransit" energyCharged="2.75" partialCharge="2.75" power="11000.00" efficiency="0.90" actualBatteryCapacity="14.79" maximumBatteryCapacity="6000.00"/>
            <step time="14.00" chargingStatus="chargingInTransit" energyCharged="2.75" partialCharge="5.50" power="11000.00" efficiency="0.90" actualBatteryCapacity="38.49" maximumBatteryCapacity="6000.00"/>
            <step time="15.00" chargingStatus="chargingInTransit" energyCharged="2.75" partialCharge="8.25" power="11000.00" efficiency="0.90" actualBatteryCapacity="52.25" maximumBatteryCapacity="6000.00"/>
            <step time="16.00" chargingStatus="chargingStopped" energyCharged="2.75" partialCharge="11.00" power="11000.00" efficiency="0.90" actualBatteryCapacity="56.78" maximumBatteryCapacity="6000.00"/>
            <step time="17.00" chargingStatus="chargingStopped" energyCharged="2.75" partialCharge="13.75" power="11000.00" efficiency="0.90" actualBatteryCapacity="59.52" maximumBatteryCapacity="6000.00"/>
            <step time="18.00" chargingStatus="chargingStopped" energyCharged="2.75" partialCharge="16.50" power="11000.00" efficiency="0.90" actualBatteryCapacity="62.26" maximumBatteryCapacity="6000.00"/>
            <step time="19.00" chargingStatus="chargingStopped" energyCharged="2.75" partialCharge="19.25" power="11000.00" efficiency="0.90" actualBatteryCapacity="65.00" maximumBatteryCapacity="6000.00"/>
            <step time="20.00" chargingStatus="chargingStopped" energyCharged="2.75" partialCharge="22.00" power="11000.00" efficiency="0.90" actualBatteryCapacity="67.73" maximumBatteryCapacity="6000.00"/>
            <step time="21.00" chargingStatus="chargingStopped" energyCharged="2.75" partialCharge="24.75" power="11000.00" efficiency="0.90" actualBatteryCapacity="70.47" maximumBatteryCapacity="6000.00"/>
            <step time="22.00" chargingStatus="chargingStopped" energyCharged="2.75" partialCharge="27.50" power="11000.00" efficiency="0.90" actualBatteryCapacity="73.21" maximumBatteryCapacity="6000.00"/>
            <step time="23.00" chargingStatus="chargingStopped" energyCharged="2.75" partialCharge="30.25" power="11000.00" efficiency="0.90" actualBatteryCapacity="75.95" maximumBatteryCapacity="6000.00"/>
            <step time="24.00" chargingStatus="chargingStopped" energyCharged="2.75" partialCharge="33.00" power="11000.00" efficiency="0.90" actualBatteryCapacity="78.69" maximumBatteryCapacity="6000.00"/>
            <step time="25.00" chargingStatus="chargingStopped" energyCharged="2.75" partialCharge="35.75" power="11000.00" efficiency="0.90" actualBatteryCapacity="81.43" maximumBatteryCapacity="6000.00"/>
            <step time="26.00" chargingStatus="chargingStopped" energyCharged="2.75" partialCharge="38.50" power="11000.00" efficiency="0.90" actualBatteryCapacity="84.17" maximumBatteryCapacity="6000.00"/>
            <step time="27.00" chargingStatus="chargingStopped" energyCharged="2.75" partialCharge="41.25" power="11000.00" efficiency="0.90" actualBatteryCapacity="86.91" maximumBatteryCapacity="6000.00"/>
            <step time="28.00" chargingStatus="chargingStopped" energyCharged="2.75" partialCharge="44.00" power="11000.00" efficiency="0.90" actualBatteryCapacity="89.65" maximumBatteryCapacity="6000.00"/>
            <step time="29.00" chargingStatus="chargingStopped" energyCharged="2.75" partialCharge="46.75" power="11000.00" efficiency="0.90" actualBatteryCapacity="92.38" maximumBatteryCapacity="6000.00"/>
            <step time="30.00" chargingStatus="chargingStopped" energyCharged="2.75" partialCharge="49.50" power="11000.00" efficiency="0.90" actualBatteryCapacity="95.12" maximumBatteryCapacity="6000.00"/>
            <step time="31.00" chargingStatus="chargingStopped" energyCharged="2.75" partialCharge="52.25" power="11000.00" efficiency="0.90" actualBatteryCapacity="97.86" maximumBatteryCapacity="6000.00"/>