<?xml version="1.0" encoding="UTF-8"?>

<!-- generated on 2024-07-01 13:34:08 by Eclipse SUMO netedit Version v1_20_0+0930-542f1297b48
-->

<additional xmlns:xsi="http://www.w3.org/2001/XMLSchema-instance" xsi:noNamespaceSchemaLocation="http://sumo.dlr.de/xsd/additional_file.xsd">
    <!-- Detectors -->
    <inductionLoop id="e1_0" lane="E1_2" pos="8.00" period="300.00" file="e1_0.xml"/>
    <inductionLoop id="e1_1" lane="-E1_2" pos="15.00" period="300.00" file="e1_1.xml"/>
    <inductionLoop id="e1_2" lane="-E0_2" pos="10.00" period="300.00" file="e1_2.xml"/>
    <inductionLoop id="e1_3" lane="E0_2" pos="8.00" period="300.00" file="e1_3.xml"/>
    <inductionLoop id="e1_4" lane="-E2_2" pos="15.00" period="300.00" file="e1_4.xml"/>
    <inductionLoop id="e1_5" lane="E2_2" pos="8.00" period="300.00" file="e1_5.xml"/>
    <inductionLoop id="e1_6" lane="-E3_2" pos="10.00" period="300.00" file="e1_6.xml"/>
    <inductionLoop id="e1_7" lane="E3_2" pos="8.00" period="300.00" file="e1_7.xml"/>
</additional>
