<?xml version="1.0" encoding="UTF-8"?>

<!-- generated on Mon Jan 28 10:52:40 2019 by Eclipse SUMO Version v1_0_1+0645-93703db
This data file and the accompanying materials
are made available under the terms of the Eclipse Public License v2.0
which accompanies this distribution, and is available at
http://www.eclipse.org/legal/epl-v20.html
SPDX-License-Identifier: EPL-2.0
<configuration xmlns:xsi="http://www.w3.org/2001/XMLSchema-instance" xsi:noNamespaceSchemaLocation="http://sumo.dlr.de/xsd/sumoConfiguration.xsd">

    <input>
        <net-file value="net.net.xml"/>
        <route-files value="input_routes.rou.xml"/>
    </input>

    <output>
        <write-license value="true"/>
        <tripinfo-output value="tripinfos.xml"/>
        <railsignal-block-output value="railsignal_blocks.xml"/>
    </output>

    <processing>
        <default.speeddev value="0"/>
    </processing>

    <routing>
        <device.rerouting.period value="10"/>
        <device.rerouting.adaptation-steps value="10"/>
    </routing>

    <report>
        <xml-validation value="never"/>
        <duration-log.disable value="true"/>
        <no-step-log value="true"/>
    </report>

</configuration>
-->

<railsignal-block-output>
    <railSignal id="A">
        <link linkIndex="0" from="-T1_0" to=":A_0_0">
            <forwardBlock lanes=":A_0_0 -T0_0"/>
            <bidiBlock lanes=":A_1_0 T0_0"/>
            <backwardBlock lanes=""/>
            <conflictLinks logicIndex=""/>
        </link>
        <link linkIndex="1" from="T0_0" to=":A_1_0">
            <forwardBlock lanes=":A_1_0 T1_0 :w1_3_0 T1b_0 :w2_3_0 T2_0 :w3_3_0 T3_0 :w4_3_0 T4_0 :w4_2_0 T30_0 :w13_0_0 T31_0 :w12_1_0 T21_0 :w11_1_0 T11_0 :w1_2_0 :w3_2_0 T20_0 :w12_0_0 :w2_2_0 T10_0 :w11_0_0"/>
            <bidiBlock lanes=":A_0_0 -T1_0 :w1_0_0 -T1b_0 :w2_1_0 -T10_0 :w11_4_0 :w11_3_0 -T11_0 :w1_4_0 :w1_1_0 :w2_0_0 -T2_0 :w3_1_0 -T20_0 :w12_4_0 :w12_3_0 -T21_0 :w11_2_0 :w3_0_0 -T3_0 :w4_1_0 -T30_0 :w13_1_0 -T31_0 :w12_2_0 :w4_0_0 -T4_0"/>
            <backwardBlock lanes=""/>
            <conflictLinks logicIndex=""/>
        </link>
    </railSignal>
</railsignal-block-output>
