<?xml version="1.0" encoding="UTF-8"?>

<!-- generated on 2025-09-17T15:10:33.441758+01:00 by Eclipse SUMO netedit v1_24_0+0832-9cc904db06d
This data file and the accompanying materials
are made available under the terms of the Eclipse Public License v2.0
which accompanies this distribution, and is available at
http://www.eclipse.org/legal/epl-v20.html
This file may also be made available under the following Secondary
Licenses when the conditions for such availability set forth in the Eclipse
Public License 2.0 are satisfied: GNU General Public License, version 2
or later which is available at
https://www.gnu.org/licenses/old-licenses/gpl-2.0-standalone.html
SPDX-License-Identifier: EPL-2.0 OR GPL-2.0-or-later
-->

<additional xmlns:xsi="http://www.w3.org/2001/XMLSchema-instance" xsi:noNamespaceSchemaLocation="http://sumo.dlr.de/xsd/additional_file.xsd">
    <!-- StoppingPlaces -->
    <trainStop id="trainStopA" name="trainStop" lane="EdgeCenter1_1" startPos="16.71" endPos="26.71" friendlyPos="1" angle="30.00" lines="line1 line2" personCapacity="10" parkingLength="12.00">
        <param key="KeyA1" value="valueA1"/>
        <param key="KeyA2" value="valueA3"/>
        <param key="KeyA3" value="valueA2"/>
    </trainStop>
    <trainStop id="trainStopB" name="trainStop" lane="EdgeCenter0_1" startPos="15.00" endPos="20.00" angle="20.00" lines="line3 line4" personCapacity="20" parkingLength="15.00">
        <param key="KeyB1" value="valueB1"/>
        <param key="KeyB2" value="valueB3"/>
        <param key="KeyB3" value="valueB2"/>
    </trainStop>
</additional>
