<additional xmlns:xsi="http://www.w3.org/2001/XMLSchema-instance" xsi:noNamespaceSchemaLocation="http://sumo.dlr.de/xsd/additional_file.xsd">

    <!-- non valid power efficiency 1 (missing) -->
    <chargingStation id="chargingStation_0" lane="center1_1" startPos="12" endPos="14" power="22000.00" chargeInTransit="0" chargeDelay="0.00" name="chargingStation" friendlyPos="false"/>

    <!-- non valid power efficiency 2 (dummy)-->
    <chargingStation id="chargingStation_1" lane="center1_1" startPos="16" endPos="18" power="22000.00" efficiency="dummyEfficiency" chargeInTransit="0" chargeDelay="0.00" name="chargingStation" friendlyPos="false"/>

    <!-- non valid power efficiency 3 (< 0)-->
    <chargingStation id="chargingStation_2" lane="center1_1" startPos="20" endPos="22" power="22000.00" efficiency="-10" chargeInTransit="0" chargeDelay="0.00" name="chargingStation" friendlyPos="false"/>

    <!-- non valid power efficiency 4 (> 1) -->
    <chargingStation id="chargingStation_3" lane="center1_1" startPos="20" endPos="22" power="22000.00" efficiency="500" chargeInTransit="0" chargeDelay="0.00" name="chargingStation" friendlyPos="false"/>

    <!-- valid power efficiency 5 -->
    <chargingStation id="chargingStation_4" lane="center1_1" startPos="20" endPos="22" power="22000.00" efficiency="0.6" chargeInTransit="0" chargeDelay="0.00" name="chargingStation" friendlyPos="false"/>

</additional>
