<additional xmlns:xsi="http://www.w3.org/2001/XMLSchema-instance" xsi:noNamespaceSchemaLocation="https://sumo.dlr.de/xsd/additional_file.xsd">
	<!-- Calibrator with Routes -->
	<calibrator id="calibratorRoutes" edge="gneE0" pos="0.00" freq="100.00" output="calibratorRoutes.txt">

		<!-- non valid edges (empty) -->
		<route id = "route01" color="0,0,0"/>
		
		<!-- non valid edges (partial invalid) -->
		<route id = "route02" edges="dummyEdge1 dummyEdge2" color="0,0,0"/>
		
		<!-- non valid edges (all invalid) -->
		<route id = "route03" edges="dummyEdge1 gneE1" color="0,0,0"/>
		
		<!-- non valid edges (incorrect configuration) -->
		<route id = "route04" edges="gneE0 gneE0" color="0,0,0"/>
		
		<!-- valid edges -->
		<route id = "route05" edges="gneE1 gneE0" color="0,0,0"/>

	</calibrator>

</additional>
