<routes>
    <vType id="car1" vClass="passenger" accel="1.4" decel="1.8"
        length="4.64" maxSpeed="33" color="1,1,1" carFollowModel="Wiedemann"
        tau="1.0" security="1.0" estimation="1.0" emergencyDecel="5.5"
        apparentDecel="5.0">
    </vType>

    <route id="r0" edges="beg"/>

    <vehicle id="leader" depart="0" route="r0" departPos="100">
        <stop lane="beg_0" endPos="1000" duration="1"/>
    </vehicle>
    <vehicle id="ego" depart="0" route="r0" departPos="80" type="car1"/>
</routes>
