<edges xmlns:xsi="http://www.w3.org/2001/XMLSchema-instance" xsi:noNamespaceSchemaLocation="http://sumo.dlr.de/xsd/edgediff_file.xsd">
    <edge id="beg" length="0.1"/>
</edges>

