<?xml version="1.0" encoding="UTF-8"?>

<!-- generated on Fri Nov 24 08:55:14 2017 by SUMO duarouter Version v0_31_0+1301-485338d
<?xml version="1.0" encoding="UTF-8"?>

<configuration xmlns:xsi="http://www.w3.org/2001/XMLSchema-instance" xsi:noNamespaceSchemaLocation="http://sumo.dlr.de/xsd/duarouterConfiguration.xsd">

    <input>
        <net-file value="input_net.net.xml"/>
        <additional-files value="input_additional.add.xml"/>
        <route-files value="input_routes.rou.xml"/>
    </input>

    <output>
        <output-file value="routes.rou.xml"/>
        <alternatives-output value="routes.rou.alt.xml"/>
    </output>

    <report>
        <xml-validation value="never"/>
        <no-step-log value="true"/>
    </report>

</configuration>
-->

<routes xmlns:xsi="http://www.w3.org/2001/XMLSchema-instance" xsi:noNamespaceSchemaLocation="http://sumo.dlr.de/xsd/routes_file.xsd">
    <person id="p0" depart="0.00">
        <walk edges="beg" busStop="beg2left"/>
        <ride busStop="left2end" lines="train"/>
        <walk edges="end"/>
    </person>
    <person id="p1" depart="0.00">
        <walk edges="end middle beg" busStop="beg2left"/>
        <walk edges="beg"/>
    </person>
</routes>
