<?xml version="1.0" encoding="UTF-8"?>

<!-- generated on Tue Jul 31 10:05:11 2018 by Eclipse SUMO netconvert Version e6e8e55
This data file and the accompanying materials
are made available under the terms of the Eclipse Public License v2.0
which accompanies this distribution, and is available at
http://www.eclipse.org/legal/epl-v20.html
SPDX-License-Identifier: EPL-2.0
<configuration xmlns:xsi="http://www.w3.org/2001/XMLSchema-instance" xsi:noNamespaceSchemaLocation="http://sumo.dlr.de/xsd/netconvertConfiguration.xsd">

    <input>
        <sumo-net-file value="input_net.net.xml"/>
    </input>

    <output>
        <write-license value="true"/>
        <railway.topology.output value="topology.xml"/>
    </output>

    <processing>
        <no-turnarounds value="true"/>
        <railway.topology.repair value="true"/>
        <offset.disable-normalization value="true"/>
        <lefthand value="false"/>
        <junctions.corner-detail value="5"/>
        <rectangular-lane-cut value="false"/>
        <walkingareas value="false"/>
    </processing>

    <report>
        <verbose value="true"/>
        <xml-validation value="never"/>
    </report>

</configuration>
-->

<net version="0.27" junctionCornerDetail="5" xmlns:xsi="http://www.w3.org/2001/XMLSchema-instance" xsi:noNamespaceSchemaLocation="http://sumo.dlr.de/xsd/net_file.xsd">

    <location netOffset="0.00,0.00" convBoundary="0.00,-100.00,300.00,0.00" origBoundary="-10000000000.00,-10000000000.00,10000000000.00,10000000000.00" projParameter="!"/>

    <edge id=":gneJ39_0" function="internal">
        <lane id=":gneJ39_0_0" index="0" allow="rail" speed="27.78" length="1.60" shape="100.00,-100.00 100.00,-98.40"/>
    </edge>
    <edge id=":gneJ39_1" function="internal">
        <lane id=":gneJ39_1_0" index="0" allow="rail" speed="27.78" length="1.60" shape="100.00,-101.60 100.00,-100.00"/>
    </edge>
    <edge id=":gneJ40_0" function="internal">
        <lane id=":gneJ40_0_0" index="0" allow="rail" speed="27.78" length="1.60" shape="200.00,-98.40 200.00,-100.00"/>
    </edge>
    <edge id=":gneJ40_1" function="internal">
        <lane id=":gneJ40_1_0" index="0" allow="rail" speed="27.78" length="1.60" shape="200.00,-100.00 200.00,-101.60"/>
    </edge>
    <edge id=":gneJ45_0" function="internal">
        <lane id=":gneJ45_0_0" index="0" allow="rail" speed="27.78" length="0.10" shape="100.00,0.00 100.00,0.00"/>
    </edge>
    <edge id=":gneJ45_1" function="internal">
        <lane id=":gneJ45_1_0" index="0" allow="rail" speed="27.78" length="0.10" shape="100.00,0.00 100.00,0.00"/>
    </edge>
    <edge id=":gneJ46_0" function="internal">
        <lane id=":gneJ46_0_0" index="0" allow="rail" speed="27.78" length="0.10" shape="200.00,0.00 200.00,0.00"/>
    </edge>
    <edge id=":gneJ46_1" function="internal">
        <lane id=":gneJ46_1_0" index="0" allow="rail" speed="27.78" length="0.10" shape="200.00,0.00 200.00,0.00"/>
    </edge>

    <edge id="-gneE31" from="gneJ39" to="gneJ38" priority="-1">
        <lane id="-gneE31_0" index="0" allow="rail" speed="27.78" length="100.00" shape="100.00,-98.40 0.00,-98.40"/>
    </edge>
    <edge id="-gneE32" from="gneJ40" to="gneJ39" priority="-1" spreadType="center">
        <lane id="-gneE32_0" index="0" allow="rail" speed="27.78" length="100.00" shape="200.00,-100.00 100.00,-100.00"/>
    </edge>
    <edge id="-gneE33" from="gneJ41" to="gneJ40" priority="-1">
        <lane id="-gneE33_0" index="0" allow="rail" speed="27.78" length="100.00" shape="300.00,-98.40 200.00,-98.40"/>
    </edge>
    <edge id="-gneE35" from="gneJ45" to="gneJ44" priority="-1" spreadType="center">
        <lane id="-gneE35_0" index="0" allow="rail" speed="27.78" length="100.00" shape="100.00,0.00 0.00,0.00"/>
    </edge>
    <edge id="-gneE37" from="gneJ47" to="gneJ46" priority="-1" spreadType="center">
        <lane id="-gneE37_0" index="0" allow="rail" speed="27.78" length="100.00" shape="300.00,0.00 200.00,0.00"/>
    </edge>
    <edge id="gneE31" from="gneJ38" to="gneJ39" priority="-1">
        <lane id="gneE31_0" index="0" allow="rail" speed="27.78" length="100.00" shape="0.00,-101.60 100.00,-101.60"/>
    </edge>
    <edge id="gneE32" from="gneJ39" to="gneJ40" priority="-1" spreadType="center">
        <lane id="gneE32_0" index="0" allow="rail" speed="27.78" length="100.00" shape="100.00,-100.00 200.00,-100.00"/>
    </edge>
    <edge id="gneE33" from="gneJ40" to="gneJ41" priority="-1">
        <lane id="gneE33_0" index="0" allow="rail" speed="27.78" length="100.00" shape="200.00,-101.60 300.00,-101.60"/>
    </edge>
    <edge id="gneE35" from="gneJ44" to="gneJ45" priority="-1" spreadType="center">
        <lane id="gneE35_0" index="0" allow="rail" speed="27.78" length="100.00" shape="0.00,0.00 100.00,0.00"/>
    </edge>
    <edge id="gneE36" from="gneJ45" to="gneJ46" priority="-1" spreadType="center">
        <lane id="gneE36_0" index="0" allow="rail" speed="27.78" length="100.00" shape="100.00,0.00 200.00,0.00"/>
    </edge>
    <edge id="gneE37" from="gneJ46" to="gneJ47" priority="-1" spreadType="center">
        <lane id="gneE37_0" index="0" allow="rail" speed="27.78" length="100.00" shape="200.00,0.00 300.00,0.00"/>
    </edge>
    <edge id="gneE38" from="gneJ46" to="gneJ45" priority="-1" spreadType="center">
        <lane id="gneE38_0" index="0" allow="rail" speed="27.78" length="100.00" shape="200.00,0.00 100.00,0.00"/>
    </edge>

    <junction id="gneJ38" type="dead_end" x="0.00" y="-100.00" incLanes="-gneE31_0" intLanes="" shape="0.00,-100.00 0.00,-96.80 0.00,-100.00"/>
    <junction id="gneJ39" type="priority" x="100.00" y="-100.00" incLanes="-gneE32_0 gneE31_0" intLanes=":gneJ39_0_0 :gneJ39_1_0" shape="100.00,-98.40 100.00,-103.20 100.00,-96.80">
        <request index="0" response="00" foes="00" cont="0"/>
        <request index="1" response="00" foes="00" cont="0"/>
    </junction>
    <junction id="gneJ40" type="priority" x="200.00" y="-100.00" incLanes="-gneE33_0 gneE32_0" intLanes=":gneJ40_0_0 :gneJ40_1_0" shape="200.00,-96.80 200.00,-101.60 200.00,-98.40">
        <request index="0" response="00" foes="00" cont="0"/>
        <request index="1" response="00" foes="00" cont="0"/>
    </junction>
    <junction id="gneJ41" type="dead_end" x="300.00" y="-100.00" incLanes="gneE33_0" intLanes="" shape="300.00,-100.00 300.00,-103.20 300.00,-100.00"/>
    <junction id="gneJ44" type="dead_end" x="0.00" y="0.00" incLanes="-gneE35_0" intLanes="" shape="0.00,1.60 0.00,-1.60 0.00,1.60 0.00,-1.60"/>
    <junction id="gneJ45" type="priority" x="100.00" y="0.00" incLanes="gneE38_0 gneE35_0" intLanes=":gneJ45_0_0 :gneJ45_1_0" shape="100.00,1.60 100.00,-1.60 100.00,1.60">
        <request index="0" response="00" foes="00" cont="0"/>
        <request index="1" response="00" foes="00" cont="0"/>
    </junction>
    <junction id="gneJ46" type="priority" x="200.00" y="0.00" incLanes="-gneE37_0 gneE36_0" intLanes=":gneJ46_0_0 :gneJ46_1_0" shape="200.00,1.60 200.00,-1.60 200.00,1.60">
        <request index="0" response="00" foes="00" cont="0"/>
        <request index="1" response="00" foes="00" cont="0"/>
    </junction>
    <junction id="gneJ47" type="dead_end" x="300.00" y="0.00" incLanes="gneE37_0" intLanes="" shape="300.00,-1.60 300.00,1.60 300.00,-1.60 300.00,1.60"/>

    <connection from="-gneE32" to="-gneE31" fromLane="0" toLane="0" via=":gneJ39_0_0" dir="s" state="M"/>
    <connection from="-gneE33" to="-gneE32" fromLane="0" toLane="0" via=":gneJ40_0_0" dir="s" state="M"/>
    <connection from="-gneE37" to="gneE38" fromLane="0" toLane="0" via=":gneJ46_0_0" dir="s" state="M"/>
    <connection from="gneE31" to="gneE32" fromLane="0" toLane="0" via=":gneJ39_1_0" dir="s" state="M"/>
    <connection from="gneE32" to="gneE33" fromLane="0" toLane="0" via=":gneJ40_1_0" dir="s" state="M"/>
    <connection from="gneE35" to="gneE36" fromLane="0" toLane="0" via=":gneJ45_1_0" dir="s" state="M"/>
    <connection from="gneE36" to="gneE37" fromLane="0" toLane="0" via=":gneJ46_1_0" dir="s" state="M"/>
    <connection from="gneE38" to="-gneE35" fromLane="0" toLane="0" via=":gneJ45_0_0" dir="s" state="M"/>

    <connection from=":gneJ39_0" to="-gneE31" fromLane="0" toLane="0" dir="s" state="M"/>
    <connection from=":gneJ39_1" to="gneE32" fromLane="0" toLane="0" dir="s" state="M"/>
    <connection from=":gneJ40_0" to="-gneE32" fromLane="0" toLane="0" dir="s" state="M"/>
    <connection from=":gneJ40_1" to="gneE33" fromLane="0" toLane="0" dir="s" state="M"/>
    <connection from=":gneJ45_0" to="-gneE35" fromLane="0" toLane="0" dir="s" state="M"/>
    <connection from=":gneJ45_1" to="gneE36" fromLane="0" toLane="0" dir="s" state="M"/>
    <connection from=":gneJ46_0" to="gneE38" fromLane="0" toLane="0" dir="s" state="M"/>
    <connection from=":gneJ46_1" to="gneE37" fromLane="0" toLane="0" dir="s" state="M"/>

</net>
