<?xml version="1.0" encoding="UTF-8"?>

<!-- generated on Wed Apr 20 15:44:36 2016 by SUMO netconvert Version dev-SVN-r20491
<?xml version="1.0" encoding="UTF-8"?>

<configuration xmlns:xsi="http://www.w3.org/2001/XMLSchema-instance" xsi:noNamespaceSchemaLocation="http://sumo.dlr.de/xsd/netconvertConfiguration.xsd">

    <input>
        <node-files value="input_nodes.nod.xml"/>
        <edge-files value="input_edges.edg.xml"/>
    </input>

    <output>
        <output-file value="net.net.xml"/>
        <plain-output-prefix value="plain"/>
    </output>

    <tls_building>
        <tls.join value="true"/>
    </tls_building>

    <report>
        <xml-validation value="never"/>
    </report>

</configuration>
-->

<nodes version="0.27" xmlns:xsi="http://www.w3.org/2001/XMLSchema-instance" xsi:noNamespaceSchemaLocation="http://sumo.dlr.de/xsd/nodes_file.xsd">
    <location netOffset="0.00,0.00" convBoundary="0.00,0.00,92.46,78.21" origBoundary="0.00,0.00,92.46,78.21" projParameter="!"/>

    <node id="301292612" x="43.13" y="56.80" type="traffic_light" tl="joinedS_0"/>
    <node id="38918157" x="88.72" y="78.21" type="unregulated"/>
    <node id="38919945" x="35.18" y="54.83" type="traffic_light" tl="joinedS_0"/>
    <node id="492462300" x="1.87" y="40.76" type="unregulated"/>
    <node id="56231397" x="45.80" y="46.84" type="traffic_light" tl="joinedS_0"/>
    <node id="567607201" x="92.46" y="68.26" type="unregulated"/>
    <node id="59993001" x="36.97" y="44.55" type="traffic_light" tl="joinedS_0"/>
    <node id="945141569" x="0.00" y="51.05" type="unregulated"/>
    <node id="gneJ0" x="48.35" y="0.00" type="unregulated"/>
    <node id="gneJ1" x="59.75" y="2.19" type="unregulated"/>
</nodes>
