<?xml version="1.0" encoding="UTF-8"?>

<!-- generated on 2021-11-08 14:56:46 by Eclipse SUMO netedit Version v1_10_0+2008-14d07097406
<configuration xmlns:xsi="http://www.w3.org/2001/XMLSchema-instance" xsi:noNamespaceSchemaLocation="http://sumo.dlr.de/xsd/netconvertConfiguration.xsd">

    <input>
        <sumo-net-file value="C:\Users\SUMO-Test\.texttest\tmp\netedit.gui.08Nov134812.2112\netedit.gui\shapeElements\poilane\load\color\input_net.net.xml"/>
    </input>

    <output>
        <output-file value="C:\Users\SUMO-Test\.texttest\tmp\netedit.gui.08Nov134812.2112\netedit.gui\shapeElements\poilane\load\color\net.net.xml"/>
    </output>

    <processing>
        <geometry.min-radius.fix.railways value="false"/>
        <geometry.max-grade.fix value="false"/>
        <offset.disable-normalization value="true"/>
        <lefthand value="false"/>
    </processing>

    <junctions>
        <no-turnarounds value="true"/>
        <junctions.corner-detail value="5"/>
        <junctions.limit-turn-speed value="5.5"/>
        <rectangular-lane-cut value="false"/>
    </junctions>

    <pedestrian>
        <walkingareas value="false"/>
    </pedestrian>

    <netedit>
        <additional-files value="C:\Users\SUMO-Test\.texttest\tmp\netedit.gui.08Nov134812.2112\netedit.gui\shapeElements\poilane\load\color\additionals.xml"/>
        <additionals-output value="C:\Users\SUMO-Test\.texttest\tmp\netedit.gui.08Nov134812.2112\netedit.gui\shapeElements\poilane\load\color\additionals.xml"/>
        <route-files value="C:\Users\SUMO-Test\.texttest\tmp\netedit.gui.08Nov134812.2112\netedit.gui\shapeElements\poilane\load\color\routes.xml"/>
        <demandelements-output value="C:\Users\SUMO-Test\.texttest\tmp\netedit.gui.08Nov134812.2112\netedit.gui\shapeElements\poilane\load\color\routes.xml"/>
        <data-files value="C:\Users\SUMO-Test\.texttest\tmp\netedit.gui.08Nov134812.2112\netedit.gui\shapeElements\poilane\load\color\datas.xml"/>
        <dataelements-output value="C:\Users\SUMO-Test\.texttest\tmp\netedit.gui.08Nov134812.2112\netedit.gui\shapeElements\poilane\load\color\datas.xml"/>
    </netedit>

    <visualisation>
        <gui-settings-file value="C:\Users\SUMO-Test\.texttest\tmp\netedit.gui.08Nov134812.2112\netedit.gui\shapeElements\poilane\load\color\gui-settings.xml"/>
        <window-size value="936,697"/>
        <window-pos value="50,50"/>
        <gui-testing value="true"/>
        <gui-testing-debug value="true"/>
        <gui-testing-debug-gl value="true"/>
        <gui-testing.setting-output value="C:\Users\SUMO-Test\.texttest\tmp\netedit.gui.08Nov134812.2112\netedit.gui\shapeElements\poilane\load\color\guisettingsoutput.xml"/>
    </visualisation>

    <report>
        <no-warnings value="true"/>
        <aggregate-warnings value="5"/>
        <error-log value="C:\Users\SUMO-Test\.texttest\tmp\netedit.gui.08Nov134812.2112\netedit.gui\shapeElements\poilane\load\color\log.txt"/>
    </report>

</configuration>
-->

<additional xmlns:xsi="http://www.w3.org/2001/XMLSchema-instance" xsi:noNamespaceSchemaLocation="http://sumo.dlr.de/xsd/additional_file.xsd">
    <poi id="POI_0" color="red" layer="0.00" lane="gneE1_0" pos="20.00" width="0.00" height="0.00"/>
    <poi id="POI_2" color="blue" layer="0.00" lane="gneE1_0" pos="20.00" width="0.00" height="0.00"/>
</additional>
