<?xml version="1.0" encoding="UTF-8"?>

<!-- generated on 30.07.2019 10:46:07 by Eclipse SUMO netedit Version v1_2_0+1321-a8a1bbc0d6
<configuration xmlns:xsi="http://www.w3.org/2001/XMLSchema-instance" xsi:noNamespaceSchemaLocation="http://sumo.dlr.de/xsd/netconvertConfiguration.xsd">

    <input>
        <sumo-net-file value="C:/Users/alva_pa/.texttest/tmp/netedit.gui.3_from_30Jul101705.6400/netedit.gui/demandElements/vehicletype/load/carfollowingmodel_params/train_type\input_net.net.xml"/>
    </input>

    <output>
        <output-file value="C:/Users/alva_pa/.texttest/tmp/netedit.gui.3_from_30Jul101705.6400/netedit.gui/demandElements/vehicletype/load/carfollowingmodel_params/train_type\net.net.xml"/>
    </output>

    <processing>
        <geometry.max-grade.fix value="false"/>
        <offset.disable-normalization value="true"/>
        <lefthand value="false"/>
    </processing>

    <junctions>
        <no-turnarounds value="true"/>
        <junctions.corner-detail value="5"/>
        <junctions.limit-turn-speed value="5.5"/>
        <rectangular-lane-cut value="false"/>
    </junctions>

    <pedestrian>
        <walkingareas value="false"/>
    </pedestrian>

    <netedit>
        <additional-files value="C:/Users/alva_pa/.texttest/tmp/netedit.gui.3_from_30Jul101705.6400/netedit.gui/demandElements/vehicletype/load/carfollowingmodel_params/train_type\additionals.xml"/>
        <additionals-output value="C:/Users/alva_pa/.texttest/tmp/netedit.gui.3_from_30Jul101705.6400/netedit.gui/demandElements/vehicletype/load/carfollowingmodel_params/train_type\additionals.xml"/>
        <route-files value="C:/Users/alva_pa/.texttest/tmp/netedit.gui.3_from_30Jul101705.6400/netedit.gui/demandElements/vehicletype/load/carfollowingmodel_params/train_type\routes.xml"/>
        <demandelements-output value="C:/Users/alva_pa/.texttest/tmp/netedit.gui.3_from_30Jul101705.6400/netedit.gui/demandElements/vehicletype/load/carfollowingmodel_params/train_type\routes.xml"/>
    </netedit>

    <visualisation>
        <window-size value="700,500"/>
        <window-pos value="50,50"/>
        <gui-testing value="true"/>
        <gui-testing-debug value="true"/>
        <gui-testing-debug-gl value="true"/>
    </visualisation>

    <report>
        <no-warnings value="true"/>
        <error-log value="C:/Users/alva_pa/.texttest/tmp/netedit.gui.3_from_30Jul101705.6400/netedit.gui/demandElements/vehicletype/load/carfollowingmodel_params/train_type\log.txt"/>
    </report>

</configuration>
-->

<routes xmlns:xsi="http://www.w3.org/2001/XMLSchema-instance" xsi:noNamespaceSchemaLocation="http://sumo.dlr.de/xsd/routes_file.xsd">
    <vType id="vType0" carFollowModel="Rail" trainType="dummy_trainType"/>
    <vType id="vType1" carFollowModel="Rail" trainType="-3"/>
    <vType id="vType2" carFollowModel="Rail" trainType="0"/>
    <vType id="vType3" carFollowModel="Rail" trainType="12"/>
    <vType id="vType4" carFollowModel="Rail" trainType="4.5"/>
</routes>
