<?xml version="1.0"?>

<!-- generated on 07/11/08 10:58:21 by SUMO duarouter Version 0.9.7
<configuration>

   <input>
      <net-file>input_net.net.xml</net-file>
      <alternatives>input_alts.rou.alt.xml</alternatives>
   </input>

   <output>
      <output-file>routes.rou.xml</output-file>
   </output>

   <processing>
      <unsorted>true</unsorted>
   </processing>

</configuration>
-->

<routes>
   <vtype model="SUMO_KRAUSS" id="KRAUSS_DEFAULT" accel="2.60" decel="4.50" sigma="0.50" length="5.00" maxspeed="70.00" tau="1.00" color="1,1,0"/>
   <vehicle id="9" type="KRAUSS_DEFAULT" depart="1" color="0.00,0.00,0.00">
      <route edges="beg middle end rend"/>
   </vehicle>
   <vehicle id="1" type="KRAUSS_DEFAULT" depart="9" color="0.00,0.00,0.00">
      <route edges="beg middle end rend"/>
   </vehicle>
   <vehicle id="5" type="KRAUSS_DEFAULT" depart="13" color="0.00,0.00,0.00">
      <route edges="beg middle end rend"/>
   </vehicle>
   <vehicle id="2" type="KRAUSS_DEFAULT" depart="19" color="0.00,0.00,0.00">
      <route edges="beg middle end rend"/>
   </vehicle>
   <vehicle id="4" type="KRAUSS_DEFAULT" depart="22" color="0.00,0.00,0.00">
      <route edges="beg middle end rend"/>
   </vehicle>
   <vehicle id="6" type="KRAUSS_DEFAULT" depart="38" color="0.00,0.00,0.00">
      <route edges="beg middle end rend"/>
   </vehicle>
   <vehicle id="7" type="KRAUSS_DEFAULT" depart="51" color="0.00,0.00,0.00">
      <route edges="beg middle end rend"/>
   </vehicle>
   <vehicle id="0" type="KRAUSS_DEFAULT" depart="79" color="0.00,0.00,0.00">
      <route edges="beg middle end rend"/>
   </vehicle>
   <vehicle id="3" type="KRAUSS_DEFAULT" depart="88" color="0.00,0.00,0.00">
      <route edges="beg middle end rend"/>
   </vehicle>
   <vehicle id="8" type="KRAUSS_DEFAULT" depart="99" color="0.00,0.00,0.00">
      <route edges="beg middle end rend"/>
   </vehicle>
</routes>
