<?xml version="1.0" encoding="UTF-8"?>

<!-- generated on 14.06.2019 14:54:07 by Eclipse SUMO netedit Version v1_2_0+0754-626537ccab
<configuration xmlns:xsi="http://www.w3.org/2001/XMLSchema-instance" xsi:noNamespaceSchemaLocation="http://sumo.dlr.de/xsd/netconvertConfiguration.xsd">

    <input>
        <new value="true"/>
    </input>

    <output>
        <output-file value="C:/Users/SUMO-Test/.texttest/tmp/netedit.gui.3_from_14Jun094403.2448/netedit.gui/netElements/junctions/create/two_way\net.net.xml"/>
    </output>

    <processing>
        <offset.disable-normalization value="true"/>
    </processing>

    <netedit>
        <additional-files value="C:/Users/SUMO-Test/.texttest/tmp/netedit.gui.3_from_14Jun094403.2448/netedit.gui/netElements/junctions/create/two_way\additionals.xml"/>
        <additionals-output value="C:/Users/SUMO-Test/.texttest/tmp/netedit.gui.3_from_14Jun094403.2448/netedit.gui/netElements/junctions/create/two_way\additionals.xml"/>
        <route-files value="C:/Users/SUMO-Test/.texttest/tmp/netedit.gui.3_from_14Jun094403.2448/netedit.gui/netElements/junctions/create/two_way\routes.xml"/>
        <demandelements-output value="C:/Users/SUMO-Test/.texttest/tmp/netedit.gui.3_from_14Jun094403.2448/netedit.gui/netElements/junctions/create/two_way\routes.xml"/>
    </netedit>

    <visualisation>
        <gui-settings-file value="C:/Users/SUMO-Test/.texttest/tmp/netedit.gui.3_from_14Jun094403.2448/netedit.gui/netElements/junctions/create/two_way\gui-settings.xml"/>
        <window-size value="700,500"/>
        <window-pos value="50,50"/>
        <gui-testing value="true"/>
        <gui-testing-debug value="true"/>
        <gui-testing-debug-gl value="true"/>
    </visualisation>

    <report>
        <no-warnings value="true"/>
        <error-log value="C:/Users/SUMO-Test/.texttest/tmp/netedit.gui.3_from_14Jun094403.2448/netedit.gui/netElements/junctions/create/two_way\log.txt"/>
    </report>

</configuration>
-->

<net version="1.6" junctionCornerDetail="5" limitTurnSpeed="5.50" xmlns:xsi="http://www.w3.org/2001/XMLSchema-instance" xsi:noNamespaceSchemaLocation="http://sumo.dlr.de/xsd/net_file.xsd">

    <location netOffset="0.00,0.00" convBoundary="76.00,86.00,95.00,86.00" origBoundary="10000000000.00,10000000000.00,-10000000000.00,-10000000000.00" projParameter="!"/>

    <edge id=":gneJ0_0" function="internal">
        <lane id=":gneJ0_0_0" index="0" speed="3.65" length="4.67" shape="76.00,87.60 74.80,86.80 74.40,86.00 74.80,85.20 76.00,84.40"/>
    </edge>
    <edge id=":gneJ1_0" function="internal">
        <lane id=":gneJ1_0_0" index="0" speed="3.65" length="4.67" shape="95.00,84.40 96.20,85.20 96.60,86.00 96.20,86.80 95.00,87.60"/>
    </edge>

    <edge id="-gneE0" from="gneJ1" to="gneJ0" priority="-1">
        <lane id="-gneE0_0" index="0" speed="13.89" length="19.00" shape="95.00,87.60 76.00,87.60"/>
    </edge>
    <edge id="gneE0" from="gneJ0" to="gneJ1" priority="-1">
        <lane id="gneE0_0" index="0" speed="13.89" length="19.00" shape="76.00,84.40 95.00,84.40"/>
    </edge>

    <junction id="gneJ0" type="priority" x="76.00" y="86.00" incLanes="-gneE0_0" intLanes=":gneJ0_0_0" shape="76.00,86.00 76.00,89.20 76.00,86.00">
        <request index="0" response="0" foes="0" cont="0"/>
    </junction>
    <junction id="gneJ1" type="priority" x="95.00" y="86.00" incLanes="gneE0_0" intLanes=":gneJ1_0_0" shape="95.00,86.00 95.00,82.80 95.00,86.00">
        <request index="0" response="0" foes="0" cont="0"/>
    </junction>

    <connection from="-gneE0" to="gneE0" fromLane="0" toLane="0" via=":gneJ0_0_0" dir="t" state="M"/>
    <connection from="gneE0" to="-gneE0" fromLane="0" toLane="0" via=":gneJ1_0_0" dir="t" state="M"/>

    <connection from=":gneJ0_0" to="gneE0" fromLane="0" toLane="0" dir="t" state="M"/>
    <connection from=":gneJ1_0" to="-gneE0" fromLane="0" toLane="0" dir="t" state="M"/>

</net>
