<?xml version="1.0" encoding="UTF-8"?>

<!-- generated on 23.04.2020 08:21:54 by Eclipse SUMO netedit Version v1_5_0+1230-5308a0e38c
<configuration xmlns:xsi="http://www.w3.org/2001/XMLSchema-instance" xsi:noNamespaceSchemaLocation="http://sumo.dlr.de/xsd/netconvertConfiguration.xsd">

    <input>
        <new value="true"/>
    </input>

    <output>
        <output-file value="C:\Users\alva_pa\.texttest\tmp\netedit.gui.1_from_22Apr130613.14120\netedit.gui\netElements\junctions\create\two_way\net.net.xml"/>
    </output>

    <processing>
        <offset.disable-normalization value="true"/>
    </processing>

    <netedit>
        <additional-files value="C:\Users\alva_pa\.texttest\tmp\netedit.gui.1_from_22Apr130613.14120\netedit.gui\netElements\junctions\create\two_way\additionals.xml"/>
        <additionals-output value="C:\Users\alva_pa\.texttest\tmp\netedit.gui.1_from_22Apr130613.14120\netedit.gui\netElements\junctions\create\two_way\additionals.xml"/>
        <route-files value="C:\Users\alva_pa\.texttest\tmp\netedit.gui.1_from_22Apr130613.14120\netedit.gui\netElements\junctions\create\two_way\routes.xml"/>
        <demandelements-output value="C:\Users\alva_pa\.texttest\tmp\netedit.gui.1_from_22Apr130613.14120\netedit.gui\netElements\junctions\create\two_way\routes.xml"/>
        <data-files value="C:\Users\alva_pa\.texttest\tmp\netedit.gui.1_from_22Apr130613.14120\netedit.gui\netElements\junctions\create\two_way\datas.xml"/>
        <dataelements-output value="C:\Users\alva_pa\.texttest\tmp\netedit.gui.1_from_22Apr130613.14120\netedit.gui\netElements\junctions\create\two_way\datas.xml"/>
    </netedit>

    <visualisation>
        <gui-settings-file value="C:\Users\alva_pa\.texttest\tmp\netedit.gui.1_from_22Apr130613.14120\netedit.gui\netElements\junctions\create\two_way\gui-settings.xml"/>
        <window-size value="700,500"/>
        <window-pos value="50,50"/>
        <gui-testing value="true"/>
        <gui-testing-debug value="true"/>
        <gui-testing-debug-gl value="true"/>
        <gui-testing.setting-output value="C:\Users\alva_pa\.texttest\tmp\netedit.gui.1_from_22Apr130613.14120\netedit.gui\netElements\junctions\create\two_way\guisettingsoutput.xml"/>
    </visualisation>

    <report>
        <no-warnings value="true"/>
        <aggregate-warnings value="5"/>
        <error-log value="C:\Users\alva_pa\.texttest\tmp\netedit.gui.1_from_22Apr130613.14120\netedit.gui\netElements\junctions\create\two_way\log.txt"/>
    </report>

</configuration>
-->

<net version="1.6" junctionCornerDetail="5" limitTurnSpeed="5.50" xmlns:xsi="http://www.w3.org/2001/XMLSchema-instance" xsi:noNamespaceSchemaLocation="http://sumo.dlr.de/xsd/net_file.xsd">

    <location netOffset="0.00,0.00" convBoundary="90.00,78.00,108.00,78.00" origBoundary="10000000000.00,10000000000.00,-10000000000.00,-10000000000.00" projParameter="!"/>

    <edge id=":gneJ0_0" function="internal">
        <lane id=":gneJ0_0_0" index="0" speed="3.65" length="4.67" shape="90.00,79.60 88.80,78.80 88.40,78.00 88.80,77.20 90.00,76.40"/>
    </edge>
    <edge id=":gneJ1_0" function="internal">
        <lane id=":gneJ1_0_0" index="0" speed="3.65" length="4.67" shape="108.00,76.40 109.20,77.20 109.60,78.00 109.20,78.80 108.00,79.60"/>
    </edge>

    <edge id="-gneE0" from="gneJ1" to="gneJ0" priority="-1">
        <lane id="-gneE0_0" index="0" speed="13.89" length="18.00" shape="108.00,79.60 90.00,79.60"/>
    </edge>
    <edge id="gneE0" from="gneJ0" to="gneJ1" priority="-1">
        <lane id="gneE0_0" index="0" speed="13.89" length="18.00" shape="90.00,76.40 108.00,76.40"/>
    </edge>

    <junction id="gneJ0" type="priority" x="90.00" y="78.00" incLanes="-gneE0_0" intLanes=":gneJ0_0_0" shape="90.00,78.00 90.00,81.20 90.00,78.00">
        <request index="0" response="0" foes="0" cont="0"/>
    </junction>
    <junction id="gneJ1" type="priority" x="108.00" y="78.00" incLanes="gneE0_0" intLanes=":gneJ1_0_0" shape="108.00,78.00 108.00,74.80 108.00,78.00">
        <request index="0" response="0" foes="0" cont="0"/>
    </junction>

    <connection from="-gneE0" to="gneE0" fromLane="0" toLane="0" via=":gneJ0_0_0" dir="t" state="M"/>
    <connection from="gneE0" to="-gneE0" fromLane="0" toLane="0" via=":gneJ1_0_0" dir="t" state="M"/>

    <connection from=":gneJ0_0" to="gneE0" fromLane="0" toLane="0" dir="t" state="M"/>
    <connection from=":gneJ1_0" to="-gneE0" fromLane="0" toLane="0" dir="t" state="M"/>

</net>
