<?xml version="1.0" encoding="UTF-8"?>

<!-- generated on 08.05.2019 15:43:56 by Eclipse SUMO netedit Version v1_2_0+0242-00a18e6a42
<configuration xmlns:xsi="http://www.w3.org/2001/XMLSchema-instance" xsi:noNamespaceSchemaLocation="http://sumo.dlr.de/xsd/netconvertConfiguration.xsd">

    <input>
        <new value="true"/>
    </input>

    <output>
        <output-file value="C:/Users/SUMO-Test/.texttest/tmp/netedit.gui.3_from_08May082111.1560/netedit.gui/netElements/junctions/create/two_way\net.net.xml"/>
    </output>

    <processing>
        <offset.disable-normalization value="true"/>
    </processing>

    <junctions>
        <no-turnarounds value="true"/>
    </junctions>

    <netedit>
        <additional-files value="C:/Users/SUMO-Test/.texttest/tmp/netedit.gui.3_from_08May082111.1560/netedit.gui/netElements/junctions/create/two_way\additionals.xml"/>
        <additionals-output value="C:/Users/SUMO-Test/.texttest/tmp/netedit.gui.3_from_08May082111.1560/netedit.gui/netElements/junctions/create/two_way\additionals.xml"/>
        <route-files value="C:/Users/SUMO-Test/.texttest/tmp/netedit.gui.3_from_08May082111.1560/netedit.gui/netElements/junctions/create/two_way\routes.xml"/>
        <demandelements-output value="C:/Users/SUMO-Test/.texttest/tmp/netedit.gui.3_from_08May082111.1560/netedit.gui/netElements/junctions/create/two_way\routes.xml"/>
    </netedit>

    <visualisation>
        <gui-settings-file value="C:/Users/SUMO-Test/.texttest/tmp/netedit.gui.3_from_08May082111.1560/netedit.gui/netElements/junctions/create/two_way\gui-settings.xml"/>
        <window-size value="700,500"/>
        <window-pos value="50,50"/>
        <gui-testing value="true"/>
        <gui-testing-debug value="true"/>
        <gui-testing-debug-gl value="true"/>
    </visualisation>

    <report>
        <no-warnings value="true"/>
        <error-log value="C:/Users/SUMO-Test/.texttest/tmp/netedit.gui.3_from_08May082111.1560/netedit.gui/netElements/junctions/create/two_way\log.txt"/>
    </report>

</configuration>
-->

<net version="1.3" junctionCornerDetail="5" limitTurnSpeed="5.50" xmlns:xsi="http://www.w3.org/2001/XMLSchema-instance" xsi:noNamespaceSchemaLocation="http://sumo.dlr.de/xsd/net_file.xsd">

    <location netOffset="0.00,0.00" convBoundary="76.00,86.00,95.00,86.00" origBoundary="10000000000.00,10000000000.00,-10000000000.00,-10000000000.00" projParameter="!"/>

    <edge id="-gneE0" from="gneJ1" to="gneJ0" priority="-1">
        <lane id="-gneE0_0" index="0" speed="13.89" length="19.00" shape="95.00,87.60 76.00,87.60"/>
    </edge>
    <edge id="gneE0" from="gneJ0" to="gneJ1" priority="-1">
        <lane id="gneE0_0" index="0" speed="13.89" length="19.00" shape="76.00,84.40 95.00,84.40"/>
    </edge>

    <junction id="gneJ0" type="dead_end" x="76.00" y="86.00" incLanes="-gneE0_0" intLanes="" shape="76.00,86.00 76.00,89.20 76.00,86.00"/>
    <junction id="gneJ1" type="dead_end" x="95.00" y="86.00" incLanes="gneE0_0" intLanes="" shape="95.00,86.00 95.00,82.80 95.00,86.00"/>

</net>
