<?xml version="1.0" encoding="UTF-8"?>

<!-- generated on 2023-02-16 16:03:18 by Eclipse SUMO netedit Version v1_16_0+0359-c8890ea5e3d
-->

<additional xmlns:xsi="http://www.w3.org/2001/XMLSchema-instance" xsi:noNamespaceSchemaLocation="http://sumo.dlr.de/xsd/additional_file.xsd">
    <!-- RouteProbes -->
    <routeProbe id="RouteProbeA" begin="0.00" period="3600.00" edge="center0" file="RouteProbeA.xml"/>
    <routeProbe id="RouteProbeB" begin="0.00" period="3600.00" edge="center0" file="RouteProbeB.xml"/>
    <routeProbe id="customRouteProbeName" begin="0.00" period="3600.00" edge="center0" file="RouteProbeB.xml"/>
    <!-- Calibrators -->
    <calibrator id="calibratorA" edge="center0" pos="10.00" period="30.00" name="NameA" output="fileA.txt" routeProbe="RouteProbeA">
        <param key="KeyA1" value="valueA1"/>
        <param key="KeyA2" value="valueA3"/>
        <param key="KeyA3" value="valueA2"/>
    </calibrator>
    <calibrator id="calibratorB" edge="center1" pos="10.00" period="40.00" name="NameB" output="fileB.txt" routeProbe="RouteProbeB">
        <param key="KeyB1" value="valueB1"/>
        <param key="KeyB2" value="valueB3"/>
        <param key="KeyB3" value="valueB2"/>
    </calibrator>
</additional>
