<edges>
	<edge id="1" from="0" to="1" numLanes="2" speed="28."/>
</edges>
