<?xml version="1.0"?>

<!-- generated on Mon May 10 15:40:18 2010 by SUMO sumo Version dev-SVN-r8744
<configuration>

    <input>
        <net-file value="net.net.xml"/>
        <route-files value="input_routes.rou.xml"/>
        <additional-files value="input_additional.add.xml"/>
    </input>

    <time>
        <begin value="100"/>
        <end value="200"/>
    </time>

    <report>
        <no-duration-log value="true"/>
        <no-step-log value="true"/>
    </report>

</configuration>
-->

<tls-switch-states>
    <tlsstate time="100.00" id="0" programID="2" phase="0" state="GGggrrrrGGggrrrr"/>
    <tlsstate time="113.00" id="0" programID="2" phase="1" state="yyggrrrryyggrrrr"/>
    <tlsstate time="117.00" id="0" programID="2" phase="2" state="rrGGrrrrrrGGrrrr"/>
    <tlsstate time="120.00" id="0" programID="2" phase="3" state="rryyrrrrrryyrrrr"/>
    <tlsstate time="124.00" id="0" programID="2" phase="4" state="rrrrGGggrrrrGGgg"/>
    <tlsstate time="144.00" id="0" programID="2" phase="5" state="rrrryyggrrrryygg"/>
    <tlsstate time="148.00" id="0" programID="2" phase="6" state="rrrrrrGGrrrrrrGG"/>
    <tlsstate time="151.00" id="0" programID="2" phase="7" state="rrrrrryyrrrrrryy"/>
    <tlsstate time="155.00" id="0" programID="2" phase="0" state="GGggrrrrGGggrrrr"/>
    <tlsstate time="175.00" id="0" programID="2" phase="1" state="yyggrrrryyggrrrr"/>
    <tlsstate time="179.00" id="0" programID="2" phase="2" state="rrGGrrrrrrGGrrrr"/>
    <tlsstate time="182.00" id="0" programID="2" phase="3" state="rryyrrrrrryyrrrr"/>
    <tlsstate time="186.00" id="0" programID="2" phase="4" state="rrrrGGggrrrrGGgg"/>
</tls-switch-states>
