<?xml version="1.0" encoding="UTF-8"?>

<!-- generated on 2022-01-24 09:44:08 by Eclipse SUMO netedit Version v1_11_0+1406-7e5d074504a
<configuration xmlns:xsi="http://www.w3.org/2001/XMLSchema-instance" xsi:noNamespaceSchemaLocation="http://sumo.dlr.de/xsd/netconvertConfiguration.xsd">

    <input>
        <sumo-net-file value="C:\Users\palva\.texttest\tmp\netedit.gui.24Jan093844.2296\netedit.gui\additionalElements\detentry\inspect\friendlypos\input_net.net.xml"/>
    </input>

    <output>
        <output-file value="C:\Users\palva\.texttest\tmp\netedit.gui.24Jan093844.2296\netedit.gui\additionalElements\detentry\inspect\friendlypos\net.net.xml"/>
    </output>

    <processing>
        <geometry.min-radius.fix.railways value="false"/>
        <geometry.max-grade.fix value="false"/>
        <offset.disable-normalization value="true"/>
        <lefthand value="false"/>
    </processing>

    <junctions>
        <no-turnarounds value="true"/>
        <junctions.corner-detail value="5"/>
        <junctions.limit-turn-speed value="5.5"/>
        <rectangular-lane-cut value="false"/>
    </junctions>

    <pedestrian>
        <walkingareas value="false"/>
    </pedestrian>

    <netedit>
        <additional-files value="C:\Users\palva\.texttest\tmp\netedit.gui.24Jan093844.2296\netedit.gui\additionalElements\detentry\inspect\friendlypos\additionals.xml"/>
        <additionals-output value="C:\Users\palva\.texttest\tmp\netedit.gui.24Jan093844.2296\netedit.gui\additionalElements\detentry\inspect\friendlypos\additionals.xml"/>
        <route-files value="C:\Users\palva\.texttest\tmp\netedit.gui.24Jan093844.2296\netedit.gui\additionalElements\detentry\inspect\friendlypos\routes.xml"/>
        <demandelements-output value="C:\Users\palva\.texttest\tmp\netedit.gui.24Jan093844.2296\netedit.gui\additionalElements\detentry\inspect\friendlypos\routes.xml"/>
        <data-files value="C:\Users\palva\.texttest\tmp\netedit.gui.24Jan093844.2296\netedit.gui\additionalElements\detentry\inspect\friendlypos\datas.xml"/>
        <dataelements-output value="C:\Users\palva\.texttest\tmp\netedit.gui.24Jan093844.2296\netedit.gui\additionalElements\detentry\inspect\friendlypos\datas.xml"/>
    </netedit>

    <visualisation>
        <gui-settings-file value="C:\Users\palva\.texttest\tmp\netedit.gui.24Jan093844.2296\netedit.gui\additionalElements\detentry\inspect\friendlypos\gui-settings.xml"/>
        <window-size value="936,697"/>
        <window-pos value="50,50"/>
        <gui-testing value="true"/>
        <gui-testing-debug value="true"/>
        <gui-testing.setting-output value="C:\Users\palva\.texttest\tmp\netedit.gui.24Jan093844.2296\netedit.gui\additionalElements\detentry\inspect\friendlypos\guisettingsoutput.xml"/>
    </visualisation>

    <report>
        <no-warnings value="true"/>
        <aggregate-warnings value="5"/>
        <error-log value="C:\Users\palva\.texttest\tmp\netedit.gui.24Jan093844.2296\netedit.gui\additionalElements\detentry\inspect\friendlypos\log.txt"/>
    </report>

</configuration>
-->

<additional xmlns:xsi="http://www.w3.org/2001/XMLSchema-instance" xsi:noNamespaceSchemaLocation="http://sumo.dlr.de/xsd/additional_file.xsd">
    <e3Detector id="e3_0" pos="22.00,5.00" freq="300.00" file="e3_0.xml">
        <detEntry lane="gneE0_0" pos="20.00" friendlyPos="1"/>
        <detExit lane="gneE0_0" pos="28.00"/>
    </e3Detector>
</additional>
