<?xml version="1.0" encoding="UTF-8"?>

<!-- generated on Mon Sep  7 15:10:04 2020 by Eclipse SUMO duarouter Version v1_6_0+1978-56e78ae17a
This data file and the accompanying materials
are made available under the terms of the Eclipse Public License v2.0
which accompanies this distribution, and is available at
http://www.eclipse.org/legal/epl-v20.html
SPDX-License-Identifier: EPL-2.0
<configuration xmlns:xsi="http://www.w3.org/2001/XMLSchema-instance" xsi:noNamespaceSchemaLocation="http://sumo.dlr.de/xsd/duarouterConfiguration.xsd">

    <input>
        <net-file value="input_net.net.xml"/>
        <route-files value="input_routes.rou.xml"/>
    </input>

    <output>
        <output-file value="routes.rou.xml"/>
        <write-license value="true"/>
        <alternatives-output value="routes.rou.alt.xml"/>
    </output>

    <report>
        <xml-validation value="never"/>
        <xml-validation.routes value="never"/>
        <ignore-errors value="true"/>
        <no-step-log value="true"/>
    </report>

</configuration>
-->

<routes xmlns:xsi="http://www.w3.org/2001/XMLSchema-instance" xsi:noNamespaceSchemaLocation="http://sumo.dlr.de/xsd/routes_file.xsd">
    <vType id="t0" vClass="passenger"/>
    <vehicle id="1" type="t0" depart="0.00">
        <routeDistribution last="0">
            <route cost="17.93" probability="1.00000000" edges="end"/>
        </routeDistribution>
    </vehicle>
    <vehicle id="2" type="t0" depart="0.00">
        <routeDistribution last="1">
            <route cost="35.87" probability="0.50835178" edges="absBeg end"/>
            <route cost="107.80" probability="0.49164822" edges="absBeg middle end"/>
        </routeDistribution>
    </vehicle>
</routes>
