<?xml version="1.0" encoding="UTF-8"?>

<!-- generated on 2022-04-01 10:22:25 by Eclipse SUMO netedit Version v1_12_0+1841-068b2920b5d
-->

<routes xmlns:xsi="http://www.w3.org/2001/XMLSchema-instance" xsi:noNamespaceSchemaLocation="http://sumo.dlr.de/xsd/routes_file.xsd">
    <!-- Routes -->
    <route id="r_0" edges="gneE2 gneE4 gneE5" color="139,131,120"/>
    <route id="r_1" edges="gneE2 gneE4 gneE5" color="120,20,30"/>
    <route id="r_2" edges="gneE2 gneE4 gneE5" color="blue"/>
</routes>
