<?xml version="1.0" encoding="UTF-8"?>

<!-- generated on 2025-02-05 12:30:06 by Eclipse SUMO netedit Version 1.21.0
<neteditConfiguration xmlns:xsi="http://www.w3.org/2001/XMLSchema-instance" xsi:noNamespaceSchemaLocation="http://sumo.dlr.de/xsd/neteditConfiguration.xsd">

    <input>
        <sumo-net-file value="/localdata1/debug/16036/net3.net.xml"/>
    </input>

    <processing>
        <geometry.min-radius.fix.railways value="false"/>
        <geometry.max-grade.fix value="false"/>
        <offset.disable-normalization value="true"/>
        <lefthand value="0"/>
    </processing>

    <junctions>
        <no-turnarounds value="true"/>
        <junctions.corner-detail value="5"/>
        <junctions.limit-turn-speed value="5.50"/>
        <rectangular-lane-cut value="0"/>
    </junctions>

    <pedestrian>
        <walkingareas value="0"/>
    </pedestrian>

</neteditConfiguration>
-->

<edges version="1.20" xmlns:xsi="http://www.w3.org/2001/XMLSchema-instance" xsi:noNamespaceSchemaLocation="http://sumo.dlr.de/xsd/edges_file.xsd">
    <edge id="E0" from="J0" to="J1" priority="-1" numLanes="2" speed="27.78"/>
    <edge id="E1" from="J1" to="J2" priority="-1" numLanes="3" speed="27.78">
        <lane index="0" acceleration="1"/>
        <lane index="1" changeRight="authority"/>
        <lane index="2"/>
    </edge>
    <edge id="E2" from="J2" to="J3" priority="-1" numLanes="2" speed="27.78"/>
    <edge id="E3" from="J4" to="J1" priority="-1" numLanes="1" speed="27.78"/>
</edges>
