<?xml version="1.0" encoding="UTF-8"?>

<!-- generated on Tue Sep 11 17:52:53 2018 by Eclipse SUMO Version v1_0_0+0121-aa16545
This data file and the accompanying materials
are made available under the terms of the Eclipse Public License v2.0
which accompanies this distribution, and is available at
http://www.eclipse.org/legal/epl-v20.html
SPDX-License-Identifier: EPL-2.0
<configuration xmlns:xsi="http://www.w3.org/2001/XMLSchema-instance" xsi:noNamespaceSchemaLocation="http://sumo.dlr.de/xsd/sumoConfiguration.xsd">

    <input>
        <net-file value="net.net.xml"/>
        <route-files value="input_routes.rou.xml"/>
    </input>

    <output>
        <write-license value="true"/>
        <lanechange-output value="lanechanges.xml"/>
    </output>

    <processing>
        <default.speeddev value="0"/>
    </processing>

    <report>
        <xml-validation value="never"/>
        <no-step-log value="true"/>
    </report>

</configuration>
-->

<lanechanges>
    <change id="overtaking" type="emergency" time="66.00" from="VODUGES_beg_0" to="-VODUGES_beg_0" dir="1" speed="13.53" pos="826.83" reason="speedGain" leaderGap="None" leaderSecureGap="None" followerGap="None" followerSecureGap="None" origLeaderGap="18.15" origLeaderSecureGap="27.11"/>
    <change id="overtaking" type="emergency" time="85.00" from="-VODUGES_beg_0" to="VODUGES_beg_0" dir="-1" speed="13.89" pos="921.12" reason="keepRight" leaderGap="None" leaderSecureGap="None" followerGap="72.38" followerSecureGap="0.00" origLeaderGap="None" origLeaderSecureGap="None"/>
</lanechanges>
