<?xml version="1.0" encoding="UTF-8"?>

<!-- generated on 2024-06-15 08:59:38 by Eclipse SUMO netgenerate Version v1_20_0+0555-fbf9c930d35
This data file and the accompanying materials
are made available under the terms of the Eclipse Public License v2.0
which accompanies this distribution, and is available at
http://www.eclipse.org/legal/epl-v20.html
This file may also be made available under the following Secondary
Licenses when the conditions for such availability set forth in the Eclipse
Public License 2.0 are satisfied: GNU General Public License, version 2
or later which is available at
https://www.gnu.org/licenses/old-licenses/gpl-2.0-standalone.html
SPDX-License-Identifier: EPL-2.0 OR GPL-2.0-or-later
-->

<netgenerateConfiguration xmlns:xsi="http://www.w3.org/2001/XMLSchema-instance" xsi:noNamespaceSchemaLocation="http://sumo.dlr.de/xsd/netgenerateConfiguration.xsd">

    <random_network>
        <rand value="true"/>
        <rand.iterations value="20"/>
        <rand.grid value="true"/>
    </random_network>

    <output>
        <write-license value="true"/>
    </output>

    <processing>
        <turn-lanes value="1"/>
        <fringe.guess value="true"/>
    </processing>

    <junctions>
        <no-turnarounds.except-turnlane value="true"/>
        <no-turnarounds.fringe value="true"/>
    </junctions>

</netgenerateConfiguration>
