<?xml version="1.0" encoding="UTF-8"?>

<!-- generated on Wed May  6 14:37:58 2020 by Eclipse SUMO Version v1_6_0+0116-fc17f5a0a5
This data file and the accompanying materials
are made available under the terms of the Eclipse Public License v2.0
which accompanies this distribution, and is available at
http://www.eclipse.org/legal/epl-v20.html
SPDX-License-Identifier: EPL-2.0
<configuration xmlns:xsi="http://www.w3.org/2001/XMLSchema-instance" xsi:noNamespaceSchemaLocation="http://sumo.dlr.de/xsd/sumoConfiguration.xsd">

    <input>
        <net-file value="net.net.xml"/>
        <route-files value="input_routes.rou.xml"/>
    </input>

    <output>
        <write-license value="true"/>
        <fcd-output value="fcd.xml"/>
        <railsignal-block-output value="railsignal_blocks.xml"/>
    </output>

    <time>
        <begin value="16250"/>
        <end value="16700"/>
    </time>

    <processing>
        <default.speeddev value="0"/>
        <pedestrian.model value="nonInteracting"/>
    </processing>

    <report>
        <xml-validation value="never"/>
        <duration-log.disable value="true"/>
        <no-step-log value="true"/>
    </report>

    <mesoscopic>
        <mesosim value="true"/>
    </mesoscopic>

</configuration>
-->

<railsignal-block-output>
    <railSignal id="cluster_gneJ19_gneJ21">
        <link linkIndex="0" from="-gneE16_0" to="gneE15_0">
            <driveWay edges="gneE15">
                <forward lanes="gneE15_0"/>
                <bidi lanes=""/>
                <flank lanes=""/>
                <conflictLinks signals="cluster_gneJ19_gneJ21_1"/>
            </driveWay>
        </link>
        <link linkIndex="1" from="gneE14_0" to="gneE16_0">
            <driveWay edges="gneE16 gneE17">
                <forward lanes="gneE16_0"/>
                <bidi lanes="-gneE16_0"/>
                <flank lanes=""/>
                <conflictLinks signals="gneJ22_0"/>
            </driveWay>
        </link>
    </railSignal>
    <railSignal id="gneJ18">
        <link linkIndex="0" from="gneE20_0" to="gneE14_0">
            <driveWay edges="gneE14">
                <forward lanes="gneE14_0"/>
                <bidi lanes=""/>
                <flank lanes=""/>
                <conflictLinks signals=""/>
            </driveWay>
        </link>
    </railSignal>
    <railSignal id="gneJ22">
        <link linkIndex="0" from="gneE18_0" to="-gneE16_0">
            <driveWay edges="-gneE16 gneE15">
                <forward lanes="-gneE16_0"/>
                <bidi lanes="gneE16_0"/>
                <flank lanes=""/>
                <conflictLinks signals="cluster_gneJ19_gneJ21_1"/>
            </driveWay>
        </link>
        <link linkIndex="1" from="gneE16_0" to="gneE17_0">
            <driveWay edges="gneE17">
                <forward lanes="gneE17_0"/>
                <bidi lanes=""/>
                <flank lanes=""/>
                <conflictLinks signals="gneJ22_0"/>
            </driveWay>
        </link>
    </railSignal>
    <railSignal id="gneJ24">
        <link linkIndex="0" from="gneE19_0" to="gneE18_0">
            <driveWay edges="gneE18">
                <forward lanes="gneE18_0"/>
                <bidi lanes=""/>
                <flank lanes=""/>
                <conflictLinks signals=""/>
            </driveWay>
        </link>
    </railSignal>
</railsignal-block-output>
