<?xml version="1.0" encoding="UTF-8"?>

<routes xmlns:xsi="http://www.w3.org/2001/XMLSchema-instance" xsi:noNamespaceSchemaLocation="http://sumo.dlr.de/xsd/routes_file.xsd">
    <route edges="gneE6 gneE0 gneE3 gneE1 gneE4 gneE2 -gneE8 -gneE6" color="yellow" id="route_0">
        <stop parkingArea="reverseInArea" duration="200.00"/>
    </route>
    <route edges="gneE6 gneE0 gneE9 gneE2 -gneE8 -gneE6" color="yellow" id="route_1">
        <stop parkingArea="driveInArea" duration="200.00"/>
    </route>
    <vehicle id="vehicle_0" depart="0.00" route="route_0"/>
    <vehicle id="vehicle_1" depart="0.00" color="red" route="route_0"/>
    <vehicle id="vehicle_2" depart="0.00" color="cyan" route="route_0"/>
    <vehicle id="vehicle_3" depart="0.00" color="yellow" route="route_0"/>
    <vehicle id="vehicle_4" depart="0.00" color="red" route="route_0"/>
    <vehicle id="vehicle_5" depart="0.00" color="cyan" route="route_0"/>
</routes>
