<additional>
    <timed_event type="SaveTLSSwitchTimes" source="0" dest="tls_switch.xml"/>
</additional>