<additional>
    <timedEvent type="SaveTLSSwitchTimes" source="0" dest="tls_switch.xml"/>
</additional>