<additional xmlns:xsi="http://www.w3.org/2001/XMLSchema-instance" xsi:noNamespaceSchemaLocation="http://sumo-sim.org/xsd/additional_file.xsd">
    <timedEvent type="SaveTLSSwitchTimes" source="0" dest="tls_switch.xml"/>
</additional>