<?xml version="1.0"?>

<!-- generated on 12/28/08 15:31:45 by SUMO sumo Version dev-SVN-r6499
<configuration>

   <input>
      <net-file>net.net.xml</net-file>
      <route-files>input_routes.rou.xml</route-files>
      <additional-files>input_additional.add.xml</additional-files>
   </input>

   <time>
      <begin>0</begin>
      <end>200</end>
   </time>

   <processing>
      <no-duration-log>true</no-duration-log>
      <no-step-log>true</no-step-log>
   </processing>

</configuration>
-->

<tls-switches>
   <tlsswitch tls="0" subid="0" fromLane="4si_0" toLane="1o_0" begin="0" end="31" duration="31"/>
   <tlsswitch tls="0" subid="0" fromLane="4si_1" toLane="3o_0" begin="0" end="31" duration="31"/>
   <tlsswitch tls="0" subid="0" fromLane="3si_0" toLane="2o_0" begin="0" end="31" duration="31"/>
   <tlsswitch tls="0" subid="0" fromLane="3si_1" toLane="4o_0" begin="0" end="31" duration="31"/>
   <tlsswitch tls="0" subid="0" fromLane="4si_2" toLane="2o_0" begin="0" end="41" duration="41"/>
   <tlsswitch tls="0" subid="0" fromLane="4si_2" toLane="4o_0" begin="0" end="41" duration="41"/>
   <tlsswitch tls="0" subid="0" fromLane="3si_2" toLane="1o_0" begin="0" end="41" duration="41"/>
   <tlsswitch tls="0" subid="0" fromLane="3si_2" toLane="3o_0" begin="0" end="41" duration="41"/>
   <tlsswitch tls="0" subid="0" fromLane="2si_0" toLane="4o_0" begin="45" end="76" duration="31"/>
   <tlsswitch tls="0" subid="0" fromLane="2si_1" toLane="1o_0" begin="45" end="76" duration="31"/>
   <tlsswitch tls="0" subid="0" fromLane="1si_0" toLane="3o_0" begin="45" end="76" duration="31"/>
   <tlsswitch tls="0" subid="0" fromLane="1si_1" toLane="2o_0" begin="45" end="76" duration="31"/>
   <tlsswitch tls="0" subid="0" fromLane="2si_2" toLane="3o_0" begin="45" end="86" duration="41"/>
   <tlsswitch tls="0" subid="0" fromLane="2si_2" toLane="2o_0" begin="45" end="86" duration="41"/>
   <tlsswitch tls="0" subid="0" fromLane="1si_2" toLane="4o_0" begin="45" end="86" duration="41"/>
   <tlsswitch tls="0" subid="0" fromLane="1si_2" toLane="1o_0" begin="45" end="86" duration="41"/>
   <tlsswitch tls="0" subid="0" fromLane="4si_0" toLane="1o_0" begin="90" end="121" duration="31"/>
   <tlsswitch tls="0" subid="0" fromLane="4si_1" toLane="3o_0" begin="90" end="121" duration="31"/>
   <tlsswitch tls="0" subid="0" fromLane="3si_0" toLane="2o_0" begin="90" end="121" duration="31"/>
   <tlsswitch tls="0" subid="0" fromLane="3si_1" toLane="4o_0" begin="90" end="121" duration="31"/>
   <tlsswitch tls="0" subid="0" fromLane="4si_2" toLane="2o_0" begin="90" end="131" duration="41"/>
   <tlsswitch tls="0" subid="0" fromLane="4si_2" toLane="4o_0" begin="90" end="131" duration="41"/>
   <tlsswitch tls="0" subid="0" fromLane="3si_2" toLane="1o_0" begin="90" end="131" duration="41"/>
   <tlsswitch tls="0" subid="0" fromLane="3si_2" toLane="3o_0" begin="90" end="131" duration="41"/>
   <tlsswitch tls="0" subid="0" fromLane="2si_0" toLane="4o_0" begin="135" end="166" duration="31"/>
   <tlsswitch tls="0" subid="0" fromLane="2si_1" toLane="1o_0" begin="135" end="166" duration="31"/>
   <tlsswitch tls="0" subid="0" fromLane="1si_0" toLane="3o_0" begin="135" end="166" duration="31"/>
   <tlsswitch tls="0" subid="0" fromLane="1si_1" toLane="2o_0" begin="135" end="166" duration="31"/>
   <tlsswitch tls="0" subid="0" fromLane="2si_2" toLane="3o_0" begin="135" end="176" duration="41"/>
   <tlsswitch tls="0" subid="0" fromLane="2si_2" toLane="2o_0" begin="135" end="176" duration="41"/>
   <tlsswitch tls="0" subid="0" fromLane="1si_2" toLane="4o_0" begin="135" end="176" duration="41"/>
   <tlsswitch tls="0" subid="0" fromLane="1si_2" toLane="1o_0" begin="135" end="176" duration="41"/>
</tls-switches>
