<additional xmlns:xsi="http://www.w3.org/2001/XMLSchema-instance" xsi:noNamespaceSchemaLocation="http://sumo-sim.org/xsd/additional_file.xsd">

	<laneData id="dump_300" type="hbefa" freq="300" file="aggregated_300.xml"/>
	<laneData id="dump_900" type="hbefa" freq="900" file="aggregated_900.xml"/>

</additional>
