<?xml version="1.0" encoding="UTF-8"?>

<!-- generated on 2023-07-11 09:29:18 by Eclipse SUMO netedit Version v1_18_0+0243-ec3d052f7e8
-->

<routes xmlns:xsi="http://www.w3.org/2001/XMLSchema-instance" xsi:noNamespaceSchemaLocation="http://sumo.dlr.de/xsd/routes_file.xsd">
    <!-- VTypes -->
    <vType id="v1" sigma="0"/>
    <vType id="v2" sigma="0"/>
    <vTypeDistribution id="vt1" vTypes="v1 v2" probabilities="1.00 1.00"/>
    <!-- Vehicles, persons and containers (sorted by depart) -->
    <vehicle id="1" type="vt1" depart="0.00">
        <route edges="Edge0 Edge1 Edge2"/>
    </vehicle>
</routes>
