<?xml version="1.0" encoding="UTF-8"?>

<!-- generated on 2021-11-08 08:38:12 by Eclipse SUMO sumo Version v1_10_0+2008-b67a541
<configuration xmlns:xsi="http://www.w3.org/2001/XMLSchema-instance" xsi:noNamespaceSchemaLocation="http://sumo.dlr.de/xsd/sumoConfiguration.xsd">

    <input>
        <net-file value="input_net.net.xml"/>
        <route-files value="input_routes.rou.xml"/>
    </input>

    <output>
        <lanechange-output value="lanechanges.xml"/>
    </output>

    <processing>
        <lateral-resolution value="0.8"/>
    </processing>

    <report>
        <no-step-log value="true"/>
    </report>

    <traci_server>
        <remote-port value="53416"/>
    </traci_server>

</configuration>
-->

<lanechanges>
</lanechanges>
