<?xml version="1.0" encoding="UTF-8"?>

<!-- generated on Tue Dec  4 15:59:25 2018 by Eclipse SUMO netconvert Version v1_0_0+1208-d42a3cd999
<configuration xmlns:xsi="http://www.w3.org/2001/XMLSchema-instance" xsi:noNamespaceSchemaLocation="http://sumo.dlr.de/xsd/netconvertConfiguration.xsd">

    <input>
        <node-files value=".\complex\sumo\extended\rerouter\input_nodes.nod.xml"/>
        <edge-files value=".\complex\sumo\extended\rerouter\input_edges.edg.xml"/>
    </input>

    <output>
        <output-file value=".\complex\sumo\extended\rerouter\three_split.net.xml"/>
    </output>

    <junctions>
        <no-turnarounds value="true"/>
    </junctions>

    <report>
        <verbose value="true"/>
    </report>

</configuration>
-->

<net version="1.0" junctionCornerDetail="5" limitTurnSpeed="5.50" xmlns:xsi="http://www.w3.org/2001/XMLSchema-instance" xsi:noNamespaceSchemaLocation="http://sumo.dlr.de/xsd/net_file.xsd">

    <location netOffset="500.00,500.00" convBoundary="0.00,0.00,3000.00,1000.00" origBoundary="-500.00,-500.00,2500.00,500.00" projParameter="!"/>

    <edge id=":absBeg_0" function="internal">
        <lane id=":absBeg_0_0" index="0" speed="27.80" length="0.10" shape="500.00,498.40 500.00,498.40"/>
    </edge>
    <edge id=":absEnd_0" function="internal">
        <lane id=":absEnd_0_0" index="0" speed="27.80" length="0.10" shape="2500.00,498.40 2500.00,498.40"/>
    </edge>
    <edge id=":beg_0" function="internal">
        <lane id=":beg_0_0" index="0" speed="6.51" length="9.03" shape="992.80,498.40 995.25,498.05 997.00,497.00 998.05,495.25 998.40,492.80"/>
    </edge>
    <edge id=":beg_1" function="internal">
        <lane id=":beg_1_0" index="0" speed="27.80" length="14.40" shape="992.80,498.40 1007.20,498.40"/>
    </edge>
    <edge id=":beg_2" function="internal">
        <lane id=":beg_2_0" index="0" speed="7.33" length="11.73" shape="992.80,498.40 996.65,498.75 999.40,499.80 1001.05,501.55 1001.60,504.00"/>
    </edge>
    <edge id=":begleft_0" function="internal">
        <lane id=":begleft_0_0" index="0" speed="3.90" length="2.58" shape="1001.60,996.80 1001.70,997.50 1002.00,998.00 1002.50,998.30 1003.20,998.40"/>
    </edge>
    <edge id=":begright_0" function="internal">
        <lane id=":begright_0_0" index="0" speed="3.90" length="2.58" shape="998.40,0.00 998.50,-0.70 998.80,-1.20 999.30,-1.50 1000.00,-1.60"/>
    </edge>
    <edge id=":end_0" function="internal">
        <lane id=":end_0_0" index="0" speed="7.33" length="11.73" shape="1998.40,504.00 1998.95,501.55 2000.60,499.80 2003.35,498.75 2007.20,498.40"/>
    </edge>
    <edge id=":end_1" function="internal">
        <lane id=":end_1_0" index="0" speed="6.51" length="9.03" shape="2001.60,492.80 2001.95,495.25 2003.00,497.00 2004.75,498.05 2007.20,498.40"/>
    </edge>
    <edge id=":end_2" function="internal">
        <lane id=":end_2_0" index="0" speed="27.80" length="14.40" shape="1992.80,498.40 2007.20,498.40"/>
    </edge>
    <edge id=":endleft_0" function="internal">
        <lane id=":endleft_0_0" index="0" speed="3.90" length="2.58" shape="1996.80,998.40 1997.50,998.30 1998.00,998.00 1998.30,997.50 1998.40,996.80"/>
    </edge>
    <edge id=":endright_0" function="internal">
        <lane id=":endright_0_0" index="0" speed="3.90" length="2.58" shape="2000.00,-1.60 2000.70,-1.50 2001.20,-1.20 2001.50,-0.70 2001.60,0.00"/>
    </edge>

    <edge id="beg" from="absBeg" to="beg" priority="-1">
        <lane id="beg_0" index="0" speed="27.80" length="492.80" shape="500.00,498.40 992.80,498.40"/>
    </edge>
    <edge id="beg2left" from="beg" to="begleft" priority="-1">
        <lane id="beg2left_0" index="0" speed="13.90" length="492.80" shape="1001.60,504.00 1001.60,996.80"/>
    </edge>
    <edge id="beg2right" from="beg" to="begright" priority="-1">
        <lane id="beg2right_0" index="0" speed="13.90" length="492.80" shape="998.40,492.80 998.40,0.00"/>
    </edge>
    <edge id="end" from="end" to="absEnd" priority="-1">
        <lane id="end_0" index="0" speed="27.80" length="492.80" shape="2007.20,498.40 2500.00,498.40"/>
    </edge>
    <edge id="left" from="begleft" to="endleft" priority="-1">
        <lane id="left_0" index="0" speed="13.90" length="993.60" shape="1003.20,998.40 1996.80,998.40"/>
    </edge>
    <edge id="left2end" from="endleft" to="end" priority="-1">
        <lane id="left2end_0" index="0" speed="13.90" length="492.80" shape="1998.40,996.80 1998.40,504.00"/>
    </edge>
    <edge id="middle" from="beg" to="end" priority="-1">
        <lane id="middle_0" index="0" speed="27.80" length="985.60" shape="1007.20,498.40 1992.80,498.40"/>
    </edge>
    <edge id="preBeg" from="preBeg" to="absBeg" priority="-1">
        <lane id="preBeg_0" index="0" speed="27.80" length="500.00" shape="0.00,498.40 500.00,498.40"/>
    </edge>
    <edge id="rend" from="absEnd" to="rabsEnd" priority="-1">
        <lane id="rend_0" index="0" speed="27.80" length="500.00" shape="2500.00,498.40 3000.00,498.40"/>
    </edge>
    <edge id="right" from="begright" to="endright" priority="-1">
        <lane id="right_0" index="0" speed="13.90" length="1000.00" shape="1000.00,-1.60 2000.00,-1.60"/>
    </edge>
    <edge id="right2end" from="endright" to="end" priority="-1">
        <lane id="right2end_0" index="0" speed="13.90" length="492.80" shape="2001.60,0.00 2001.60,492.80"/>
    </edge>

    <junction id="absBeg" type="priority" x="500.00" y="500.00" incLanes="preBeg_0" intLanes=":absBeg_0_0" shape="500.00,500.00 500.00,496.80 500.00,500.00">
        <request index="0" response="0" foes="0" cont="0"/>
    </junction>
    <junction id="absEnd" type="priority" x="2500.00" y="500.00" incLanes="end_0" intLanes=":absEnd_0_0" shape="2500.00,500.00 2500.00,496.80 2500.00,500.00">
        <request index="0" response="0" foes="0" cont="0"/>
    </junction>
    <junction id="beg" type="priority" x="1000.00" y="500.00" incLanes="beg_0" intLanes=":beg_0_0 :beg_1_0 :beg_2_0" shape="1000.00,504.00 1003.20,504.00 1003.64,501.78 1004.20,501.00 1004.98,500.44 1005.98,500.11 1007.20,500.00 1007.20,496.80 1005.00,496.69 1003.20,496.36 1001.80,495.80 1000.80,495.02 1000.20,494.02 1000.00,492.80 996.80,492.80 996.36,495.02 995.80,495.80 995.02,496.36 994.02,496.69 992.80,496.80 992.80,500.00 995.00,500.11 996.80,500.44 998.20,501.00 999.20,501.78 999.80,502.78">
        <request index="0" response="000" foes="000" cont="0"/>
        <request index="1" response="000" foes="000" cont="0"/>
        <request index="2" response="000" foes="000" cont="0"/>
    </junction>
    <junction id="begleft" type="priority" x="1000.00" y="1000.00" incLanes="beg2left_0" intLanes=":begleft_0_0" shape="1003.20,1000.00 1003.20,996.80 1000.00,996.80 1000.36,998.58 1000.80,999.20 1001.42,999.64 1002.22,999.91">
        <request index="0" response="0" foes="0" cont="0"/>
    </junction>
    <junction id="begright" type="priority" x="1000.00" y="0.00" incLanes="beg2right_0" intLanes=":begright_0_0" shape="996.80,0.00 1000.00,0.00 1000.00,-3.20 998.22,-2.84 997.60,-2.40 997.16,-1.78 996.89,-0.98">
        <request index="0" response="0" foes="0" cont="0"/>
    </junction>
    <junction id="end" type="priority" x="2000.00" y="500.00" incLanes="left2end_0 right2end_0 middle_0" intLanes=":end_0_0 :end_1_0 :end_2_0" shape="1996.80,504.00 2000.00,504.00 2000.80,501.78 2001.80,501.00 2003.20,500.44 2005.00,500.11 2007.20,500.00 2007.20,496.80 2004.98,496.36 2004.20,495.80 2003.64,495.02 2003.31,494.02 2003.20,492.80 2000.00,492.80 1999.20,495.02 1998.20,495.80 1996.80,496.36 1995.00,496.69 1992.80,496.80 1992.80,500.00 1995.02,500.44 1995.80,501.00 1996.36,501.78 1996.69,502.78">
        <request index="0" response="110" foes="110" cont="0"/>
        <request index="1" response="100" foes="101" cont="0"/>
        <request index="2" response="000" foes="011" cont="0"/>
    </junction>
    <junction id="endleft" type="priority" x="2000.00" y="1000.00" incLanes="left_0" intLanes=":endleft_0_0" shape="2000.00,996.80 1996.80,996.80 1996.80,1000.00 1998.58,999.64 1999.20,999.20 1999.64,998.58 1999.91,997.78">
        <request index="0" response="0" foes="0" cont="0"/>
    </junction>
    <junction id="endright" type="priority" x="2000.00" y="0.00" incLanes="right_0" intLanes=":endright_0_0" shape="2000.00,0.00 2003.20,0.00 2002.84,-1.78 2002.40,-2.40 2001.78,-2.84 2000.98,-3.11 2000.00,-3.20">
        <request index="0" response="0" foes="0" cont="0"/>
    </junction>
    <junction id="preBeg" type="dead_end" x="0.00" y="500.00" incLanes="" intLanes="" shape="0.00,500.00 0.00,496.80"/>
    <junction id="rabsEnd" type="dead_end" x="3000.00" y="500.00" incLanes="rend_0" intLanes="" shape="3000.00,496.80 3000.00,500.00"/>

    <connection from="beg" to="beg2right" fromLane="0" toLane="0" via=":beg_0_0" dir="r" state="M"/>
    <connection from="beg" to="middle" fromLane="0" toLane="0" via=":beg_1_0" dir="s" state="M"/>
    <connection from="beg" to="beg2left" fromLane="0" toLane="0" via=":beg_2_0" dir="l" state="M"/>
    <connection from="beg2left" to="left" fromLane="0" toLane="0" via=":begleft_0_0" dir="r" state="M"/>
    <connection from="beg2right" to="right" fromLane="0" toLane="0" via=":begright_0_0" dir="l" state="M"/>
    <connection from="end" to="rend" fromLane="0" toLane="0" via=":absEnd_0_0" dir="s" state="M"/>
    <connection from="left" to="left2end" fromLane="0" toLane="0" via=":endleft_0_0" dir="r" state="M"/>
    <connection from="left2end" to="end" fromLane="0" toLane="0" via=":end_0_0" dir="l" state="m"/>
    <connection from="middle" to="end" fromLane="0" toLane="0" via=":end_2_0" dir="s" state="M"/>
    <connection from="preBeg" to="beg" fromLane="0" toLane="0" via=":absBeg_0_0" dir="s" state="M"/>
    <connection from="right" to="right2end" fromLane="0" toLane="0" via=":endright_0_0" dir="l" state="M"/>
    <connection from="right2end" to="end" fromLane="0" toLane="0" via=":end_1_0" dir="r" state="m"/>

    <connection from=":absBeg_0" to="beg" fromLane="0" toLane="0" dir="s" state="M"/>
    <connection from=":absEnd_0" to="rend" fromLane="0" toLane="0" dir="s" state="M"/>
    <connection from=":beg_0" to="beg2right" fromLane="0" toLane="0" dir="r" state="M"/>
    <connection from=":beg_1" to="middle" fromLane="0" toLane="0" dir="s" state="M"/>
    <connection from=":beg_2" to="beg2left" fromLane="0" toLane="0" dir="l" state="M"/>
    <connection from=":begleft_0" to="left" fromLane="0" toLane="0" dir="r" state="M"/>
    <connection from=":begright_0" to="right" fromLane="0" toLane="0" dir="l" state="M"/>
    <connection from=":end_0" to="end" fromLane="0" toLane="0" dir="l" state="M"/>
    <connection from=":end_1" to="end" fromLane="0" toLane="0" dir="r" state="M"/>
    <connection from=":end_2" to="end" fromLane="0" toLane="0" dir="s" state="M"/>
    <connection from=":endleft_0" to="left2end" fromLane="0" toLane="0" dir="r" state="M"/>
    <connection from=":endright_0" to="right2end" fromLane="0" toLane="0" dir="l" state="M"/>

</net>
