<?xml version="1.0" encoding="UTF-8"?>

<!-- generated on 2022-10-06 09:58:43 by Eclipse SUMO netedit Version v1_14_1+1475-2a92dd1fe38
-->

<additional xmlns:xsi="http://www.w3.org/2001/XMLSchema-instance" xsi:noNamespaceSchemaLocation="http://sumo.dlr.de/xsd/additional_file.xsd">
    <!-- Routes (used in RouteProbReroutes and calibratorFlows) -->
    <route id="CRoute" edges="gneE0 gneE1"/>
    <!-- Calibrators -->
    <calibrator id="calibratorFlows" edge="gneE0" pos="20.00" period="100.00" output="calibratorFlows.txt">
        <flow type="DEFAULT_VEHTYPE" begin="-0.00" speed="10.00" route="CRoute" vehsPerHour="250.00"/>
        <flow type="DEFAULT_VEHTYPE" begin="-0.00" arrivalPosLat="-3.00" speed="10.00" route="CRoute" vehsPerHour="250.00"/>
        <flow type="DEFAULT_VEHTYPE" begin="-0.00" arrivalPosLat="7.50" speed="10.00" route="CRoute" vehsPerHour="250.00"/>
        <flow type="DEFAULT_VEHTYPE" begin="-0.00" arrivalPosLat="right" speed="10.00" route="CRoute" vehsPerHour="250.00"/>
    </calibrator>
</additional>
