<?xml version="1.0" encoding="UTF-8"?>

<!-- generated on 2024-05-24 12:07:53 by Eclipse SUMO netedit Version v1_20_0+0185-8eb777dbb9c
<configuration xmlns:xsi="http://www.w3.org/2001/XMLSchema-instance" xsi:noNamespaceSchemaLocation="http://sumo.dlr.de/xsd/neteditConfiguration.xsd">

    <input>
        <sumo-net-file value="net.net.xml"/>
    </input>

    <output>
        <output-file value="net.net.xml"/>
    </output>

    <processing>
        <geometry.min-radius.fix.railways value="false"/>
        <geometry.max-grade.fix value="false"/>
        <offset.disable-normalization value="true"/>
        <lefthand value="0"/>
    </processing>

    <junctions>
        <no-internal-links value="false"/>
        <no-turnarounds value="true"/>
        <junctions.corner-detail value="0"/>
        <junctions.limit-turn-speed value="-1.00"/>
        <rectangular-lane-cut value="0"/>
    </junctions>

    <pedestrian>
        <walkingareas value="1"/>
    </pedestrian>

</configuration>
-->

<net version="1.20" walkingareas="true" xmlns:xsi="http://www.w3.org/2001/XMLSchema-instance" xsi:noNamespaceSchemaLocation="http://sumo.dlr.de/xsd/net_file.xsd">

    <location netOffset="-493440.13,-5403519.13" convBoundary="0.00,-50.00,100.00,50.00" origBoundary="8.910698,48.784636,8.924934,48.788513" projParameter="+proj=utm +zone=32 +ellps=WGS84 +datum=WGS84 +units=m +no_defs"/>

    <edge id=":2_0" function="internal">
        <lane id=":2_0_0" index="0" disallow="pedestrian" speed="13.89" length="10.10" shape="46.50,-1.60 49.52,-1.95 51.68,-3.00 52.97,-4.75 53.40,-7.20"/>
    </edge>
    <edge id=":2_1" function="internal">
        <lane id=":2_1_0" index="0" disallow="pedestrian" speed="13.89" length="10.50" shape="46.50,-1.60 57.00,-1.60"/>
    </edge>
    <edge id=":2_c0" function="crossing" crossingEdges="beg">
        <lane id=":2_c0_0" index="0" allow="pedestrian" speed="2.78" length="3.20" width="4.00" shape="48.50,0.00 48.50,-3.20" outlineShape="46.50,0.10 46.50,-3.30 46.50,-3.20 50.50,-3.20 50.50,-0.00 46.50,0.00"/>
    </edge>
    <edge id=":2_w0" function="walkingarea">
        <lane id=":2_w0_0" index="0" allow="pedestrian" speed="2.78" length="1.58" width="4.00" shape="50.50,0.00 46.50,0.00 48.00,1.50 50.00,1.50"/>
    </edge>
    <edge id=":2_w1" function="walkingarea">
        <lane id=":2_w1_0" index="0" allow="pedestrian" speed="2.78" length="5.36" width="4.00" shape="55.00,-7.20 51.80,-7.20 46.50,-5.20 46.50,-3.20 50.50,-3.20"/>
    </edge>

    <edge id="E0" from="J0" to="2" priority="1">
        <lane id="E0_0" index="0" allow="pedestrian" speed="13.89" length="48.50" width="2.00" shape="49.00,50.00 49.00,1.50"/>
    </edge>
    <edge id="E1" from="2" to="gneJ0" priority="1" shape="55.00,0.00 55.00,-50.00">
        <lane id="E1_0" index="0" speed="13.89" length="42.80" shape="53.40,-7.20 53.40,-50.00"/>
    </edge>
    <edge id="beg" from="1" to="2" priority="1">
        <lane id="beg_0" index="0" allow="pedestrian" speed="13.89" length="46.50" width="2.00" shape="0.00,-4.20 46.50,-4.20"/>
        <lane id="beg_1" index="1" disallow="pedestrian" speed="13.89" length="46.50" shape="0.00,-1.60 46.50,-1.60"/>
    </edge>
    <edge id="end" from="2" to="3" priority="1">
        <lane id="end_0" index="0" disallow="pedestrian" speed="13.89" length="43.00" shape="57.00,-1.60 100.00,-1.60"/>
    </edge>

    <junction id="1" type="dead_end" x="0.00" y="0.00" incLanes="" intLanes="" shape="0.00,0.00 0.00,-5.20"/>
    <junction id="2" type="priority" x="50.00" y="0.00" incLanes="E0_0 beg_0 beg_1 :2_w0_0" intLanes=":2_0_0 :2_1_0 :2_c0_0" shape="48.00,1.50 50.00,1.50 57.00,0.00 57.00,-3.20 55.00,-7.20 51.80,-7.20 46.50,-5.20 46.50,0.00">
        <request index="0" response="000" foes="100" cont="0"/>
        <request index="1" response="000" foes="100" cont="0"/>
        <request index="2" response="011" foes="011" cont="0"/>
    </junction>
    <junction id="3" type="dead_end" x="100.00" y="0.00" incLanes="end_0" intLanes="" shape="100.00,-3.20 100.00,0.00"/>
    <junction id="J0" type="dead_end" x="50.00" y="50.00" incLanes="" intLanes="" shape="50.00,50.00 48.00,50.00"/>
    <junction id="gneJ0" type="dead_end" x="50.00" y="-50.00" incLanes="E1_0" intLanes="" shape="51.80,-50.00 55.00,-50.00"/>

    <connection from="beg" to="E1" fromLane="1" toLane="0" via=":2_0_0" dir="r" state="M"/>
    <connection from="beg" to="end" fromLane="1" toLane="0" via=":2_1_0" dir="s" state="M"/>

    <connection from=":2_0" to="E1" fromLane="0" toLane="0" dir="r" state="M"/>
    <connection from=":2_1" to="end" fromLane="0" toLane="0" dir="s" state="M"/>

    <connection from=":2_c0" to=":2_w1" fromLane="0" toLane="0" dir="s" state="M"/>
    <connection from=":2_w0" to=":2_c0" fromLane="0" toLane="0" dir="s" state="m"/>
    <connection from="E0" to=":2_w0" fromLane="0" toLane="0" dir="s" state="M"/>
    <connection from=":2_w1" to="E1" fromLane="0" toLane="0" dir="s" state="M"/>
    <connection from="beg" to=":2_w1" fromLane="0" toLane="0" dir="s" state="M"/>
</net>
