<?xml version="1.0" encoding="UTF-8"?>

<!-- generated on 2022-03-04 10:16:34 by Eclipse SUMO netedit Version v1_12_0+1137-e9106068858
-->

<additional xmlns:xsi="http://www.w3.org/2001/XMLSchema-instance" xsi:noNamespaceSchemaLocation="http://sumo.dlr.de/xsd/additional_file.xsd">
    <!-- Detectors -->
    <e2Detector id="e2_0" lane="gneE1_0" pos="28.00" length="10.00" freq="300.00" file="e2_0.xml" vTypes="type1 type2 type3"/>
</additional>
