<nodes xmlns:xsi='http://www.w3.org/2001/XMLSchema-instance' xsi:noNamespaceSchemaLocation='http://sumo.sf.net/xsd/nodes_file.xsd'>

	<node id="1" x="-1000" y="0"/>
	<node id="2" x="-500" y="0"/>
	<node id="2a" x="-800" y="200"/>
	<node id="3" x="0" y="0"/>
	<node id="4" x="500" y="0"/>
	<node id="4a" x="800" y="200"/>
	<node id="5" x="1000" y="0"/>

</nodes>
