<?xml version="1.0" encoding="UTF-8"?>

<!-- generated on 2021-07-01 10:46:08 by Eclipse SUMO netedit Version v1_9_2+0791-d417f99328
-->

<additional xmlns:xsi="http://www.w3.org/2001/XMLSchema-instance" xsi:noNamespaceSchemaLocation="http://sumo.dlr.de/xsd/additional_file.xsd">
    <parkingArea id="parkingArea_0" lane="gneE1_0" startPos="20.00" endPos="30.00">
        <space x="40.00" y="15.00" z="1.00" width="3.30" length="6.00"/>
        <space x="45.00" y="15.00" z="1.00" width="3.30" length="6.00" angle="-20"/>
        <space x="50.00" y="15.00" z="1.00" width="3.30" length="6.00" angle="500.00"/>
        <space x="0.00" y="-15.00" z="1.00" width="3.30" length="6.00" angle="60.00"/>
    </parkingArea>
</additional>
