<?xml version="1.0" encoding="UTF-8"?>

<!-- generated on Mon Dec 14 11:32:17 2020 by Eclipse SUMO netconvert Version v1_8_0+0240-6f1f621077
This data file and the accompanying materials
are made available under the terms of the Eclipse Public License v2.0
which accompanies this distribution, and is available at
http://www.eclipse.org/legal/epl-v20.html
SPDX-License-Identifier: EPL-2.0
<configuration xmlns:xsi="http://www.w3.org/2001/XMLSchema-instance" xsi:noNamespaceSchemaLocation="http://sumo.dlr.de/xsd/netconvertConfiguration.xsd">

    <input>
        <node-files value="input_plain.nod.xml"/>
        <edge-files value="input_plain.edg.xml"/>
        <connection-files value="input_plain.con.xml"/>
    </input>

    <output>
        <write-license value="true"/>
        <output-file value="net.net.xml"/>
    </output>

    <report>
        <xml-validation value="never"/>
        <aggregate-warnings value="5"/>
    </report>

</configuration>
-->

<net version="1.16" junctionCornerDetail="5" limitTurnSpeed="5.50" xmlns:xsi="http://www.w3.org/2001/XMLSchema-instance" xsi:noNamespaceSchemaLocation="http://sumo.dlr.de/xsd/net_file.xsd">

    <location netOffset="100.00,100.00" convBoundary="0.00,0.00,200.00,200.00" origBoundary="-10000000000.00,-10000000000.00,10000000000.00,10000000000.00" projParameter="!"/>

    <edge id=":C_0" function="internal">
        <lane id=":C_0_0" index="0" speed="12.62" length="36.84" shape="98.40,123.20 101.02,115.57 107.47,107.47 115.57,101.03 123.20,98.40"/>
    </edge>
    <edge id=":C_1" function="internal">
        <lane id=":C_1_0" index="0" speed="13.89" length="58.91" shape="117.60,76.80 112.47,86.93 100.53,100.53 86.93,112.47 76.80,117.60"/>
        <lane id=":C_1_1" index="1" speed="13.89" length="54.46" shape="114.40,76.80 109.78,86.43 98.93,98.93 86.43,109.78 76.80,114.40"/>
        <lane id=":C_1_2" index="2" speed="13.89" length="50.03" shape="111.20,76.80 107.08,85.93 97.33,97.33 85.93,107.08 76.80,111.20"/>
        <lane id=":C_1_3" index="3" speed="13.89" length="45.61" shape="108.00,76.80 104.38,85.43 95.73,95.73 85.43,104.38 76.80,108.00"/>
        <lane id=":C_1_4" index="4" speed="13.33" length="41.22" shape="104.80,76.80 101.67,84.93 94.13,94.13 84.93,101.67 76.80,104.80"/>
        <lane id=":C_1_5" index="5" speed="12.62" length="36.84" shape="101.60,76.80 98.97,84.43 92.53,92.53 84.43,98.97 76.80,101.60"/>
    </edge>
    <edge id=":E_0" function="internal">
        <lane id=":E_0_0" index="0" speed="3.65" length="4.67" shape="200.00,98.40 201.20,99.20 201.60,100.00 201.20,100.80 200.00,101.60"/>
    </edge>
    <edge id=":N_0" function="internal">
        <lane id=":N_0_0" index="0" speed="3.65" length="4.67" shape="101.60,200.00 100.80,201.20 100.00,201.60 99.20,201.20 98.40,200.00"/>
    </edge>
    <edge id=":S_0" function="internal">
        <lane id=":S_0_0" index="0" speed="3.65" length="4.67" shape="98.40,0.00 99.20,-1.20 100.00,-1.60 100.80,-1.20 101.60,0.00"/>
    </edge>
    <edge id=":W_0" function="internal">
        <lane id=":W_0_0" index="0" speed="3.65" length="4.67" shape="0.00,101.60 -1.20,100.80 -1.60,100.00 -1.20,99.20 0.00,98.40"/>
    </edge>

    <edge id="CE" from="C" to="E" priority="2">
        <lane id="CE_0" index="0" speed="13.89" length="76.80" shape="123.20,82.40 200.00,82.40"/>
        <lane id="CE_1" index="1" speed="13.89" length="76.80" shape="123.20,85.60 200.00,85.60"/>
        <lane id="CE_2" index="2" speed="13.89" length="76.80" shape="123.20,88.80 200.00,88.80"/>
        <lane id="CE_3" index="3" speed="13.89" length="76.80" shape="123.20,92.00 200.00,92.00"/>
        <lane id="CE_4" index="4" speed="13.89" length="76.80" shape="123.20,95.20 200.00,95.20"/>
        <lane id="CE_5" index="5" speed="13.89" length="76.80" shape="123.20,98.40 200.00,98.40"/>
    </edge>
    <edge id="CN" from="C" to="N" priority="2">
        <lane id="CN_0" index="0" speed="13.89" length="76.80" shape="117.60,123.20 117.60,200.00"/>
        <lane id="CN_1" index="1" speed="13.89" length="76.80" shape="114.40,123.20 114.40,200.00"/>
        <lane id="CN_2" index="2" speed="13.89" length="76.80" shape="111.20,123.20 111.20,200.00"/>
        <lane id="CN_3" index="3" speed="13.89" length="76.80" shape="108.00,123.20 108.00,200.00"/>
        <lane id="CN_4" index="4" speed="13.89" length="76.80" shape="104.80,123.20 104.80,200.00"/>
        <lane id="CN_5" index="5" speed="13.89" length="76.80" shape="101.60,123.20 101.60,200.00"/>
    </edge>
    <edge id="CS" from="C" to="S" priority="2">
        <lane id="CS_0" index="0" speed="13.89" length="76.80" shape="82.40,76.80 82.40,0.00"/>
        <lane id="CS_1" index="1" speed="13.89" length="76.80" shape="85.60,76.80 85.60,0.00"/>
        <lane id="CS_2" index="2" speed="13.89" length="76.80" shape="88.80,76.80 88.80,0.00"/>
        <lane id="CS_3" index="3" speed="13.89" length="76.80" shape="92.00,76.80 92.00,0.00"/>
        <lane id="CS_4" index="4" speed="13.89" length="76.80" shape="95.20,76.80 95.20,0.00"/>
        <lane id="CS_5" index="5" speed="13.89" length="76.80" shape="98.40,76.80 98.40,0.00"/>
    </edge>
    <edge id="CW" from="C" to="W" priority="2">
        <lane id="CW_0" index="0" speed="13.89" length="76.80" shape="76.80,117.60 0.00,117.60"/>
        <lane id="CW_1" index="1" speed="13.89" length="76.80" shape="76.80,114.40 0.00,114.40"/>
        <lane id="CW_2" index="2" speed="13.89" length="76.80" shape="76.80,111.20 0.00,111.20"/>
        <lane id="CW_3" index="3" speed="13.89" length="76.80" shape="76.80,108.00 0.00,108.00"/>
        <lane id="CW_4" index="4" speed="13.89" length="76.80" shape="76.80,104.80 0.00,104.80"/>
        <lane id="CW_5" index="5" speed="13.89" length="76.80" shape="76.80,101.60 0.00,101.60"/>
    </edge>
    <edge id="EC" from="E" to="C" priority="2">
        <lane id="EC_0" index="0" speed="13.89" length="76.80" shape="200.00,117.60 123.20,117.60"/>
        <lane id="EC_1" index="1" speed="13.89" length="76.80" shape="200.00,114.40 123.20,114.40"/>
        <lane id="EC_2" index="2" speed="13.89" length="76.80" shape="200.00,111.20 123.20,111.20"/>
        <lane id="EC_3" index="3" speed="13.89" length="76.80" shape="200.00,108.00 123.20,108.00"/>
        <lane id="EC_4" index="4" speed="13.89" length="76.80" shape="200.00,104.80 123.20,104.80"/>
        <lane id="EC_5" index="5" speed="13.89" length="76.80" shape="200.00,101.60 123.20,101.60"/>
    </edge>
    <edge id="NC" from="N" to="C" priority="2">
        <lane id="NC_0" index="0" speed="13.89" length="76.80" shape="82.40,200.00 82.40,123.20"/>
        <lane id="NC_1" index="1" speed="13.89" length="76.80" shape="85.60,200.00 85.60,123.20"/>
        <lane id="NC_2" index="2" speed="13.89" length="76.80" shape="88.80,200.00 88.80,123.20"/>
        <lane id="NC_3" index="3" speed="13.89" length="76.80" shape="92.00,200.00 92.00,123.20"/>
        <lane id="NC_4" index="4" speed="13.89" length="76.80" shape="95.20,200.00 95.20,123.20"/>
        <lane id="NC_5" index="5" speed="13.89" length="76.80" shape="98.40,200.00 98.40,123.20"/>
    </edge>
    <edge id="SC" from="S" to="C" priority="2">
        <lane id="SC_0" index="0" speed="13.89" length="76.80" shape="117.60,0.00 117.60,76.80"/>
        <lane id="SC_1" index="1" speed="13.89" length="76.80" shape="114.40,0.00 114.40,76.80"/>
        <lane id="SC_2" index="2" speed="13.89" length="76.80" shape="111.20,0.00 111.20,76.80"/>
        <lane id="SC_3" index="3" speed="13.89" length="76.80" shape="108.00,0.00 108.00,76.80"/>
        <lane id="SC_4" index="4" speed="13.89" length="76.80" shape="104.80,0.00 104.80,76.80"/>
        <lane id="SC_5" index="5" speed="13.89" length="76.80" shape="101.60,0.00 101.60,76.80"/>
    </edge>
    <edge id="WC" from="W" to="C" priority="2">
        <lane id="WC_0" index="0" speed="13.89" length="76.80" shape="0.00,82.40 76.80,82.40"/>
        <lane id="WC_1" index="1" speed="13.89" length="76.80" shape="0.00,85.60 76.80,85.60"/>
        <lane id="WC_2" index="2" speed="13.89" length="76.80" shape="0.00,88.80 76.80,88.80"/>
        <lane id="WC_3" index="3" speed="13.89" length="76.80" shape="0.00,92.00 76.80,92.00"/>
        <lane id="WC_4" index="4" speed="13.89" length="76.80" shape="0.00,95.20 76.80,95.20"/>
        <lane id="WC_5" index="5" speed="13.89" length="76.80" shape="0.00,98.40 76.80,98.40"/>
    </edge>

    <junction id="C" type="priority" x="100.00" y="100.00" incLanes="NC_0 NC_1 NC_2 NC_3 NC_4 NC_5 EC_0 EC_1 EC_2 EC_3 EC_4 EC_5 SC_0 SC_1 SC_2 SC_3 SC_4 SC_5 WC_0 WC_1 WC_2 WC_3 WC_4 WC_5" intLanes=":C_0_0 :C_1_0 :C_1_1 :C_1_2 :C_1_3 :C_1_4 :C_1_5" shape="80.80,123.20 119.20,123.20 119.64,120.98 120.20,120.20 120.98,119.64 121.98,119.31 123.20,119.20 123.20,80.80 120.98,80.36 120.20,79.80 119.64,79.02 119.31,78.02 119.20,76.80 80.80,76.80 80.36,79.02 79.80,79.80 79.02,80.36 78.02,80.69 76.80,80.80 76.80,119.20 79.02,119.64 79.80,120.20 80.36,120.98 80.69,121.98">
        <request index="0" response="0000000" foes="0000000" cont="0"/>
        <request index="1" response="0000000" foes="0000000" cont="0"/>
        <request index="2" response="0000000" foes="0000000" cont="0"/>
        <request index="3" response="0000000" foes="0000000" cont="0"/>
        <request index="4" response="0000000" foes="0000000" cont="0"/>
        <request index="5" response="0000000" foes="0000000" cont="0"/>
        <request index="6" response="0000000" foes="0000000" cont="0"/>
    </junction>
    <junction id="E" type="priority" x="200.00" y="100.00" incLanes="CE_0 CE_1 CE_2 CE_3 CE_4 CE_5" intLanes=":E_0_0" shape="200.00,100.00 200.00,80.80 200.00,100.00">
        <request index="0" response="0" foes="0" cont="0"/>
    </junction>
    <junction id="N" type="priority" x="100.00" y="200.00" incLanes="CN_0 CN_1 CN_2 CN_3 CN_4 CN_5" intLanes=":N_0_0" shape="100.00,200.00 119.20,200.00 100.00,200.00">
        <request index="0" response="0" foes="0" cont="0"/>
    </junction>
    <junction id="S" type="priority" x="100.00" y="0.00" incLanes="CS_0 CS_1 CS_2 CS_3 CS_4 CS_5" intLanes=":S_0_0" shape="100.00,0.00 80.80,0.00 100.00,0.00">
        <request index="0" response="0" foes="0" cont="0"/>
    </junction>
    <junction id="W" type="priority" x="0.00" y="100.00" incLanes="CW_0 CW_1 CW_2 CW_3 CW_4 CW_5" intLanes=":W_0_0" shape="0.00,100.00 0.00,119.20 0.00,100.00">
        <request index="0" response="0" foes="0" cont="0"/>
    </junction>

    <connection from="CE" to="EC" fromLane="5" toLane="5" via=":E_0_0" dir="t" state="M"/>
    <connection from="CN" to="NC" fromLane="5" toLane="5" via=":N_0_0" dir="t" state="M"/>
    <connection from="CS" to="SC" fromLane="5" toLane="5" via=":S_0_0" dir="t" state="M"/>
    <connection from="CW" to="WC" fromLane="5" toLane="5" via=":W_0_0" dir="t" state="M"/>
    <connection from="NC" to="CE" fromLane="5" toLane="5" via=":C_0_0" dir="l" state="M"/>
    <connection from="SC" to="CW" fromLane="0" toLane="0" via=":C_1_0" dir="l" state="M"/>
    <connection from="SC" to="CW" fromLane="1" toLane="1" via=":C_1_1" dir="l" state="M"/>
    <connection from="SC" to="CW" fromLane="2" toLane="2" via=":C_1_2" dir="l" state="M"/>
    <connection from="SC" to="CW" fromLane="3" toLane="3" via=":C_1_3" dir="l" state="M"/>
    <connection from="SC" to="CW" fromLane="4" toLane="4" via=":C_1_4" dir="l" state="M"/>
    <connection from="SC" to="CW" fromLane="5" toLane="5" via=":C_1_5" dir="l" state="M"/>

    <connection from=":C_0" to="CE" fromLane="0" toLane="5" dir="l" state="M"/>
    <connection from=":C_1" to="CW" fromLane="0" toLane="0" dir="l" state="M"/>
    <connection from=":C_1" to="CW" fromLane="1" toLane="1" dir="l" state="M"/>
    <connection from=":C_1" to="CW" fromLane="2" toLane="2" dir="l" state="M"/>
    <connection from=":C_1" to="CW" fromLane="3" toLane="3" dir="l" state="M"/>
    <connection from=":C_1" to="CW" fromLane="4" toLane="4" dir="l" state="M"/>
    <connection from=":C_1" to="CW" fromLane="5" toLane="5" dir="l" state="M"/>
    <connection from=":E_0" to="EC" fromLane="0" toLane="5" dir="t" state="M"/>
    <connection from=":N_0" to="NC" fromLane="0" toLane="5" dir="t" state="M"/>
    <connection from=":S_0" to="SC" fromLane="0" toLane="5" dir="t" state="M"/>
    <connection from=":W_0" to="WC" fromLane="0" toLane="5" dir="t" state="M"/>

</net>
