<?xml version="1.0"?>

<!-- generated on 04/10/08 15:12:22 by SUMO od2trips Version 0.9.7
<configuration>

   <input>
      <net-file>input_net.net.xml</net-file>
      <od-files>input_od_o.fma</od-files>
   </input>

   <output>
      <output-file>trips.trips.xml</output-file>
   </output>

   <processing>
      <timeline>0,0,0,0,0,0,0,0,0,0,0,0,1,1,1,1,1,1,1,1,1,1,1,1</timeline>
      <timeline.day-in-hours>true</timeline.day-in-hours>
   </processing>

</configuration>
-->

<tripdefs>
   <tripdef id="1" depart="44241" from="a1" to="b2" departlane="free" departspeed="max"/>
   <tripdef id="0" depart="44793" from="a1" to="b2" departlane="free" departspeed="max"/>
   <tripdef id="3" depart="48518" from="a1" to="b2" departlane="free" departspeed="max"/>
   <tripdef id="2" depart="48571" from="a1" to="b2" departlane="free" departspeed="max"/>
   <tripdef id="4" depart="50482" from="a1" to="b2" departlane="free" departspeed="max"/>
   <tripdef id="5" depart="51077" from="a1" to="b2" departlane="free" departspeed="max"/>
   <tripdef id="7" depart="54830" from="a1" to="b2" departlane="free" departspeed="max"/>
   <tripdef id="6" depart="56603" from="a1" to="b2" departlane="free" departspeed="max"/>
   <tripdef id="9" depart="59023" from="a1" to="b2" departlane="free" departspeed="max"/>
   <tripdef id="8" depart="59255" from="a1" to="b2" departlane="free" departspeed="max"/>
   <tripdef id="11" depart="62449" from="a1" to="b2" departlane="free" departspeed="max"/>
   <tripdef id="10" depart="64320" from="a1" to="b2" departlane="free" departspeed="max"/>
   <tripdef id="12" depart="64837" from="a1" to="b2" departlane="free" departspeed="max"/>
   <tripdef id="13" depart="67045" from="a1" to="b2" departlane="free" departspeed="max"/>
   <tripdef id="14" depart="69491" from="a1" to="b2" departlane="free" departspeed="max"/>
   <tripdef id="15" depart="71188" from="a1" to="b2" departlane="free" departspeed="max"/>
   <tripdef id="16" depart="72732" from="a1" to="b2" departlane="free" departspeed="max"/>
   <tripdef id="17" depart="75096" from="a1" to="b2" departlane="free" departspeed="max"/>
   <tripdef id="19" depart="76599" from="a1" to="b2" departlane="free" departspeed="max"/>
   <tripdef id="18" depart="77835" from="a1" to="b2" departlane="free" departspeed="max"/>
   <tripdef id="20" depart="79699" from="a1" to="b2" departlane="free" departspeed="max"/>
   <tripdef id="21" depart="79863" from="a1" to="b2" departlane="free" departspeed="max"/>
   <tripdef id="23" depart="84148" from="a1" to="b2" departlane="free" departspeed="max"/>
   <tripdef id="22" depart="84542" from="a1" to="b2" departlane="free" departspeed="max"/>
</tripdefs>
