<?xml version="1.0" encoding="UTF-8"?>

<!-- generated on 07/10/17 11:57:41 by SUMO od2trips Version dev-SVN-r25136
<?xml version="1.0" encoding="UTF-8"?>

<configuration xmlns:xsi="http://www.w3.org/2001/XMLSchema-instance" xsi:noNamespaceSchemaLocation="http://sumo.dlr.de/xsd/od2tripsConfiguration.xsd">

    <input>
        <taz-files value="input_taz.taz.xml"/>
        <od-matrix-files value="input_od_o.fma"/>
    </input>

    <output>
        <output-file value="trips.trips.xml"/>
    </output>

    <processing>
        <timeline value="0,0,0,0,0,0,0,0,0,0,0,0,1,1,1,1,1,1,1,1,1,1,1,1"/>
        <timeline.day-in-hours value="true"/>
        <no-step-log value="true"/>
    </processing>

    <report>
        <xml-validation value="never"/>
    </report>

</configuration>
-->

<routes xmlns:xsi="http://www.w3.org/2001/XMLSchema-instance" xsi:noNamespaceSchemaLocation="http://sumo.dlr.de/xsd/routes_file.xsd">
    <trip id="0" depart="44604.60" from="a1" to="b2" fromTaz="1" toTaz="2" departLane="free" departSpeed="max"/>
    <trip id="1" depart="46402.71" from="a1" to="b2" fromTaz="1" toTaz="2" departLane="free" departSpeed="max"/>
    <trip id="2" depart="47216.11" from="a1" to="b2" fromTaz="1" toTaz="2" departLane="free" departSpeed="max"/>
    <trip id="3" depart="49561.53" from="a1" to="b2" fromTaz="1" toTaz="2" departLane="free" departSpeed="max"/>
    <trip id="4" depart="50888.91" from="a1" to="b2" fromTaz="1" toTaz="2" departLane="free" departSpeed="max"/>
    <trip id="5" depart="52831.91" from="a1" to="b2" fromTaz="1" toTaz="2" departLane="free" departSpeed="max"/>
    <trip id="6" depart="54924.08" from="a1" to="b2" fromTaz="1" toTaz="2" departLane="free" departSpeed="max"/>
    <trip id="7" depart="54955.33" from="a1" to="b2" fromTaz="1" toTaz="2" departLane="free" departSpeed="max"/>
    <trip id="9" depart="58947.98" from="a1" to="b2" fromTaz="1" toTaz="2" departLane="free" departSpeed="max"/>
    <trip id="8" depart="60279.67" from="a1" to="b2" fromTaz="1" toTaz="2" departLane="free" departSpeed="max"/>
    <trip id="10" depart="61948.34" from="a1" to="b2" fromTaz="1" toTaz="2" departLane="free" departSpeed="max"/>
    <trip id="11" depart="62373.77" from="a1" to="b2" fromTaz="1" toTaz="2" departLane="free" departSpeed="max"/>
    <trip id="12" depart="65530.71" from="a1" to="b2" fromTaz="1" toTaz="2" departLane="free" departSpeed="max"/>
    <trip id="13" depart="68068.77" from="a1" to="b2" fromTaz="1" toTaz="2" departLane="free" departSpeed="max"/>
    <trip id="14" depart="68914.48" from="a1" to="b2" fromTaz="1" toTaz="2" departLane="free" departSpeed="max"/>
    <trip id="15" depart="69555.44" from="a1" to="b2" fromTaz="1" toTaz="2" departLane="free" departSpeed="max"/>
    <trip id="17" depart="74244.41" from="a1" to="b2" fromTaz="1" toTaz="2" departLane="free" departSpeed="max"/>
    <trip id="16" depart="74965.18" from="a1" to="b2" fromTaz="1" toTaz="2" departLane="free" departSpeed="max"/>
    <trip id="19" depart="78366.79" from="a1" to="b2" fromTaz="1" toTaz="2" departLane="free" departSpeed="max"/>
    <trip id="18" depart="78794.39" from="a1" to="b2" fromTaz="1" toTaz="2" departLane="free" departSpeed="max"/>
    <trip id="21" depart="82151.90" from="a1" to="b2" fromTaz="1" toTaz="2" departLane="free" departSpeed="max"/>
    <trip id="20" depart="82516.81" from="a1" to="b2" fromTaz="1" toTaz="2" departLane="free" departSpeed="max"/>
    <trip id="23" depart="83452.37" from="a1" to="b2" fromTaz="1" toTaz="2" departLane="free" departSpeed="max"/>
    <trip id="22" depart="85214.76" from="a1" to="b2" fromTaz="1" toTaz="2" departLane="free" departSpeed="max"/>
</routes>
