<?xml version="1.0" encoding="UTF-8"?>

<!-- generated on 2026-05-19 07:32:09.306727 by Eclipse SUMO addStops2Routes.py v1_26_0+1646-6b22dd0ed69
<configuration>
    <net-file value="input_net.net.xml"/>
    <output-file value="out.rou.xml"/>
    <duration value="1800"/>
    <until value="12:0:0"/>
    <parking value="True"/>
    <parking-areas value="input_additional.add.xml"/>
    <start-at-stop value="True"/>
    <abs-occupancy value="2"/>
</configuration>
-->

<routes xmlns:xsi="http://www.w3.org/2001/XMLSchema-instance" xsi:noNamespaceSchemaLocation="http://sumo.dlr.de/xsd/routes_file.xsd">
    <vehicle id="pCN.0" depart="0" departPos="stop">
        <route edges="CN"/>
        <stop parkingArea="pCN" duration="1800" until="12:0:0"/>
    </vehicle>
    <vehicle id="pCN.1" depart="0" departPos="stop">
        <route edges="CN"/>
        <stop parkingArea="pCN" duration="1800" until="12:0:0"/>
    </vehicle>
</routes>
