<?xml version="1.0"?>

<!-- generated on 03/02/10 09:33:59 by SUMO netconvert Version dev-SVN-r8163
<configuration>

    <input>
        <xml-node-files value="circular.nod.xml"/>
        <xml-edge-files value="circular.edg.xml"/>
    </input>

    <output>
        <output-file value="circular.net.xml"/>
    </output>

    <processing>
        <no-turnarounds value="true"/>
        <no-internal-links value="true"/>
    </processing>

</configuration>
-->

<net>

   <location netOffset="500.00,0.00" convBoundary="0.00,0.00,6000.00,5000.00" origBoundary="-500.00,0.00,5500.00,5000.00" projParameter="!"/>


   <edge id="bottom" from="bottom-left" to="bottom-right" priority="-1" type="" function="normal">
      <lanes>
         <lane id="bottom_0" depart="1" maxspeed="36.10" length="4997.10" shape="501.45,-1.65 5498.55,-1.65"/>
      </lanes>
   </edge>

   <edge id="leave-bottom" from="bottom-right" to="leave-bottom-right" priority="-1" type="" function="normal">
      <lanes>
         <lane id="leave-bottom_0" depart="1" maxspeed="36.10" length="495.25" shape="5504.75,-1.65 6000.00,-1.65"/>
      </lanes>
   </edge>

   <edge id="leave-left" from="bottom-left" to="leave-bottom-left" priority="-1" type="" function="normal">
      <lanes>
         <lane id="leave-left_0" depart="1" maxspeed="36.10" length="495.25" shape="495.25,1.65 0.00,1.65"/>
      </lanes>
   </edge>

   <edge id="leave-right" from="top-right" to="leave-top-right" priority="-1" type="" function="normal">
      <lanes>
         <lane id="leave-right_0" depart="1" maxspeed="36.10" length="495.25" shape="5504.75,4998.35 6000.00,4998.35"/>
      </lanes>
   </edge>

   <edge id="leave-top" from="top-left" to="leave-top-left" priority="-1" type="" function="normal">
      <lanes>
         <lane id="leave-top_0" depart="1" maxspeed="36.10" length="495.25" shape="495.25,5001.65 0.00,5001.65"/>
      </lanes>
   </edge>

   <edge id="left" from="top-left" to="bottom-left" priority="-1" type="" function="normal">
      <lanes>
         <lane id="left_0" depart="1" maxspeed="36.10" length="4993.80" shape="498.35,4998.55 498.35,4.75"/>
      </lanes>
   </edge>

   <edge id="right" from="bottom-right" to="top-right" priority="-1" type="" function="normal">
      <lanes>
         <lane id="right_0" depart="1" maxspeed="36.10" length="4993.80" shape="5501.65,1.45 5501.65,4995.25"/>
      </lanes>
   </edge>

   <edge id="top" from="top-right" to="top-left" priority="-1" type="" function="normal">
      <lanes>
         <lane id="top_0" depart="1" maxspeed="36.10" length="4997.10" shape="5498.55,5001.65 501.45,5001.65"/>
      </lanes>
   </edge>


   <row-logic id="bottom-left" requestSize="2" laneNumber="1">
      <logic>
         <logicitem request="0" response="00" foes="00"/>
         <logicitem request="1" response="00" foes="00"/>
      </logic>
   </row-logic>

   <row-logic id="bottom-right" requestSize="2" laneNumber="1">
      <logic>
         <logicitem request="0" response="00" foes="00"/>
         <logicitem request="1" response="00" foes="00"/>
      </logic>
   </row-logic>

   <row-logic id="top-left" requestSize="2" laneNumber="1">
      <logic>
         <logicitem request="0" response="00" foes="00"/>
         <logicitem request="1" response="00" foes="00"/>
      </logic>
   </row-logic>

   <row-logic id="top-right" requestSize="2" laneNumber="1">
      <logic>
         <logicitem request="0" response="00" foes="00"/>
         <logicitem request="1" response="00" foes="00"/>
      </logic>
   </row-logic>



   <junction id="bottom-left" type="priority" x="500.00" y="0.00" incLanes="left_0" intLanes="" shape="496.75,4.75 499.95,4.75 501.45,-0.05 501.45,-3.25 495.25,0.05 495.25,3.25"/>

   <junction id="bottom-right" type="priority" x="5500.00" y="0.00" incLanes="bottom_0" intLanes="" shape="5500.05,1.45 5503.25,1.45 5504.75,-0.05 5504.75,-3.25 5498.55,-3.25 5498.55,-0.05"/>

   <junction id="leave-bottom-left" type="DEAD_END" x="0.00" y="0.00" incLanes="leave-left_0" intLanes="" shape="0.00,3.25 0.00,0.05"/>

   <junction id="leave-bottom-right" type="DEAD_END" x="6000.00" y="0.00" incLanes="leave-bottom_0" intLanes="" shape="6000.00,-3.25 6000.00,-0.05"/>

   <junction id="leave-top-left" type="DEAD_END" x="0.00" y="5000.00" incLanes="leave-top_0" intLanes="" shape="0.00,5003.25 0.00,5000.05"/>

   <junction id="leave-top-right" type="DEAD_END" x="6000.00" y="5000.00" incLanes="leave-right_0" intLanes="" shape="6000.00,4996.75 6000.00,4999.95"/>

   <junction id="top-left" type="priority" x="500.00" y="5000.00" incLanes="top_0" intLanes="" shape="501.45,5003.25 501.45,5000.05 499.95,4998.55 496.75,4998.55 495.25,5000.05 495.25,5003.25"/>

   <junction id="top-right" type="priority" x="5500.00" y="5000.00" incLanes="right_0" intLanes="" shape="5504.75,4999.95 5504.75,4996.75 5503.25,4995.25 5500.05,4995.25 5498.55,5000.05 5498.55,5003.25"/>


   <succ edge="bottom" lane="bottom_0" junction="bottom-right">
      <succlane lane="leave-bottom_0" yield="0" dir="s" state="M"/>
      <succlane lane="right_0" yield="0" dir="l" state="M"/>
   </succ>

   <succ edge="leave-bottom" lane="leave-bottom_0" junction="leave-bottom-right">
      <succlane lane="SUMO_NO_DESTINATION" yield="1" dir="s" state="O"/>
   </succ>

   <succ edge="leave-left" lane="leave-left_0" junction="leave-bottom-left">
      <succlane lane="SUMO_NO_DESTINATION" yield="1" dir="s" state="O"/>
   </succ>

   <succ edge="leave-right" lane="leave-right_0" junction="leave-top-right">
      <succlane lane="SUMO_NO_DESTINATION" yield="1" dir="s" state="O"/>
   </succ>

   <succ edge="leave-top" lane="leave-top_0" junction="leave-top-left">
      <succlane lane="SUMO_NO_DESTINATION" yield="1" dir="s" state="O"/>
   </succ>

   <succ edge="left" lane="left_0" junction="bottom-left">
      <succlane lane="leave-left_0" yield="0" dir="r" state="M"/>
      <succlane lane="bottom_0" yield="0" dir="l" state="M"/>
   </succ>

   <succ edge="right" lane="right_0" junction="top-right">
      <succlane lane="leave-right_0" yield="0" dir="r" state="M"/>
      <succlane lane="top_0" yield="0" dir="l" state="M"/>
   </succ>

   <succ edge="top" lane="top_0" junction="top-left">
      <succlane lane="leave-top_0" yield="0" dir="s" state="M"/>
      <succlane lane="left_0" yield="0" dir="l" state="M"/>
   </succ>


</net>
