<?xml version="1.0" encoding="UTF-8"?>

<!-- generated on Fri Dec 14 09:27:55 2018 by Eclipse SUMO netconvert Version v1_0_1+0645-93703db
This data file and the accompanying materials
are made available under the terms of the Eclipse Public License v2.0
which accompanies this distribution, and is available at
http://www.eclipse.org/legal/epl-v20.html
SPDX-License-Identifier: EPL-2.0
<configuration xmlns:xsi="http://www.w3.org/2001/XMLSchema-instance" xsi:noNamespaceSchemaLocation="http://sumo.dlr.de/xsd/netconvertConfiguration.xsd">

    <input>
        <node-files value="input_nodes.nod.xml"/>
        <edge-files value="input_edges.edg.xml"/>
    </input>

    <output>
        <write-license value="true"/>
        <output-file value="net.net.xml"/>
    </output>

    <processing>
        <roundabouts.guess value="true"/>
    </processing>

    <junctions>
        <no-internal-links value="true"/>
    </junctions>

    <report>
        <xml-validation value="never"/>
    </report>

</configuration>
-->

<net version="1.1" junctionCornerDetail="5" limitTurnSpeed="5.50" xmlns:xsi="http://www.w3.org/2001/XMLSchema-instance" xsi:noNamespaceSchemaLocation="http://sumo.dlr.de/xsd/net_file.xsd">

    <location netOffset="-49249.71,-59415.38" convBoundary="0.00,0.00,159.75,301.12" origBoundary="49249.71,59415.38,49409.46,59716.50" projParameter="!"/>

    <edge id="-10404" from="17394" to="13439" priority="-1" spreadType="center" shape="93.69,254.48 45.58,272.42 36.47,274.27 25.35,274.15 14.92,270.63 6.12,266.56 0.72,262.96">
        <lane id="-10404_0" index="0" speed="13.90" length="106.19" shape="91.36,255.35 45.58,272.42 36.47,274.27 25.35,274.15 14.92,270.63 6.12,266.56 -0.91,261.87"/>
    </edge>
    <edge id="-10405" from="10731" to="17394" priority="-1" spreadType="center" shape="124.46,246.75 118.25,251.50 112.75,253.20 105.50,253.53 102.33,252.58">
        <lane id="-10405_0" index="0" speed="13.90" length="36.10" shape="122.73,248.07 118.25,251.50 112.75,253.20 105.50,253.53 104.71,253.29"/>
    </edge>
    <edge id="-10575" from="17446" to="10724" priority="-1" spreadType="center" shape="107.56,206.16 106.86,199.87 95.47,143.66 73.72,88.36 60.94,45.00 59.86,34.17 59.49,22.93 60.84,8.43 60.52,4.76">
        <lane id="-10575_0" index="0" speed="13.90" length="219.64" shape="107.32,204.00 106.86,199.87 95.47,143.66 73.72,88.36 60.94,45.00 59.86,34.17 59.49,22.93 60.84,8.43 60.12,0.14"/>
    </edge>
    <edge id="-4014" from="10732" to="10731" priority="-1" spreadType="center" shape="156.14,296.78 142.14,263.54 128.84,246.95">
        <lane id="-4014_0" index="0" speed="13.90" length="69.74" shape="158.24,301.76 142.14,263.54 130.50,249.02"/>
    </edge>
    <edge id="10404" from="13439" to="17394" priority="-1" spreadType="center" shape="2.55,260.23 7.73,263.69 16.14,267.57 25.91,270.85 36.14,270.97 44.68,269.26 92.54,251.39">
        <lane id="10404_0" index="0" speed="13.90" length="102.65" shape="0.91,259.14 7.73,263.69 16.14,267.57 25.91,270.85 36.14,270.97 44.68,269.26 90.21,252.26"/>
    </edge>
    <edge id="10572" from="17394" to="17446" priority="-1" spreadType="center" shape="93.08,247.10 91.55,245.92 88.43,240.69 86.81,235.72 86.60,228.57 88.15,222.55 91.18,217.52 94.61,213.75 99.98,210.69 104.97,209.69">
        <lane id="10572_0" index="0" speed="13.90" length="58.36" shape="91.33,245.54 88.43,240.69 86.81,235.72 86.60,228.57 88.15,222.55 91.18,217.52 94.61,213.75 99.98,210.69 102.85,210.11"/>
    </edge>
    <edge id="10573" from="17446" to="10731" priority="-1" spreadType="center" shape="113.82,209.85 115.68,210.43 120.18,212.45 124.46,215.85 127.77,220.57 130.40,226.85 130.34,234.97 129.25,239.25">
        <lane id="10573_0" index="0" speed="13.90" length="44.85" shape="115.70,210.44 120.18,212.45 124.46,215.85 127.77,220.57 130.40,226.85 130.34,234.97 129.85,236.91"/>
    </edge>
    <edge id="10575" from="10724" to="17446" priority="-1" spreadType="center" shape="63.81,4.46 64.16,8.44 62.78,23.03 63.15,33.95 64.19,44.36 76.84,87.29 98.65,142.71 110.12,199.35 110.84,205.79">
        <lane id="10575_0" index="0" speed="13.90" length="219.59" shape="63.40,-0.15 64.16,8.44 62.78,23.03 63.15,33.95 64.19,44.36 76.84,87.29 98.65,142.71 110.12,199.35 110.60,203.64"/>
    </edge>
    <edge id="4014" from="10731" to="10732" priority="-1" spreadType="center" shape="131.42,244.89 144.99,261.82 159.18,295.51">
        <lane id="4014_0" index="0" speed="13.90" length="70.67" shape="133.08,246.96 144.99,261.82 161.27,300.48"/>
    </edge>

    <junction id="10724" type="priority" x="61.75" y="0.00" incLanes="-10575_0" intLanes="" shape="61.81,-0.01 65.00,-0.29 58.52,0.28">
        <request index="0" response="0" foes="0"/>
    </junction>
    <junction id="10731" type="priority" x="126.88" y="241.87" incLanes="-4014_0 10573_0" intLanes="" shape="129.25,250.02 134.32,245.95 132.27,242.84 131.65,241.36 131.29,239.95 131.21,238.60 131.40,237.31 128.29,236.52 127.62,239.07 127.01,240.99 126.28,242.49 125.27,243.80 123.82,245.17 121.76,246.80 123.70,249.35 125.70,248.36 126.64,248.33 127.55,248.59 128.42,249.15">
        <request index="0" response="100" foes="100"/>
        <request index="1" response="000" foes="000"/>
        <request index="2" response="000" foes="001"/>
    </junction>
    <junction id="10732" type="priority" x="159.75" y="301.12" incLanes="4014_0" intLanes="" shape="159.71,301.14 162.75,299.86 159.80,301.10">
        <request index="0" response="0" foes="0"/>
    </junction>
    <junction id="13439" type="priority" x="0.00" y="260.50" incLanes="-10404_0" intLanes="" shape="0.02,260.47 1.80,257.81 -1.80,263.20">
        <request index="0" response="0" foes="0"/>
    </junction>
    <junction id="17394" type="priority" x="100.31" y="250.25" incLanes="-10405_0 10404_0" intLanes="" shape="104.25,254.83 105.17,251.76 102.02,250.90 99.54,250.27 97.54,249.57 95.81,248.52 94.16,246.83 92.39,244.20 90.26,246.89 90.99,248.64 91.00,249.35 90.78,249.93 90.33,250.41 89.65,250.76 91.92,256.85 94.45,255.82 96.39,254.96 98.04,254.35 99.69,254.07 101.67,254.20">
        <request index="0" response="000" foes="000"/>
        <request index="1" response="000" foes="100"/>
        <request index="2" response="010" foes="010"/>
    </junction>
    <junction id="17446" type="priority" x="109.70" y="210.43" incLanes="10575_0 10572_0" intLanes="" shape="115.22,211.98 116.18,208.91 114.18,207.60 113.42,206.75 112.83,205.78 112.42,204.68 112.19,203.46 105.73,204.18 105.56,206.29 105.14,207.09 104.49,207.74 103.63,208.22 102.54,208.55 103.17,211.68 105.73,211.12 107.70,210.68 109.35,210.46 110.96,210.54 112.83,211.02">
        <request index="0" response="100" foes="100"/>
        <request index="1" response="000" foes="000"/>
        <request index="2" response="000" foes="001"/>
    </junction>

    <connection from="-10404" to="10404" fromLane="0" toLane="0" dir="t" state="M"/>
    <connection from="-10405" to="-10404" fromLane="0" toLane="0" dir="R" state="M"/>
    <connection from="-10405" to="10572" fromLane="0" toLane="0" dir="s" state="M"/>
    <connection from="-10575" to="10575" fromLane="0" toLane="0" dir="t" state="M"/>
    <connection from="-4014" to="-10405" fromLane="0" toLane="0" dir="r" state="m"/>
    <connection from="10404" to="10572" fromLane="0" toLane="0" dir="r" state="m"/>
    <connection from="10572" to="-10575" fromLane="0" toLane="0" dir="r" state="M"/>
    <connection from="10572" to="10573" fromLane="0" toLane="0" dir="s" state="M"/>
    <connection from="10573" to="4014" fromLane="0" toLane="0" dir="r" state="M"/>
    <connection from="10573" to="-10405" fromLane="0" toLane="0" dir="s" state="M"/>
    <connection from="10575" to="10573" fromLane="0" toLane="0" dir="r" state="m"/>
    <connection from="4014" to="-4014" fromLane="0" toLane="0" dir="t" state="M"/>

    <roundabout nodes="10731 17394 17446" edges="-10405 10572 10573"/>

</net>
