<?xml version="1.0" encoding="UTF-8"?>

<!-- generated on 08/21/14 10:48:10 by SUMO netconvert Version dev-SVN-r16863
<?xml version="1.0" encoding="UTF-8"?>

<configuration xmlns:xsi="http://www.w3.org/2001/XMLSchema-instance" xsi:noNamespaceSchemaLocation="http://sumo.dlr.de/xsd/netconvertConfiguration.xsd">

    <input>
        <node-files value="input_nodes.nod.xml"/>
        <edge-files value="input_edges.edg.xml"/>
    </input>

    <output>
        <output-file value="net.net.xml"/>
    </output>

    <report>
        <xml-validation value="never"/>
    </report>

</configuration>
-->

<net version="0.13" xmlns:xsi="http://www.w3.org/2001/XMLSchema-instance" xsi:noNamespaceSchemaLocation="http://sumo.dlr.de/xsd/net_file.xsd">

    <location netOffset="0.00,6.60" convBoundary="0.00,0.00,100.00,6.60" origBoundary="0.00,0.00,100.00,0.00" projParameter="!"/>

    <edge id=":1.10_0" function="internal">
        <lane id=":1.10_0_0" index="0" speed="13.90" length="4.90" shape="8.50,4.95 11.50,-1.65"/>
        <lane id=":1.10_0_1" index="1" speed="13.90" length="4.90" shape="8.50,4.95 11.50,1.65"/>
        <lane id=":1.10_0_2" index="2" speed="13.90" length="4.90" shape="8.50,4.95 11.50,4.95"/>
    </edge>
    <edge id=":1.50_0" function="internal">
        <lane id=":1.50_0_0" index="0" speed="13.90" length="3.00" shape="48.50,-1.65 51.50,-1.65"/>
    </edge>

    <edge id="1" from="0" to="1.10" priority="-1">
        <lane id="1_0" index="0" speed="13.90" length="8.50" shape="0.00,-1.65 8.50,-1.65"/>
    </edge>
    <edge id="1.10" from="1.10" to="1.50" priority="-1">
        <lane id="1.10_0" index="0" speed="13.90" length="37.00" shape="11.50,-1.65 48.50,-1.65"/>
        <lane id="1.10_1" index="1" speed="13.90" length="37.00" shape="11.50,1.65 48.50,1.65"/>
        <lane id="1.10_2" index="2" speed="13.90" length="37.00" shape="11.50,4.95 48.50,4.95"/>
    </edge>
    <edge id="1.50" from="1.50" to="1" priority="-1" shape="50.00,0.00 100.00,0.00">
        <lane id="1.50_0" index="0" speed="13.90" length="48.50" shape="51.50,-1.65 100.00,-1.65"/>
    </edge>

    <junction id="0" type="unregulated" x="0.00" y="6.60" incLanes="" intLanes="" shape="-0.00,6.55 -0.00,3.35"/>
    <junction id="1" type="unregulated" x="100.00" y="6.60" incLanes="1.50_0" intLanes="" shape="100.00,-3.25 100.00,-0.05"/>
    <junction id="1.10" type="priority" x="10.00" y="6.60" incLanes="1_0" intLanes=":1.10_0_0 :1.10_0_1 :1.10_0_2" shape="11.50,6.55 11.50,-3.25 8.50,3.35 8.50,6.55">
        <request index="0" response="000" foes="000" cont="0"/>
        <request index="1" response="000" foes="000" cont="0"/>
        <request index="2" response="000" foes="000" cont="0"/>
    </junction>
    <junction id="1.50" type="priority" x="50.00" y="6.60" incLanes="1.10_0 1.10_1 1.10_2" intLanes=":1.50_0_0" shape="51.50,-0.05 51.50,-3.25 48.50,-3.25 48.50,6.55">
        <request index="0" response="0" foes="0" cont="0"/>
    </junction>

    <connection from="1" to="1.10" fromLane="0" toLane="0" via=":1.10_0_0" dir="s" state="M"/>
    <connection from="1" to="1.10" fromLane="0" toLane="1" via=":1.10_0_1" dir="s" state="M"/>
    <connection from="1" to="1.10" fromLane="0" toLane="2" via=":1.10_0_2" dir="s" state="M"/>
    <connection from="1.10" to="1.50" fromLane="0" toLane="0" via=":1.50_0_0" dir="s" state="M"/>

    <connection from=":1.10_0" to="1.10" fromLane="0" toLane="0" dir="s" state="M"/>
    <connection from=":1.10_0" to="1.10" fromLane="1" toLane="1" dir="s" state="M"/>
    <connection from=":1.10_0" to="1.10" fromLane="2" toLane="2" dir="s" state="M"/>
    <connection from=":1.50_0" to="1.50" fromLane="0" toLane="0" dir="s" state="M"/>

</net>
