<?xml version="1.0" encoding="UTF-8"?>

<!-- generated on Mon 20 Aug 2018 08:49:30 AM CEST by Eclipse SUMO netedit Version f867fb8
<configuration xmlns:xsi="http://www.w3.org/2001/XMLSchema-instance" xsi:noNamespaceSchemaLocation="https://sumo.dlr.de/xsd/netconvertConfiguration.xsd">

    <input>
        <sumo-net-file value="/scr1/sumo/tests/duarouter/person/personTrip/walk_walkingareas/input_net.net.xml"/>
    </input>

    <output>
        <output-file value="/scr1/sumo/tests/duarouter/person/personTrip/walk_walkingareas/input_net.net.xml"/>
    </output>

    <processing>
        <offset.disable-normalization value="true"/>
        <lefthand value="false"/>
    </processing>

    <junctions>
        <no-internal-links value="false"/>
        <no-turnarounds value="true"/>
        <junctions.corner-detail value="0"/>
        <junctions.limit-turn-speed value="-1"/>
        <rectangular-lane-cut value="false"/>
    </junctions>

    <pedestrian>
        <walkingareas value="true"/>
    </pedestrian>

</configuration>
-->

<net version="1.0" walkingareas="true" xmlns:xsi="http://www.w3.org/2001/XMLSchema-instance" xsi:noNamespaceSchemaLocation="https://sumo.dlr.de/xsd/net_file.xsd">

    <location netOffset="500.00,500.00" convBoundary="0.00,0.00,100.00,0.00" origBoundary="-500.00,-500.00,500.00,500.00" projParameter="!"/>

    <edge id=":1_w0" function="walkingarea">
        <lane id=":1_w0_0" index="0" allow="pedestrian" speed="1.00" length="2.00" width="2.00" shape="0.00,0.00 0.00,-2.00 0.00,2.00 0.00,0.00"/>
    </edge>
    <edge id=":2_w0" function="walkingarea">
        <lane id=":2_w0_0" index="0" allow="pedestrian" speed="1.00" length="2.00" width="2.00" shape="100.00,0.00 100.00,2.00 100.00,-2.00 100.00,0.00"/>
    </edge>
    <edge id="-a" from="2" to="1" priority="-1">
        <lane id="-a_0" index="0" allow="pedestrian" speed="13.89" length="100.00" width="2.00" shape="100.00,1.00 0.00,1.00"/>
    </edge>
    <edge id="a" from="1" to="2" priority="-1">
        <lane id="a_0" index="0" allow="pedestrian" speed="13.89" length="100.00" width="2.00" shape="0.00,-1.00 100.00,-1.00"/>
    </edge>

    <junction id="1" type="dead_end" x="0.00" y="0.00" incLanes="-a_0" intLanes="" shape="0.00,0.00 0.00,2.00 0.00,0.00"/>
    <junction id="2" type="dead_end" x="100.00" y="0.00" incLanes="a_0" intLanes="" shape="100.00,0.00 100.00,-2.00 100.00,0.00"/>

    <connection from=":1_w0" to="a" fromLane="0" toLane="0" dir="s" state="M"/>
    <connection from="-a" to=":1_w0" fromLane="0" toLane="0" dir="s" state="M"/>
    <connection from=":2_w0" to="-a" fromLane="0" toLane="0" dir="s" state="M"/>
    <connection from="a" to=":2_w0" fromLane="0" toLane="0" dir="s" state="M"/>
</net>
