<?xml version="1.0" encoding="UTF-8"?>

<!-- generated on 2022-03-07 09:51:18 by Eclipse SUMO netedit Version v1_12_0+1177-f6b46b7e4a3
-->

<routes xmlns:xsi="http://www.w3.org/2001/XMLSchema-instance" xsi:noNamespaceSchemaLocation="http://sumo.dlr.de/xsd/routes_file.xsd">
    <!-- Routes -->
    <route id="route_0" edges="gneE0 gneE1" color="yellow">
        <stop busStop="busStopA" duration="70.00" until="12.00" extension="10.00" triggered="person" expected="perA perB" permitted="A B" speed="10.00"/>
        <stop busStop="busStopB" duration="60.00" until="20.00" extension="20.00" triggered="container" expected="conA conB" permitted="C D" speed="22.50"/>
    </route>
</routes>
