<?xml version="1.0" encoding="UTF-8"?>

<!-- generated on 2022-03-04 10:50:41 by Eclipse SUMO netedit Version v1_12_0+1137-e9106068858
-->

<additional xmlns:xsi="http://www.w3.org/2001/XMLSchema-instance" xsi:noNamespaceSchemaLocation="http://sumo.dlr.de/xsd/additional_file.xsd">
    <!-- StoppingPlaces -->
    <busStop id="busStop_00" lane="gneE0_0" startPos="5.00" endPos="10.00"/>
</additional>
