<?xml version="1.0" encoding="UTF-8"?>

<!-- generated on 2021-09-16 14:04:59 by Eclipse SUMO netedit Version v1_10_0+0721-94326db740
-->

<routes xmlns:xsi="http://www.w3.org/2001/XMLSchema-instance" xsi:noNamespaceSchemaLocation="http://sumo.dlr.de/xsd/routes_file.xsd">
    <vType id="vType1" laneChangeModel="SL2015" lcCooperative="-3"/>
    <vType id="vType2" laneChangeModel="SL2015" lcCooperative="0"/>
    <vType id="vType3" laneChangeModel="SL2015" lcCooperative="2"/>
    <vType id="vType4" laneChangeModel="SL2015" lcCooperative="5.5"/>
</routes>
