<?xml version="1.0" encoding="UTF-8"?>

<!-- generated on 2023-07-25 15:27:04 by Eclipse SUMO netedit Version v1_18_0+0529-4ea5ddd7168
-->

<routes xmlns:xsi="http://www.w3.org/2001/XMLSchema-instance" xsi:noNamespaceSchemaLocation="http://sumo.dlr.de/xsd/routes_file.xsd">
    <!-- VTypes -->
    <vType id="vTypeRail" length="10.00" vClass="rail"/>
    <!-- Routes -->
    <route id="route_0" edges="Edge3 Edge4 Edge5" color="yellow"/>
    <!-- Vehicles, persons and containers (sorted by depart) -->
    <vehicle id="vehicle_0" type="vTypeRail" depart="0.00" route="route_0">
        <stop trainStop="trainStopA" extension="3.50" speed="13.89"/>
    </vehicle>
</routes>
