<?xml version="1.0" encoding="UTF-8"?>

<!-- generated on 2022-11-24 13:56:45 by Eclipse SUMO netedit Version v1_15_0+0573-99b4383
<configuration xmlns:xsi="http://www.w3.org/2001/XMLSchema-instance" xsi:noNamespaceSchemaLocation="http://sumo.dlr.de/xsd/netconvertConfiguration.xsd">

    <input>
        <sumo-net-file value="net3.net.xml"/>
    </input>

    <output>
        <output-file value="net3.net.xml"/>
    </output>

    <processing>
        <geometry.min-radius.fix.railways value="false"/>
        <geometry.max-grade.fix value="false"/>
        <offset.disable-normalization value="true"/>
        <lefthand value="0"/>
    </processing>

    <junctions>
        <no-internal-links value="false"/>
        <no-turnarounds value="true"/>
        <junctions.corner-detail value="0"/>
        <junctions.limit-turn-speed value="-1.00"/>
        <rectangular-lane-cut value="0"/>
    </junctions>

    <pedestrian>
        <walkingareas value="0"/>
    </pedestrian>

</configuration>
-->

<net version="1.9" xmlns:xsi="http://www.w3.org/2001/XMLSchema-instance" xsi:noNamespaceSchemaLocation="http://sumo.dlr.de/xsd/net_file.xsd">

    <location netOffset="100.00,100.00" convBoundary="0.00,0.00,200.00,200.00" origBoundary="-10000000000.00,-10000000000.00,10000000000.00,10000000000.00" projParameter="!"/>

    <edge id=":C_0" function="internal">
        <lane id=":C_0_0" index="0" allow="bicycle" speed="13.89" length="5.64" width="1.00" shape="93.10,110.40 92.88,108.87 92.22,107.78 91.13,107.12 89.60,106.90"/>
    </edge>
    <edge id=":C_1" function="internal">
        <lane id=":C_1_0" index="0" allow="bicycle" speed="13.89" length="20.80" width="1.00" shape="93.10,110.40 93.10,89.60"/>
    </edge>
    <edge id=":C_2" function="internal">
        <lane id=":C_2_0" index="0" allow="passenger" speed="13.89" length="9.03" shape="95.20,110.40 94.85,107.95 93.80,106.20 92.05,105.15 89.60,104.80"/>
    </edge>
    <edge id=":C_3" function="internal">
        <lane id=":C_3_0" index="0" allow="passenger" speed="13.89" length="20.80" shape="95.20,110.40 95.20,89.60"/>
        <lane id=":C_3_1" index="1" allow="passenger" speed="13.89" length="20.80" shape="98.40,110.40 98.40,89.60"/>
    </edge>
    <edge id=":C_5" function="internal">
        <lane id=":C_5_0" index="0" allow="passenger" speed="13.89" length="19.35" shape="98.40,110.40 99.15,105.15 101.40,101.40 105.15,99.15 110.40,98.40"/>
    </edge>
    <edge id=":C_6" function="internal">
        <lane id=":C_6_0" index="0" allow="bicycle" speed="13.89" length="5.64" width="1.00" shape="110.40,106.90 108.87,107.12 107.78,107.78 107.12,108.87 106.90,110.40"/>
    </edge>
    <edge id=":C_7" function="internal">
        <lane id=":C_7_0" index="0" allow="bicycle" speed="13.89" length="20.80" width="1.00" shape="110.40,106.90 89.60,106.90"/>
    </edge>
    <edge id=":C_8" function="internal">
        <lane id=":C_8_0" index="0" allow="passenger" speed="13.89" length="1.48" shape="110.40,104.80 108.94,105.01"/>
    </edge>
    <edge id=":C_9" function="internal">
        <lane id=":C_9_0" index="0" allow="passenger" speed="13.89" length="20.80" shape="110.40,104.80 89.60,104.80"/>
        <lane id=":C_9_1" index="1" allow="passenger" speed="13.89" length="20.80" shape="110.40,101.60 89.60,101.60"/>
    </edge>
    <edge id=":C_11" function="internal">
        <lane id=":C_11_0" index="0" allow="passenger" speed="13.89" length="5.01" shape="110.40,101.60 105.44,100.89"/>
    </edge>
    <edge id=":C_24" function="internal">
        <lane id=":C_24_0" index="0" allow="passenger" speed="13.89" length="7.55" shape="108.94,105.01 107.95,105.15 106.20,106.20 105.15,107.95 104.80,110.40"/>
    </edge>
    <edge id=":C_25" function="internal">
        <lane id=":C_25_0" index="0" allow="passenger" speed="13.89" length="14.34" shape="105.44,100.89 105.15,100.85 101.40,98.60 99.15,94.85 98.40,89.60"/>
    </edge>
    <edge id=":C_12" function="internal">
        <lane id=":C_12_0" index="0" allow="bicycle" speed="13.89" length="5.64" width="1.00" shape="106.90,89.60 107.12,91.13 107.78,92.22 108.87,92.88 110.40,93.10"/>
    </edge>
    <edge id=":C_13" function="internal">
        <lane id=":C_13_0" index="0" allow="bicycle" speed="13.89" length="20.80" width="1.00" shape="106.90,89.60 106.90,110.40"/>
    </edge>
    <edge id=":C_14" function="internal">
        <lane id=":C_14_0" index="0" allow="passenger" speed="13.89" length="9.03" shape="104.80,89.60 105.15,92.05 106.20,93.80 107.95,94.85 110.40,95.20"/>
    </edge>
    <edge id=":C_15" function="internal">
        <lane id=":C_15_0" index="0" allow="passenger" speed="13.89" length="20.80" shape="104.80,89.60 104.80,110.40"/>
        <lane id=":C_15_1" index="1" allow="passenger" speed="13.89" length="20.80" shape="101.60,89.60 101.60,110.40"/>
    </edge>
    <edge id=":C_17" function="internal">
        <lane id=":C_17_0" index="0" allow="passenger" speed="13.89" length="19.35" shape="101.60,89.60 100.85,94.85 98.60,98.60 94.85,100.85 89.60,101.60"/>
    </edge>
    <edge id=":C_18" function="internal">
        <lane id=":C_18_0" index="0" allow="bicycle" speed="13.89" length="5.64" width="1.00" shape="89.60,93.10 91.13,92.88 92.22,92.22 92.88,91.13 93.10,89.60"/>
    </edge>
    <edge id=":C_19" function="internal">
        <lane id=":C_19_0" index="0" allow="bicycle" speed="13.89" length="20.80" width="1.00" shape="89.60,93.10 110.40,93.10"/>
    </edge>
    <edge id=":C_20" function="internal">
        <lane id=":C_20_0" index="0" allow="passenger" speed="13.89" length="1.48" shape="89.60,95.20 91.06,94.99"/>
    </edge>
    <edge id=":C_21" function="internal">
        <lane id=":C_21_0" index="0" allow="passenger" speed="13.89" length="20.80" shape="89.60,95.20 110.40,95.20"/>
        <lane id=":C_21_1" index="1" allow="passenger" speed="13.89" length="20.80" shape="89.60,98.40 110.40,98.40"/>
    </edge>
    <edge id=":C_23" function="internal">
        <lane id=":C_23_0" index="0" allow="passenger" speed="13.89" length="5.01" shape="89.60,98.40 94.56,99.11"/>
    </edge>
    <edge id=":C_26" function="internal">
        <lane id=":C_26_0" index="0" allow="passenger" speed="13.89" length="7.55" shape="91.06,94.99 92.05,94.85 93.80,93.80 94.85,92.05 95.20,89.60"/>
    </edge>
    <edge id=":C_27" function="internal">
        <lane id=":C_27_0" index="0" allow="passenger" speed="13.89" length="14.34" shape="94.56,99.11 94.85,99.15 98.60,101.40 100.85,105.15 101.60,110.40"/>
    </edge>
    <edge id=":E_0" function="internal">
        <lane id=":E_0_0" index="0" allow="passenger" speed="13.89" length="4.67" shape="200.00,98.40 201.20,99.20 201.60,100.00 201.20,100.80 200.00,101.60"/>
    </edge>
    <edge id=":N_0" function="internal">
        <lane id=":N_0_0" index="0" allow="passenger" speed="13.89" length="4.67" shape="101.60,200.00 100.80,201.20 100.00,201.60 99.20,201.20 98.40,200.00"/>
    </edge>
    <edge id=":S_0" function="internal">
        <lane id=":S_0_0" index="0" allow="passenger" speed="13.89" length="4.67" shape="98.40,0.00 99.20,-1.20 100.00,-1.60 100.80,-1.20 101.60,0.00"/>
    </edge>
    <edge id=":W_0" function="internal">
        <lane id=":W_0_0" index="0" allow="passenger" speed="13.89" length="4.67" shape="0.00,101.60 -1.20,100.80 -1.60,100.00 -1.20,99.20 0.00,98.40"/>
    </edge>

    <edge id="CE" from="C" to="E" priority="3">
        <lane id="CE_0" index="0" allow="bicycle" speed="13.89" length="89.60" width="1.00" shape="110.40,93.10 200.00,93.10"/>
        <lane id="CE_1" index="1" allow="passenger" speed="13.89" length="89.60" shape="110.40,95.20 200.00,95.20"/>
        <lane id="CE_2" index="2" allow="passenger" speed="13.89" length="89.60" shape="110.40,98.40 200.00,98.40"/>
    </edge>
    <edge id="CN" from="C" to="N" priority="2">
        <lane id="CN_0" index="0" allow="bicycle" speed="13.89" length="89.60" width="1.00" shape="106.90,110.40 106.90,200.00"/>
        <lane id="CN_1" index="1" allow="passenger" speed="13.89" length="89.60" shape="104.80,110.40 104.80,200.00"/>
        <lane id="CN_2" index="2" allow="passenger" speed="13.89" length="89.60" shape="101.60,110.40 101.60,200.00"/>
    </edge>
    <edge id="CS" from="C" to="S" priority="2">
        <lane id="CS_0" index="0" allow="bicycle" speed="13.89" length="89.60" width="1.00" shape="93.10,89.60 93.10,0.00"/>
        <lane id="CS_1" index="1" allow="passenger" speed="13.89" length="89.60" shape="95.20,89.60 95.20,0.00"/>
        <lane id="CS_2" index="2" allow="passenger" speed="13.89" length="89.60" shape="98.40,89.60 98.40,0.00"/>
    </edge>
    <edge id="CW" from="C" to="W" priority="3">
        <lane id="CW_0" index="0" allow="bicycle" speed="13.89" length="89.60" width="1.00" shape="89.60,106.90 0.00,106.90"/>
        <lane id="CW_1" index="1" allow="passenger" speed="13.89" length="89.60" shape="89.60,104.80 0.00,104.80"/>
        <lane id="CW_2" index="2" allow="passenger" speed="13.89" length="89.60" shape="89.60,101.60 0.00,101.60"/>
    </edge>
    <edge id="EC" from="E" to="C" priority="3">
        <lane id="EC_0" index="0" allow="bicycle" speed="13.89" length="89.60" width="1.00" shape="200.00,106.90 110.40,106.90"/>
        <lane id="EC_1" index="1" allow="passenger" speed="13.89" length="89.60" shape="200.00,104.80 110.40,104.80"/>
        <lane id="EC_2" index="2" allow="passenger" speed="13.89" length="89.60" shape="200.00,101.60 110.40,101.60"/>
    </edge>
    <edge id="NC" from="N" to="C" priority="2">
        <lane id="NC_0" index="0" allow="bicycle" speed="13.89" length="89.60" width="1.00" shape="93.10,200.00 93.10,110.40"/>
        <lane id="NC_1" index="1" allow="passenger" speed="13.89" length="89.60" shape="95.20,200.00 95.20,110.40"/>
        <lane id="NC_2" index="2" allow="passenger" speed="13.89" length="89.60" shape="98.40,200.00 98.40,110.40"/>
    </edge>
    <edge id="SC" from="S" to="C" priority="2">
        <lane id="SC_0" index="0" allow="bicycle" speed="13.89" length="89.60" width="1.00" shape="106.90,0.00 106.90,89.60"/>
        <lane id="SC_1" index="1" allow="passenger" speed="13.89" length="89.60" shape="104.80,0.00 104.80,89.60"/>
        <lane id="SC_2" index="2" allow="passenger" speed="13.89" length="89.60" shape="101.60,0.00 101.60,89.60"/>
    </edge>
    <edge id="WC" from="W" to="C" priority="3">
        <lane id="WC_0" index="0" allow="bicycle" speed="13.89" length="89.60" width="1.00" shape="0.00,93.10 89.60,93.10"/>
        <lane id="WC_1" index="1" allow="passenger" speed="13.89" length="89.60" shape="0.00,95.20 89.60,95.20"/>
        <lane id="WC_2" index="2" allow="passenger" speed="13.89" length="89.60" shape="0.00,98.40 89.60,98.40"/>
    </edge>

    <junction id="C" type="priority" x="100.00" y="100.00" incLanes="NC_0 NC_1 NC_2 EC_0 EC_1 EC_2 SC_0 SC_1 SC_2 WC_0 WC_1 WC_2" intLanes=":C_0_0 :C_1_0 :C_2_0 :C_3_0 :C_3_1 :C_5_0 :C_6_0 :C_7_0 :C_24_0 :C_9_0 :C_9_1 :C_25_0 :C_12_0 :C_13_0 :C_14_0 :C_15_0 :C_15_1 :C_17_0 :C_18_0 :C_19_0 :C_26_0 :C_21_0 :C_21_1 :C_27_0" shape="92.60,110.40 107.40,110.40 110.40,107.40 110.40,92.60 107.40,89.60 92.60,89.60 89.60,92.60 89.60,107.40">
        <request index="0"  response="000000000000000010000000" foes="000000000000000010000000" cont="0"/>
        <request index="1"  response="111111000000011010000000" foes="111111100000011010000100" cont="0"/>
        <request index="2"  response="000000000000011010000010" foes="000000000000011010000010" cont="0"/>
        <request index="3"  response="111110000000111010000000" foes="111110100000111010000000" cont="0"/>
        <request index="4"  response="111110000000111010000000" foes="111110100000111010000000" cont="0"/>
        <request index="5"  response="111000011010111010000000" foes="111000011010111010000000" cont="0"/>
        <request index="6"  response="000000000000000000000000" foes="000000000010000000000000" cont="0"/>
        <request index="7"  response="000000000000000000000000" foes="100000011010000100111111" cont="0"/>
        <request index="8"  response="000000000000000010000000" foes="000000011010000010000000" cont="1"/>
        <request index="9"  response="000000000000000000000000" foes="100000111010000000111110" cont="0"/>
        <request index="10" response="000000000000000000000000" foes="100000111010000000111110" cont="0"/>
        <request index="11" response="011010000000000000000000" foes="011010111010000000111000" cont="1"/>
        <request index="12" response="000010000000000000000000" foes="000010000000000000000000" cont="0"/>
        <request index="13" response="011010000000111111000000" foes="011010000100111111100000" cont="0"/>
        <request index="14" response="011010000010000000000000" foes="011010000010000000000000" cont="0"/>
        <request index="15" response="111010000000111110000000" foes="111010000000111110100000" cont="0"/>
        <request index="16" response="111010000000111110000000" foes="111010000000111110100000" cont="0"/>
        <request index="17" response="111010000000111000011010" foes="111010000000111000011010" cont="0"/>
        <request index="18" response="000000000000000000000000" foes="000000000000000000000010" cont="0"/>
        <request index="19" response="000000000000000000000000" foes="000100111111100000011010" cont="0"/>
        <request index="20" response="000010000000000000000000" foes="000010000000000000011010" cont="1"/>
        <request index="21" response="000000000000000000000000" foes="000000111110100000111010" cont="0"/>
        <request index="22" response="000000000000000000000000" foes="000000111110100000111010" cont="0"/>
        <request index="23" response="000000000000011010000000" foes="000000111000011010111010" cont="1"/>
    </junction>
    <junction id="E" type="priority" x="200.00" y="100.00" incLanes="CE_0 CE_1 CE_2" intLanes=":E_0_0" shape="200.00,100.00 200.00,92.60 200.00,100.00">
        <request index="0" response="0" foes="0" cont="0"/>
    </junction>
    <junction id="N" type="priority" x="100.00" y="200.00" incLanes="CN_0 CN_1 CN_2" intLanes=":N_0_0" shape="100.00,200.00 107.40,200.00 100.00,200.00">
        <request index="0" response="0" foes="0" cont="0"/>
    </junction>
    <junction id="S" type="priority" x="100.00" y="0.00" incLanes="CS_0 CS_1 CS_2" intLanes=":S_0_0" shape="100.00,0.00 92.60,0.00 100.00,0.00">
        <request index="0" response="0" foes="0" cont="0"/>
    </junction>
    <junction id="W" type="priority" x="0.00" y="100.00" incLanes="CW_0 CW_1 CW_2" intLanes=":W_0_0" shape="0.00,100.00 0.00,107.40 0.00,100.00">
        <request index="0" response="0" foes="0" cont="0"/>
    </junction>

    <junction id=":C_24_0" type="internal" x="108.94" y="105.01" incLanes=":C_8_0 EC_0" intLanes=":C_7_0 :C_13_0 :C_15_0 :C_15_1 :C_23_0"/>
    <junction id=":C_25_0" type="internal" x="105.44" y="100.89" incLanes=":C_11_0 WC_0 WC_1 WC_2" intLanes=":C_1_0 :C_3_0 :C_3_1 :C_5_0 :C_13_0 :C_15_0 :C_15_1 :C_17_0 :C_18_0 :C_19_0 :C_20_0 :C_21_0 :C_21_1"/>
    <junction id=":C_26_0" type="internal" x="91.06" y="94.99" incLanes=":C_20_0 WC_0" intLanes=":C_1_0 :C_3_0 :C_3_1 :C_11_0 :C_19_0"/>
    <junction id=":C_27_0" type="internal" x="94.56" y="99.11" incLanes=":C_23_0 EC_0 EC_1 EC_2" intLanes=":C_1_0 :C_3_0 :C_3_1 :C_5_0 :C_6_0 :C_7_0 :C_8_0 :C_9_0 :C_9_1 :C_13_0 :C_15_0 :C_15_1 :C_17_0"/>

    <connection from="CE" to="EC" fromLane="2" toLane="2" via=":E_0_0" dir="t" state="M"/>
    <connection from="CN" to="NC" fromLane="2" toLane="2" via=":N_0_0" dir="t" state="M"/>
    <connection from="CS" to="SC" fromLane="2" toLane="2" via=":S_0_0" dir="t" state="M"/>
    <connection from="CW" to="WC" fromLane="2" toLane="2" via=":W_0_0" dir="t" state="M"/>
    <connection from="EC" to="CN" fromLane="0" toLane="0" via=":C_6_0" dir="r" state="M"/>
    <connection from="EC" to="CW" fromLane="0" toLane="0" via=":C_7_0" dir="s" state="M"/>
    <connection from="EC" to="CN" fromLane="1" toLane="1" via=":C_8_0" dir="r" state="m"/>
    <connection from="EC" to="CW" fromLane="1" toLane="1" via=":C_9_0" dir="s" state="M"/>
    <connection from="EC" to="CW" fromLane="2" toLane="2" via=":C_9_1" dir="s" state="M"/>
    <connection from="EC" to="CS" fromLane="2" toLane="2" via=":C_11_0" dir="l" state="m"/>
    <connection from="NC" to="CW" fromLane="0" toLane="0" via=":C_0_0" dir="r" state="m"/>
    <connection from="NC" to="CS" fromLane="0" toLane="0" via=":C_1_0" dir="s" state="m"/>
    <connection from="NC" to="CW" fromLane="1" toLane="1" via=":C_2_0" dir="r" state="m"/>
    <connection from="NC" to="CS" fromLane="1" toLane="1" via=":C_3_0" dir="s" state="m"/>
    <connection from="NC" to="CS" fromLane="2" toLane="2" via=":C_3_1" dir="s" state="m"/>
    <connection from="NC" to="CE" fromLane="2" toLane="2" via=":C_5_0" dir="l" state="m"/>
    <connection from="SC" to="CE" fromLane="0" toLane="0" via=":C_12_0" dir="r" state="m"/>
    <connection from="SC" to="CN" fromLane="0" toLane="0" via=":C_13_0" dir="s" state="m"/>
    <connection from="SC" to="CE" fromLane="1" toLane="1" via=":C_14_0" dir="r" state="m"/>
    <connection from="SC" to="CN" fromLane="1" toLane="1" via=":C_15_0" dir="s" state="m"/>
    <connection from="SC" to="CN" fromLane="2" toLane="2" via=":C_15_1" dir="s" state="m"/>
    <connection from="SC" to="CW" fromLane="2" toLane="2" via=":C_17_0" dir="l" state="m"/>
    <connection from="WC" to="CS" fromLane="0" toLane="0" via=":C_18_0" dir="r" state="M"/>
    <connection from="WC" to="CE" fromLane="0" toLane="0" via=":C_19_0" dir="s" state="M"/>
    <connection from="WC" to="CS" fromLane="1" toLane="1" via=":C_20_0" dir="r" state="m"/>
    <connection from="WC" to="CE" fromLane="1" toLane="1" via=":C_21_0" dir="s" state="M"/>
    <connection from="WC" to="CE" fromLane="2" toLane="2" via=":C_21_1" dir="s" state="M"/>
    <connection from="WC" to="CN" fromLane="2" toLane="2" via=":C_23_0" dir="l" state="m"/>

    <connection from=":C_0" to="CW" fromLane="0" toLane="0" dir="r" state="M"/>
    <connection from=":C_1" to="CS" fromLane="0" toLane="0" dir="s" state="M"/>
    <connection from=":C_2" to="CW" fromLane="0" toLane="1" dir="r" state="M"/>
    <connection from=":C_3" to="CS" fromLane="0" toLane="1" dir="s" state="M"/>
    <connection from=":C_3" to="CS" fromLane="1" toLane="2" dir="s" state="M"/>
    <connection from=":C_5" to="CE" fromLane="0" toLane="2" dir="l" state="M"/>
    <connection from=":C_6" to="CN" fromLane="0" toLane="0" dir="r" state="M"/>
    <connection from=":C_7" to="CW" fromLane="0" toLane="0" dir="s" state="M"/>
    <connection from=":C_8" to="CN" fromLane="0" toLane="1" via=":C_24_0" dir="r" state="m"/>
    <connection from=":C_24" to="CN" fromLane="0" toLane="1" dir="r" state="M"/>
    <connection from=":C_9" to="CW" fromLane="0" toLane="1" dir="s" state="M"/>
    <connection from=":C_9" to="CW" fromLane="1" toLane="2" dir="s" state="M"/>
    <connection from=":C_11" to="CS" fromLane="0" toLane="2" via=":C_25_0" dir="l" state="m"/>
    <connection from=":C_25" to="CS" fromLane="0" toLane="2" dir="l" state="M"/>
    <connection from=":C_12" to="CE" fromLane="0" toLane="0" dir="r" state="M"/>
    <connection from=":C_13" to="CN" fromLane="0" toLane="0" dir="s" state="M"/>
    <connection from=":C_14" to="CE" fromLane="0" toLane="1" dir="r" state="M"/>
    <connection from=":C_15" to="CN" fromLane="0" toLane="1" dir="s" state="M"/>
    <connection from=":C_15" to="CN" fromLane="1" toLane="2" dir="s" state="M"/>
    <connection from=":C_17" to="CW" fromLane="0" toLane="2" dir="l" state="M"/>
    <connection from=":C_18" to="CS" fromLane="0" toLane="0" dir="r" state="M"/>
    <connection from=":C_19" to="CE" fromLane="0" toLane="0" dir="s" state="M"/>
    <connection from=":C_20" to="CS" fromLane="0" toLane="1" via=":C_26_0" dir="r" state="m"/>
    <connection from=":C_26" to="CS" fromLane="0" toLane="1" dir="r" state="M"/>
    <connection from=":C_21" to="CE" fromLane="0" toLane="1" dir="s" state="M"/>
    <connection from=":C_21" to="CE" fromLane="1" toLane="2" dir="s" state="M"/>
    <connection from=":C_23" to="CN" fromLane="0" toLane="2" via=":C_27_0" dir="l" state="m"/>
    <connection from=":C_27" to="CN" fromLane="0" toLane="2" dir="l" state="M"/>
    <connection from=":E_0" to="EC" fromLane="0" toLane="2" dir="t" state="M"/>
    <connection from=":N_0" to="NC" fromLane="0" toLane="2" dir="t" state="M"/>
    <connection from=":S_0" to="SC" fromLane="0" toLane="2" dir="t" state="M"/>
    <connection from=":W_0" to="WC" fromLane="0" toLane="2" dir="t" state="M"/>

</net>
