<routes>
    <vType sigma="0" id="t" impatience="off"/>
</routes>
