<additional xmlns:xsi="http://www.w3.org/2001/XMLSchema-instance" xsi:noNamespaceSchemaLocation="http://sumo.dlr.de/xsd/additional_file.xsd">
    
	<!-- valid friendlyPos (missing) -->
    <e2Detector id="E2_01" lane="gneE0_0" pos="35" length="10.00" freq="120.00" file="fileA.txt" timeThreshold="1.00" speedThreshold="1.39" jamThreshold="12.00"/>
	
	<!-- non valid friendlyPos (dummy) -->
    <e2Detector id="E2_02" lane="gneE0_0" pos="35" length="10.00" freq="120.00" file="fileA.txt" timeThreshold="1.00" speedThreshold="1.39" jamThreshold="12.00" friendlyPos="dummyFriendlyPos"/>
	
	<!-- valid friendlyPos, invalid pos 1 -->
    <e2Detector id="E2_03" lane="gneE0_0" pos="-50" length="10.00" freq="120.00" file="fileA.txt" timeThreshold="1.00" speedThreshold="1.39" jamThreshold="12.00" friendlyPos="1"/>
	
	<!-- valid friendlyPos, invalid pos 1 -->
    <e2Detector id="E2_04" lane="gneE0_0" pos="500" length="10.00" freq="120.00" file="fileA.txt" timeThreshold="1.00" speedThreshold="1.39" jamThreshold="12.00" friendlyPos="1"/>

	<!-- valid friendlyPos, invalid lenght 1-->
    <e2Detector id="E2_05" lane="gneE0_0" pos="36" length="800.00" freq="120.00" file="fileA.txt" timeThreshold="1.00" speedThreshold="1.39" jamThreshold="12.00" friendlyPos="1"/>
	
	<!-- valid friendlyPos, invalid lenght 2-->
    <e2Detector id="E2_06" lane="gneE0_0" pos="37" length="-200.00" freq="120.00" file="fileA.txt" timeThreshold="1.00" speedThreshold="1.39" jamThreshold="12.00" friendlyPos="1"/>

</additional>
