<add>
    <route id="r1" edges="start critical end"/>
    <calibrator id="critical" lane="critical_0" pos="0" output="detector.xml">
        <flow begin="0"   end="200"  route="r1"  vehsPerHour="2000" speed="36.11"/>
    </calibrator>
</add>
