<?xml version="1.0" encoding="UTF-8"?>

<!-- generated on Mon Feb 24 13:44:42 2020 by Eclipse SUMO Version v1_5_0+0228-d0a6fb126b
<configuration xmlns:xsi="http://www.w3.org/2001/XMLSchema-instance" xsi:noNamespaceSchemaLocation="http://sumo.dlr.de/xsd/sumoConfiguration.xsd">

    <input>
        <net-file value="input_net.net.xml"/>
        <route-files value="input_routes.rou.xml"/>
        <additional-files value="input_additional.add.xml"/>
    </input>

    <output>
        <fcd-output value="fcd.xml"/>
    </output>

    <report>
        <no-step-log value="true"/>
    </report>

    <traci_server>
        <remote-port value="57911"/>
    </traci_server>

</configuration>
-->

<ToCDeviceLog>
    <TOR id="ToC_veh" t="2.00" lane="2/1to3/1_0" lanePos="0.00" x="2877.10" y="2449.47"/>
    <MRM id="ToC_veh" t="2.00" lane="2/1to3/1_0" lanePos="0.00" x="2877.10" y="2449.47"/>
    <ToCdown id="ToC_veh" t="25.00" lane="2/1to3/1_0" lanePos="0.00" x="2873.70" y="2451.94"/>
    <ToCup id="ToC_veh" t="127.00" lane="3/1to4/1_0" lanePos="0.98" x="1103.39" y="3027.41"/>
    <TOR id="ToC_veh" t="202.00" lane="5/1to6/1_0" lanePos="0.57" x="123.72" y="1908.00"/>
    <MRM id="ToC_veh" t="222.00" lane="5/1to6/1_0" lanePos="0.98" x="-4.68" y="1512.82"/>
    <ToCdown id="ToC_veh" t="225.00" lane="6/1to7/1_0" lanePos="0.06" x="12.77" y="1455.92"/>
    <ToCup id="ToC_veh" t="227.00" lane="6/1to7/1_0" lanePos="0.10" x="25.37" y="1417.14"/>
    <TOR id="ToC_veh" t="242.00" lane="6/1to7/1_0" lanePos="0.41" x="121.67" y="1120.76"/>
    <ToCup id="ToC_veh" t="252.00" lane="6/1to7/1_0" lanePos="0.62" x="185.87" y="923.17"/>
    <TOR id="ToC_veh" t="262.00" lane="6/1to7/1_0" lanePos="0.82" x="250.07" y="725.58"/>
    <ToCup id="ToC_veh" t="277.00" lane="7/1to8/1_0" lanePos="0.15" x="423.49" y="483.92"/>
    <TOR id="ToC_veh" t="302.00" lane="7/1to8/1_0" lanePos="0.67" x="843.68" y="178.64"/>
    <ToCdown id="ToC_veh" t="325.00" lane="8/1to9/1_0" lanePos="0.17" x="1262.98" y="-4.95"/>
    <ToCup id="ToC_veh" t="377.00" lane="9/1to10/1_0" lanePos="0.22" x="2263.19" y="126.96"/>
</ToCDeviceLog>
