<?xml version="1.0" encoding="UTF-8"?>

<!-- generated on 2024-06-04 09:44:28 by Eclipse SUMO netconvert Version v1_20_0+0345-f9c5dc4db4d
-->

<configuration xmlns:xsi="http://www.w3.org/2001/XMLSchema-instance" xsi:noNamespaceSchemaLocation="http://sumo.dlr.de/xsd/netconvertConfiguration.xsd">

    <input>
        <node-files value="input_net_loadedmanually.nod.xml"/>
        <edge-files value="input_net_loadedmanually.edg.xml"/>
        <connection-files value="input_net_loadedmanually.con.xml"/>
    </input>

    <output>
        <output-file value="input_net_loadedmanually.net.xml"/>
    </output>

</configuration>
