<?xml version="1.0" encoding="UTF-8"?>

<!-- generated on 07.08.2019 12:04:45 by Eclipse SUMO netedit Version v1_2_0+1449-4e81e5b6f5
<configuration xmlns:xsi="http://www.w3.org/2001/XMLSchema-instance" xsi:noNamespaceSchemaLocation="http://sumo.dlr.de/xsd/netconvertConfiguration.xsd">

    <input>
        <sumo-net-file value="C:/Users/SUMO-Test/.texttest/tmp/netedit.gui.07Aug081821.3780/netedit.gui/additionalElements/e1InstantDetector/inspect_selection/friendlypos\input_net.net.xml"/>
    </input>

    <output>
        <output-file value="C:/Users/SUMO-Test/.texttest/tmp/netedit.gui.07Aug081821.3780/netedit.gui/additionalElements/e1InstantDetector/inspect_selection/friendlypos\net.net.xml"/>
    </output>

    <processing>
        <geometry.max-grade.fix value="false"/>
        <offset.disable-normalization value="true"/>
        <lefthand value="false"/>
    </processing>

    <junctions>
        <no-turnarounds value="true"/>
        <junctions.corner-detail value="5"/>
        <junctions.limit-turn-speed value="5.5"/>
        <rectangular-lane-cut value="false"/>
    </junctions>

    <pedestrian>
        <walkingareas value="false"/>
    </pedestrian>

    <netedit>
        <additional-files value="C:/Users/SUMO-Test/.texttest/tmp/netedit.gui.07Aug081821.3780/netedit.gui/additionalElements/e1InstantDetector/inspect_selection/friendlypos\additionals.xml"/>
        <additionals-output value="C:/Users/SUMO-Test/.texttest/tmp/netedit.gui.07Aug081821.3780/netedit.gui/additionalElements/e1InstantDetector/inspect_selection/friendlypos\additionals.xml"/>
        <route-files value="C:/Users/SUMO-Test/.texttest/tmp/netedit.gui.07Aug081821.3780/netedit.gui/additionalElements/e1InstantDetector/inspect_selection/friendlypos\routes.xml"/>
        <demandelements-output value="C:/Users/SUMO-Test/.texttest/tmp/netedit.gui.07Aug081821.3780/netedit.gui/additionalElements/e1InstantDetector/inspect_selection/friendlypos\routes.xml"/>
    </netedit>

    <visualisation>
        <gui-settings-file value="C:/Users/SUMO-Test/.texttest/tmp/netedit.gui.07Aug081821.3780/netedit.gui/additionalElements/e1InstantDetector/inspect_selection/friendlypos\gui-settings.xml"/>
        <window-size value="700,500"/>
        <window-pos value="50,50"/>
        <gui-testing value="true"/>
        <gui-testing-debug value="true"/>
    </visualisation>

    <report>
        <no-warnings value="true"/>
        <error-log value="C:/Users/SUMO-Test/.texttest/tmp/netedit.gui.07Aug081821.3780/netedit.gui/additionalElements/e1InstantDetector/inspect_selection/friendlypos\log.txt"/>
    </report>

</configuration>
-->

<additional xmlns:xsi="http://www.w3.org/2001/XMLSchema-instance" xsi:noNamespaceSchemaLocation="http://sumo.dlr.de/xsd/additional_file.xsd">
    <instantInductionLoop id="E1_A" lane="gneE0_0" pos="6.00" name="DetectorA" file="fileA.txt" vTypes="Type1 Type2 Type3" friendlyPos="1">
        <param key="KeyA1" value="valueA1"/>
        <param key="KeyA2" value="valueA3"/>
        <param key="KeyA3" value="valueA2"/>
    </instantInductionLoop>
    <instantInductionLoop id="E1_B" lane="gneE0_0" pos="10.00" name="DetectorB" file="fileB.txt" vTypes="Type4 Type5 Type6" friendlyPos="1">
        <param key="KeyB1" value="valueB1"/>
        <param key="KeyB2" value="valueB3"/>
        <param key="KeyB3" value="valueB2"/>
    </instantInductionLoop>
</additional>
