<routes>
    <vType id="DEFAULT_VEHTYPE" vClass="bus"/>

    <trip id="1" depart="0" from="SC" to="CN"/>

</routes>
