<?xml version="1.0" encoding="UTF-8"?>

<!-- generated on Mon Dec 14 11:32:11 2020 by Eclipse SUMO netconvert Version v1_8_0+0240-6f1f621077
This data file and the accompanying materials
are made available under the terms of the Eclipse Public License v2.0
which accompanies this distribution, and is available at
http://www.eclipse.org/legal/epl-v20.html
SPDX-License-Identifier: EPL-2.0
<configuration xmlns:xsi="http://www.w3.org/2001/XMLSchema-instance" xsi:noNamespaceSchemaLocation="http://sumo.dlr.de/xsd/netconvertConfiguration.xsd">

    <input>
        <node-files value="input_nodes.nod.xml"/>
        <edge-files value="input_edges.edg.xml"/>
        <type-files value="input_types.typ.xml"/>
    </input>

    <output>
        <write-license value="true"/>
        <output-file value="net.net.xml"/>
    </output>

    <edge_removal>
        <remove-edges.by-vclass value="pedestrian"/>
    </edge_removal>

    <junctions>
        <no-internal-links value="true"/>
    </junctions>

    <report>
        <verbose value="true"/>
        <xml-validation value="never"/>
        <aggregate-warnings value="5"/>
        <ignore-errors.edge-type value="true"/>
    </report>

</configuration>
-->

<net version="1.16" junctionCornerDetail="5" limitTurnSpeed="5.50" xmlns:xsi="http://www.w3.org/2001/XMLSchema-instance" xsi:noNamespaceSchemaLocation="http://sumo.dlr.de/xsd/net_file.xsd">

    <location netOffset="500.00,500.00" convBoundary="0.00,0.00,1000.00,1000.00" origBoundary="-500.00,-500.00,500.00,500.00" projParameter="!"/>

    <type id="a" priority="3" numLanes="3" speed="13.89">
        <laneType index="0" speed="10.00" width="3.00"/>
        <laneType index="1" speed="20.00" width="4.50"/>
        <laneType index="2" speed="30.00" width="6.00"/>
    </type>
    <type id="b" priority="2" numLanes="2" speed="11.11">
        <laneType index="0" speed="15.00"/>
        <laneType index="1" width="2.00"/>
    </type>
    <type id="c" priority="1" numLanes="1" speed="11.11" allow="bicycle">
        <laneType index="0" speed="25.00" allow="bus"/>
    </type>
    <type id="d" priority="1" numLanes="1" speed="2.90" allow="pedestrian">
        <laneType index="0" speed="35.00" disallow="pedestrian"/>
    </type>

    <edge id="1fi" from="1" to="m1" priority="-1" type="e">
        <lane id="1fi_0" index="0" speed="13.89" length="250.00" shape="0.00,498.40 250.00,498.40"/>
    </edge>
    <edge id="1o" from="0" to="1" priority="-1" type="e">
        <lane id="1o_0" index="0" speed="13.89" length="500.00" shape="482.50,501.60 0.00,501.60"/>
    </edge>
    <edge id="1si" from="m1" to="0" priority="-1" type="e">
        <lane id="1si_0" index="0" speed="13.89" length="250.00" shape="250.00,498.40 482.50,498.40"/>
    </edge>
    <edge id="2fi" from="2" to="m2" priority="2" type="b">
        <lane id="2fi_0" index="0" speed="15.00" length="250.00" shape="1000.00,503.60 754.00,503.60"/>
        <lane id="2fi_1" index="1" speed="11.11" length="250.00" width="2.00" shape="1000.00,501.00 754.00,501.00"/>
    </edge>
    <edge id="2o" from="0" to="2" priority="1" type="c">
        <lane id="2o_0" index="0" allow="bus" speed="25.00" length="500.00" shape="517.50,498.40 1000.00,498.40"/>
    </edge>
    <edge id="2si" from="m2" to="0" priority="3" type="a">
        <lane id="2si_0" index="0" speed="10.00" length="250.00" width="3.00" shape="746.00,512.00 517.50,512.00"/>
        <lane id="2si_1" index="1" speed="20.00" length="250.00" width="4.50" shape="746.00,508.25 517.50,508.25"/>
        <lane id="2si_2" index="2" speed="30.00" length="250.00" width="6.00" shape="746.00,503.00 517.50,503.00"/>
    </edge>
    <edge id="3fi" from="3" to="m3" priority="2" type="b">
        <lane id="3fi_0" index="0" speed="15.00" length="250.00" shape="503.60,0.00 503.60,246.00"/>
        <lane id="3fi_1" index="1" speed="11.11" length="250.00" width="2.00" shape="501.00,0.00 501.00,246.00"/>
    </edge>
    <edge id="3o" from="0" to="3" priority="1" type="c">
        <lane id="3o_0" index="0" allow="bus" speed="25.00" length="500.00" shape="498.40,492.80 498.40,0.00"/>
    </edge>
    <edge id="3si" from="m3" to="0" priority="3" type="a">
        <lane id="3si_0" index="0" speed="10.00" length="250.00" width="3.00" shape="512.00,254.00 512.00,492.80"/>
        <lane id="3si_1" index="1" speed="20.00" length="250.00" width="4.50" shape="508.25,254.00 508.25,492.80"/>
        <lane id="3si_2" index="2" speed="30.00" length="250.00" width="6.00" shape="503.00,254.00 503.00,492.80"/>
    </edge>
    <edge id="4fi" from="4" to="m4" priority="2" type="b">
        <lane id="4fi_0" index="0" speed="15.00" length="250.00" shape="496.40,1000.00 496.40,754.00"/>
        <lane id="4fi_1" index="1" speed="11.11" length="250.00" width="2.00" shape="499.00,1000.00 499.00,754.00"/>
    </edge>
    <edge id="4o" from="0" to="4" priority="1" type="d">
        <lane id="4o_0" index="0" disallow="pedestrian" speed="35.00" length="500.00" shape="501.60,517.50 501.60,1000.00"/>
    </edge>
    <edge id="4si" from="m4" to="0" priority="3" type="a">
        <lane id="4si_0" index="0" speed="10.00" length="250.00" width="3.00" shape="488.00,746.00 488.00,517.50"/>
        <lane id="4si_1" index="1" speed="20.00" length="250.00" width="4.50" shape="491.75,746.00 491.75,517.50"/>
        <lane id="4si_2" index="2" speed="30.00" length="250.00" width="6.00" shape="497.00,746.00 497.00,517.50"/>
    </edge>

    <tlLogic id="0" type="static" programID="0" offset="0">
        <phase duration="33" state="GGggrrrrGGggrrrr"/>
        <phase duration="3"  state="yyggrrrryyggrrrr"/>
        <phase duration="6"  state="rrGGrrrrrrGGrrrr"/>
        <phase duration="3"  state="rryyrrrrrryyrrrr"/>
        <phase duration="33" state="rrrrGGggrrrrGGgg"/>
        <phase duration="3"  state="rrrryyggrrrryygg"/>
        <phase duration="6"  state="rrrrrrGGrrrrrrGG"/>
        <phase duration="3"  state="rrrrrryyrrrrrryy"/>
    </tlLogic>

    <junction id="0" type="traffic_light" x="500.00" y="500.00" incLanes="4si_0 4si_1 4si_2 2si_0 2si_1 2si_2 3si_0 3si_1 3si_2 1si_0" intLanes="" shape="486.50,517.50 503.20,517.50 504.79,515.28 506.78,514.50 509.56,513.94 513.13,513.61 517.50,513.50 517.50,496.80 515.28,496.36 514.50,495.80 513.94,495.02 513.61,494.02 513.50,492.80 496.80,492.80 495.21,495.02 493.22,495.80 490.44,496.36 486.87,496.69 482.50,496.80 482.50,503.20 484.72,504.79 485.50,506.78 486.06,509.56 486.39,513.13">
        <request index="0"  response="0000000000000000" foes="1000010000100000"/>
        <request index="1"  response="0000000000000000" foes="0111110001100000"/>
        <request index="2"  response="0000001100000000" foes="0110001111100000"/>
        <request index="3"  response="0100001000010000" foes="0100001000010000"/>
        <request index="4"  response="0000001000000000" foes="0100001000001000"/>
        <request index="5"  response="0000011000000111" foes="1100011000000111"/>
        <request index="6"  response="0011011000000110" foes="0011111000000110"/>
        <request index="7"  response="0010000100000100" foes="0010000100000100"/>
        <request index="8"  response="0000000000000000" foes="0010000010000100"/>
        <request index="9"  response="0000000000000000" foes="0110000001111100"/>
        <request index="10" response="0000000000000011" foes="1110000001100011"/>
        <request index="11" response="0001000001000010" foes="0001000001000010"/>
        <request index="12" response="0000000000000010" foes="0000100001000010"/>
        <request index="13" response="0000011100000110" foes="0000011111000110"/>
        <request index="14" response="0000011000110110" foes="0000011000111110"/>
        <request index="15" response="0000010000100001" foes="0000010000100001"/>
    </junction>
    <junction id="1" type="priority" x="0.00" y="500.00" incLanes="1o_0" intLanes="" shape="0.00,500.00 0.00,503.20 0.00,500.00">
        <request index="0" response="0" foes="0"/>
    </junction>
    <junction id="2" type="priority" x="1000.00" y="500.00" incLanes="2o_0" intLanes="" shape="1000.00,500.00 1000.00,496.80 1000.00,500.00">
        <request index="0" response="0" foes="0"/>
    </junction>
    <junction id="3" type="priority" x="500.00" y="0.00" incLanes="3o_0" intLanes="" shape="500.00,0.00 496.80,0.00 500.00,0.00">
        <request index="0" response="0" foes="0"/>
    </junction>
    <junction id="4" type="priority" x="500.00" y="1000.00" incLanes="4o_0" intLanes="" shape="500.00,1000.00 503.20,1000.00 500.00,1000.00">
        <request index="0" response="0" foes="0"/>
    </junction>
    <junction id="m1" type="priority" x="250.00" y="500.00" incLanes="1fi_0" intLanes="" shape="250.00,500.00 250.00,496.80 250.00,500.00">
        <request index="0" response="0" foes="0"/>
    </junction>
    <junction id="m2" type="priority" x="750.00" y="500.00" incLanes="2fi_0 2fi_1" intLanes="" shape="754.00,505.20 754.00,500.00 746.00,500.00 746.00,513.50 748.19,512.89 749.35,511.35 750.65,507.35 751.81,505.81">
        <request index="0" response="000" foes="000"/>
        <request index="1" response="000" foes="000"/>
        <request index="2" response="000" foes="000"/>
    </junction>
    <junction id="m3" type="priority" x="500.00" y="250.00" incLanes="3fi_0 3fi_1" intLanes="" shape="500.00,254.00 513.50,254.00 512.89,251.81 511.35,250.65 507.35,249.35 505.81,248.19 505.20,246.00 500.00,246.00">
        <request index="0" response="000" foes="000"/>
        <request index="1" response="000" foes="000"/>
        <request index="2" response="000" foes="000"/>
    </junction>
    <junction id="m4" type="priority" x="500.00" y="750.00" incLanes="4fi_0 4fi_1" intLanes="" shape="494.80,754.00 500.00,754.00 500.00,746.00 486.50,746.00 487.11,748.19 488.65,749.35 492.65,750.65 494.19,751.81">
        <request index="0" response="000" foes="000"/>
        <request index="1" response="000" foes="000"/>
        <request index="2" response="000" foes="000"/>
    </junction>

    <connection from="1fi" to="1si" fromLane="0" toLane="0" dir="s" state="M"/>
    <connection from="1o" to="1fi" fromLane="0" toLane="0" dir="t" state="M"/>
    <connection from="1si" to="3o" fromLane="0" toLane="0" tl="0" linkIndex="12" dir="r" state="o"/>
    <connection from="1si" to="2o" fromLane="0" toLane="0" tl="0" linkIndex="13" dir="s" state="o"/>
    <connection from="1si" to="4o" fromLane="0" toLane="0" tl="0" linkIndex="14" dir="l" state="o"/>
    <connection from="1si" to="1o" fromLane="0" toLane="0" tl="0" linkIndex="15" dir="t" state="o"/>
    <connection from="2fi" to="2si" fromLane="0" toLane="0" dir="s" state="M"/>
    <connection from="2fi" to="2si" fromLane="1" toLane="1" dir="s" state="M"/>
    <connection from="2fi" to="2si" fromLane="1" toLane="2" dir="s" state="M"/>
    <connection from="2o" to="2fi" fromLane="0" toLane="1" dir="t" state="M"/>
    <connection from="2si" to="4o" fromLane="0" toLane="0" tl="0" linkIndex="4" dir="r" state="o"/>
    <connection from="2si" to="1o" fromLane="1" toLane="0" tl="0" linkIndex="5" dir="s" state="o"/>
    <connection from="2si" to="3o" fromLane="2" toLane="0" tl="0" linkIndex="6" dir="l" state="o"/>
    <connection from="2si" to="2o" fromLane="2" toLane="0" tl="0" linkIndex="7" dir="t" state="o"/>
    <connection from="3fi" to="3si" fromLane="0" toLane="0" dir="s" state="M"/>
    <connection from="3fi" to="3si" fromLane="1" toLane="1" dir="s" state="M"/>
    <connection from="3fi" to="3si" fromLane="1" toLane="2" dir="s" state="M"/>
    <connection from="3o" to="3fi" fromLane="0" toLane="1" dir="t" state="M"/>
    <connection from="3si" to="2o" fromLane="0" toLane="0" tl="0" linkIndex="8" dir="r" state="O"/>
    <connection from="3si" to="4o" fromLane="1" toLane="0" tl="0" linkIndex="9" dir="s" state="O"/>
    <connection from="3si" to="1o" fromLane="2" toLane="0" tl="0" linkIndex="10" dir="l" state="o"/>
    <connection from="3si" to="3o" fromLane="2" toLane="0" tl="0" linkIndex="11" dir="t" state="o"/>
    <connection from="4fi" to="4si" fromLane="0" toLane="0" dir="s" state="M"/>
    <connection from="4fi" to="4si" fromLane="1" toLane="1" dir="s" state="M"/>
    <connection from="4fi" to="4si" fromLane="1" toLane="2" dir="s" state="M"/>
    <connection from="4o" to="4fi" fromLane="0" toLane="1" dir="t" state="M"/>
    <connection from="4si" to="1o" fromLane="0" toLane="0" tl="0" linkIndex="0" dir="r" state="O"/>
    <connection from="4si" to="3o" fromLane="1" toLane="0" tl="0" linkIndex="1" dir="s" state="O"/>
    <connection from="4si" to="2o" fromLane="2" toLane="0" tl="0" linkIndex="2" dir="l" state="o"/>
    <connection from="4si" to="4o" fromLane="2" toLane="0" tl="0" linkIndex="3" dir="t" state="o"/>

</net>
