<?xml version="1.0" encoding="UTF-8"?>

<!-- generated on Fri Aug  3 12:42:27 2018 by Eclipse SUMO netconvert Version a070e93
This data file and the accompanying materials
are made available under the terms of the Eclipse Public License v2.0
which accompanies this distribution, and is available at
http://www.eclipse.org/legal/epl-v20.html
SPDX-License-Identifier: EPL-2.0
<configuration xmlns:xsi="http://www.w3.org/2001/XMLSchema-instance" xsi:noNamespaceSchemaLocation="http://sumo.dlr.de/xsd/netconvertConfiguration.xsd">

    <input>
        <sumo-net-file value="input_net.net.xml"/>
    </input>

    <output>
        <write-license value="true"/>
        <ptstop-files value="input_ptstops.xml"/>
        <ptline-files value="input_ptlines.xml"/>
        <ptstop-output value="additional.xml"/>
        <ptline-output value="ptlines.xml"/>
        <railway.topology.output value="topology.xml"/>
    </output>

    <processing>
        <no-turnarounds value="true"/>
        <railway.topology.repair value="true"/>
        <offset.disable-normalization value="true"/>
        <lefthand value="false"/>
        <junctions.corner-detail value="5"/>
        <rectangular-lane-cut value="false"/>
        <walkingareas value="false"/>
    </processing>

    <report>
        <verbose value="true"/>
        <xml-validation value="never"/>
    </report>

</configuration>
-->

<additional xmlns:xsi="http://www.w3.org/2001/XMLSchema-instance" xsi:noNamespaceSchemaLocation="http://sumo.dlr.de/xsd/additional_file.xsd">
    <busStop id="-stopBranch" name="stopBranch" lane="-branch_0" startPos="20.00" endPos="90.00" friendlyPos="true"/>
    <busStop id="stopBeg" name="stopBeg" lane="beg_0" startPos="10.00" endPos="80.00" friendlyPos="true"/>
    <busStop id="stopBranch" name="stopBranch" lane="branch_0" startPos="10.00" endPos="80.00" friendlyPos="true"/>
    <busStop id="stopEnd" name="stopEnd" lane="end_0" startPos="10.00" endPos="80.00" friendlyPos="true"/>
</additional>
