<routes xmlns:xsi="http://www.w3.org/2001/XMLSchema-instance" xsi:noNamespaceSchemaLocation="http://sumo.dlr.de/xsd/routes_file.xsd">
    <route id="r0" edges="WE2 WE3 WE4"/>
    <route id="r1" edges="NS3"/>
    <route id="r2" edges="WE4"/>
    <route id="r3" edges="EW1"/>
    <route id="r4" edges="NS1"/>
    <route id="r5" edges="EW4"/>
    <route id="r6" edges="NS2"/>
    <route id="r7" edges="WE1"/>
    <route id="r8" edges="EW3"/>

    <vType id="t0" vClass="truck" />

    <vehicle id="ego" route="r0" depart="0" departPos="50" color="red">
        <stop lane="WE2_0" endPos="50" duration="100" />
    </vehicle>

    <vehicle type="t0" id="v8" route="r0" depart="0" departPos="23" >
        <stop lane="WE2_0" endPos="23" duration="100" />
    </vehicle>

</routes>

