<?xml version="1.0" encoding="UTF-8"?>

<!-- generated on 2021-04-23 09:46:33 by Eclipse SUMO netconvert Version v1_9_0+0188-b036687
This data file and the accompanying materials
are made available under the terms of the Eclipse Public License v2.0
which accompanies this distribution, and is available at
http://www.eclipse.org/legal/epl-v20.html
SPDX-License-Identifier: EPL-2.0
<configuration xmlns:xsi="http://www.w3.org/2001/XMLSchema-instance" xsi:noNamespaceSchemaLocation="http://sumo.dlr.de/xsd/netconvertConfiguration.xsd">

    <input>
        <node-files value="input_plain.nod.xml"/>
        <edge-files value="input_plain.edg.xml"/>
    </input>

    <output>
        <write-license value="true"/>
        <output-file value="net.net.xml"/>
    </output>

    <junctions>
        <no-internal-links value="true"/>
        <no-turnarounds value="true"/>
    </junctions>

    <report>
        <xml-validation value="never"/>
        <aggregate-warnings value="5"/>
    </report>

</configuration>
-->

<net version="1.16" junctionCornerDetail="5" limitTurnSpeed="5.50" xmlns:xsi="http://www.w3.org/2001/XMLSchema-instance" xsi:noNamespaceSchemaLocation="http://sumo.dlr.de/xsd/net_file.xsd">

    <location netOffset="100.00,100.00" convBoundary="0.00,0.00,200.00,100.00" origBoundary="-10000000000.00,-10000000000.00,10000000000.00,10000000000.00" projParameter="!"/>

    <edge id="CE" from="C" to="E" priority="-1">
        <lane id="CE_0" index="0" allow="bicycle" speed="13.89" length="99.49" width="1.00" shape="108.90,93.10 200.00,93.10"/>
        <lane id="CE_1" index="1" disallow="bicycle" speed="13.89" length="99.49" shape="108.90,95.20 200.00,95.20"/>
        <lane id="CE_2" index="2" disallow="bicycle" speed="13.89" length="99.49" shape="108.90,98.40 200.00,98.40"/>
    </edge>
    <edge id="CS" from="C" to="S" priority="-1">
        <lane id="CS_0" index="0" disallow="bicycle" speed="13.89" length="130.66" shape="108.27,89.47 198.87,-1.13"/>
    </edge>
    <edge id="WC" from="W" to="C" priority="-1">
        <lane id="WC_0" index="0" allow="bicycle" speed="13.89" length="113.18" width="1.00" shape="0.00,89.90 104.57,89.90"/>
        <lane id="WC_1" index="1" disallow="bicycle" speed="13.89" length="113.18" shape="0.00,92.00 104.57,92.00"/>
        <lane id="WC_2" index="2" disallow="bicycle" speed="13.89" length="113.18" shape="0.00,95.20 104.57,95.20"/>
        <lane id="WC_3" index="3" disallow="bicycle" speed="13.89" length="113.18" shape="0.00,98.40 104.57,98.40"/>
    </edge>

    <junction id="C" type="priority" x="100.00" y="100.00" incLanes="WC_0 WC_1 WC_2 WC_3" intLanes="" shape="108.90,100.00 108.90,92.60 108.29,92.38 108.27,92.10 108.45,91.71 108.83,91.21 109.40,90.60 107.14,88.34 106.38,88.93 105.96,89.13 105.53,89.28 105.06,89.37 104.57,89.40 104.57,100.00">
        <request index="0" response="0000" foes="0010"/>
        <request index="1" response="0001" foes="0001"/>
        <request index="2" response="0000" foes="0000"/>
        <request index="3" response="0000" foes="0000"/>
    </junction>
    <junction id="E" type="dead_end" x="200.00" y="100.00" incLanes="CE_0 CE_1 CE_2" intLanes="" shape="200.00,92.60 200.00,100.00"/>
    <junction id="S" type="dead_end" x="200.00" y="0.00" incLanes="CS_0" intLanes="" shape="197.74,-2.26 200.00,-0.00"/>
    <junction id="W" type="dead_end" x="0.00" y="100.00" incLanes="" intLanes="" shape="0.00,100.00 0.00,89.40"/>

    <connection from="WC" to="CE" fromLane="0" toLane="0" dir="s" state="M"/>
    <connection from="WC" to="CS" fromLane="1" toLane="0" dir="r" state="m"/>
    <connection from="WC" to="CE" fromLane="2" toLane="1" dir="s" state="M"/>
    <connection from="WC" to="CE" fromLane="3" toLane="2" dir="s" state="M"/>

</net>
