<?xml version="1.0" encoding="UTF-8"?>

<!-- generated on Mon May  4 12:45:10 2020 by Eclipse SUMO netconvert Version v1_6_0+0054-5c9e25f886
This data file and the accompanying materials
are made available under the terms of the Eclipse Public License v2.0
which accompanies this distribution, and is available at
http://www.eclipse.org/legal/epl-v20.html
SPDX-License-Identifier: EPL-2.0
<configuration xmlns:xsi="http://www.w3.org/2001/XMLSchema-instance" xsi:noNamespaceSchemaLocation="http://sumo.dlr.de/xsd/netconvertConfiguration.xsd">

    <input>
        <type-files value="input_types.typ.xml"/>
        <osm-files value="osm.xml"/>
    </input>

    <output>
        <write-license value="true"/>
        <output-file value="net.net.xml"/>
        <ptstop-output value="additional.xml"/>
    </output>

    <projection>
        <proj.utm value="true"/>
    </projection>

    <formats>
        <osm.stop-output.length value="200"/>
    </formats>

    <report>
        <xml-validation value="never"/>
        <aggregate-warnings value="5"/>
    </report>

</configuration>
-->

<additional xmlns:xsi="http://www.w3.org/2001/XMLSchema-instance" xsi:noNamespaceSchemaLocation="http://sumo.dlr.de/xsd/additional_file.xsd">
    <busStop id="4014639411" name="Hallesche Allee" lane="412820207_0" startPos="0.00" endPos="48.91" friendlyPos="true"/>
</additional>
