<?xml version="1.0" encoding="UTF-8"?>

<!-- generated on 2026-03-12T13:57:10.885898+01:00 by Eclipse SUMO netedit v1_26_0+0554-81aa540d77f
<neteditConfiguration xmlns:xsi="http://www.w3.org/2001/XMLSchema-instance" xsi:noNamespaceSchemaLocation="http://sumo.dlr.de/xsd/neteditConfiguration.xsd">

    <input>
        <sumocfg-file value="/localdata1/debug/onRampYield/test.sumocfg"/>
        <route-files value="/localdata1/debug/onRampYield/test.rou.xml"/>
        <sumo-net-file value="/localdata1/debug/onRampYield/net.net.xml"/>
    </input>

    <output>
        <output-file value="/localdata1/debug/onRampYield/net.net.xml"/>
    </output>

    <processing>
        <offset.disable-normalization value="true"/>
    </processing>

    <junctions>
        <no-turnarounds value="true"/>
    </junctions>

    <netedit>
        <new-network value="false"/>
    </netedit>

</neteditConfiguration>
-->

<net version="1.20" junctionCornerDetail="5" limitTurnSpeed="5.50" xmlns:xsi="http://www.w3.org/2001/XMLSchema-instance" xsi:noNamespaceSchemaLocation="http://sumo.dlr.de/xsd/net_file.xsd">

    <location netOffset="0.00,0.00" convBoundary="-234.27,-5.13,268.49,43.46" origBoundary="10000000000.00,10000000000.00,-10000000000.00,-10000000000.00" projParameter="!"/>

    <edge id=":J1_0" function="internal">
        <lane id=":J1_0_0" index="0" speed="27.89" length="8.72" shape="21.28,-6.26 29.96,-6.19"/>
        <lane id=":J1_0_1" index="1" speed="27.89" length="8.72" shape="21.25,-3.06 30.00,-2.99"/>
    </edge>
    <edge id=":J1_2" function="internal">
        <lane id=":J1_2_0" index="0" speed="17.16" length="9.11" shape="21.12,1.10 23.59,0.15 25.42,-0.05 27.33,0.10 30.04,0.21"/>
    </edge>
    <edge id=":J2_0" function="internal">
        <lane id=":J2_0_0" index="0" speed="27.89" length="8.27" shape="140.28,-7.51 148.26,-7.64"/>
        <lane id=":J2_0_1" index="1" speed="27.89" length="8.27" shape="140.32,-4.31 148.32,-4.44"/>
        <lane id=":J2_0_2" index="2" speed="27.89" length="8.27" shape="140.36,-1.11 142.82,-1.64 144.34,-2.76 145.87,-3.89 148.32,-4.44"/>
    </edge>

    <edge id="E0" from="J0" to="J1" priority="-1">
        <lane id="E0_0" index="0" speed="27.89" length="255.52" shape="-234.23,-8.44 21.28,-6.26"/>
        <lane id="E0_1" index="1" speed="27.89" length="255.52" shape="-234.26,-5.24 21.25,-3.06"/>
    </edge>
    <edge id="E1" from="J1" to="J2" priority="-1" shape="30.06,1.81 144.39,0.44">
        <lane id="E1_0" index="0" speed="27.89" length="110.33" acceleration="1" shape="29.96,-6.19 140.28,-7.51"/>
        <lane id="E1_1" index="1" speed="27.89" length="110.33" acceleration="1" shape="30.00,-2.99 140.32,-4.31"/>
        <lane id="E1_2" index="2" speed="27.89" length="110.33" shape="30.04,0.21 140.36,-1.11" changeRight="authority"/>
    </edge>
    <edge id="E2" from="J2" to="J3" priority="-1">
        <lane id="E2_0" index="0" speed="27.89" length="120.16" shape="148.26,-7.64 268.40,-9.93"/>
        <lane id="E2_1" index="1" speed="27.89" length="120.16" shape="148.32,-4.44 268.46,-6.73"/>
    </edge>
    <edge id="E3" from="J4" to="J1" priority="-1">
        <lane id="E3_0" index="0" speed="13.89" length="94.74" shape="-64.32,42.02 21.12,1.10"/>
    </edge>

    <junction id="J0" type="dead_end" x="-234.27" y="-3.64" incLanes="" intLanes="" shape="-234.27,-3.64 -234.22,-10.04"/>
    <junction id="J1" type="priority" x="30.02" y="-1.39" incLanes="E0_0 E0_1 E3_0" intLanes=":J1_0_0 :J1_0_1 :J1_2_0" shape="30.06,1.81 29.94,-7.79 21.30,-7.86 21.24,-1.46 21.82,-1.33 21.79,-1.18 21.55,-0.96 21.09,-0.68 20.43,-0.35 21.81,2.54 24.69,1.57 25.78,1.52 26.91,1.62 28.27,1.76">
        <request index="0" response="000" foes="000" cont="0"/>
        <request index="1" response="000" foes="000" cont="0"/>
        <request index="2" response="000" foes="000" cont="0"/>
    </junction>
    <junction id="J2" type="priority" x="144.35" y="-2.76" incLanes="E1_0 E1_1 E1_2" intLanes=":J2_0_0 :J2_0_1 :J2_0_2" shape="148.35,-2.84 148.23,-9.24 140.26,-9.11 140.38,0.49 143.41,-0.38 144.37,-1.16 145.33,-1.95 146.56,-2.57">
        <request index="0" response="000" foes="000" cont="0"/>
        <request index="1" response="000" foes="100" cont="0"/>
        <request index="2" response="010" foes="010" cont="0"/>
    </junction>
    <junction id="J3" type="dead_end" x="268.49" y="-5.13" incLanes="E2_0 E2_1" intLanes="" shape="268.37,-11.53 268.49,-5.13"/>
    <junction id="J4" type="dead_end" x="-63.63" y="43.46" incLanes="" intLanes="" shape="-63.63,43.46 -65.01,40.57"/>

    <connection from="E0" to="E1" fromLane="0" toLane="0" via=":J1_0_0" dir="s" state="M"/>
    <connection from="E0" to="E1" fromLane="1" toLane="1" via=":J1_0_1" dir="s" state="M"/>
    <connection from="E1" to="E2" fromLane="0" toLane="0" via=":J2_0_0" dir="s" state="M"/>
    <connection from="E1" to="E2" fromLane="1" toLane="1" pass="1" via=":J2_0_1" dir="s" state="M"/>
    <connection from="E1" to="E2" fromLane="2" toLane="1" via=":J2_0_2" dir="s" state="m"/>
    <connection from="E3" to="E1" fromLane="0" toLane="2" via=":J1_2_0" dir="s" state="M"/>

    <connection from=":J1_0" to="E1" fromLane="0" toLane="0" dir="s" state="M"/>
    <connection from=":J1_0" to="E1" fromLane="1" toLane="1" dir="s" state="M"/>
    <connection from=":J1_2" to="E1" fromLane="0" toLane="2" dir="s" state="M"/>
    <connection from=":J2_0" to="E2" fromLane="0" toLane="0" dir="s" state="M"/>
    <connection from=":J2_0" to="E2" fromLane="1" toLane="1" dir="s" state="M"/>
    <connection from=":J2_0" to="E2" fromLane="2" toLane="1" dir="s" state="M"/>

</net>
