<?xml version="1.0" encoding="UTF-8"?>

<!-- generated on 2022-04-08 15:05:12 by Eclipse SUMO netedit Version v1_12_0+2069-fdae64d2996
-->

<routes xmlns:xsi="http://www.w3.org/2001/XMLSchema-instance" xsi:noNamespaceSchemaLocation="http://sumo.dlr.de/xsd/routes_file.xsd">
    <!-- Vehicles, persons and containers (sorted by depart) -->
    <vehicle id="vehicle_2" depart="20.00" arrivalSpeed="0.00">
        <route edges="gneE2 gneE4 gneE5" color="cyan"/>
    </vehicle>
    <vehicle id="vehicle_3" depart="20.00" arrivalSpeed="500.00">
        <route edges="gneE2 gneE4 gneE5" color="cyan"/>
    </vehicle>
    <vehicle id="vehicle_4" depart="20.00" arrivalSpeed="1.00">
        <route edges="gneE2 gneE4 gneE5" color="cyan"/>
    </vehicle>
    <vehicle id="vehicle_5" depart="20.00" arrivalSpeed="current">
        <route edges="gneE2 gneE4 gneE5" color="cyan"/>
    </vehicle>
</routes>
