<additional xmlns:xsi="http://www.w3.org/2001/XMLSchema-instance" xsi:noNamespaceSchemaLocation="http://sumo.dlr.de/xsd/additional_file.xsd">
    <busStop id="busStop" lane="1_0" startPos="23.00" endPos="33.00">
		<access lane="1_0" pos="10" length="10" friendlyPos="0">
		
			<!-- generic parameter -->
			<param key="key1" value="value1"/>
			
			<!-- empty key -->
			<param value="value2"/>
			
			<!-- invalid key -->
			<param key="$$key with spaces%%" value="value3"/>
			
			<!-- duplicated key -->
			<param key="key1" value="value4"/>
			
			<!-- empty value -->
			<param key="key2"/>
			
			<!-- invalid value -->
			<param key="key3" value="$$value with spaces%%"/>
			
			<!-- invalid value -->
			<param key="key4" value="value5"/>
			
			<!-- empty generic parameter -->
			<param/>
			
		</access>
	</busStop>
	
</additional>
