<?xml version="1.0" encoding="UTF-8"?>

<!-- generated on 29.01.2018 13:57:49 by Netedit Version v0_32_0+0239-f19c50d12d
<configuration xmlns:xsi="http://www.w3.org/2001/XMLSchema-instance" xsi:noNamespaceSchemaLocation="http://sumo.dlr.de/xsd/netconvertConfiguration.xsd">

    <input>
        <sumo-net-file value="C:/Users/Palcraft/.texttest/tmp/netedit.gui.29Jan135057.10500/netedit.gui/netElements/edges/select_vtypes_allowed_2\input_net.net.xml"/>
    </input>

    <output>
        <additionals-output value="C:/Users/Palcraft/.texttest/tmp/netedit.gui.29Jan135057.10500/netedit.gui/netElements/edges/select_vtypes_allowed_2\additionals.xml"/>
        <shapes-output value="C:/Users/Palcraft/.texttest/tmp/netedit.gui.29Jan135057.10500/netedit.gui/netElements/edges/select_vtypes_allowed_2\shapes.xml"/>
        <output-file value="C:/Users/Palcraft/.texttest/tmp/netedit.gui.29Jan135057.10500/netedit.gui/netElements/edges/select_vtypes_allowed_2\net.net.xml"/>
    </output>

    <processing>
        <no-turnarounds value="true"/>
        <offset.disable-normalization value="true"/>
        <lefthand value="false"/>
        <junctions.corner-detail value="0"/>
        <rectangular-lane-cut value="false"/>
        <walkingareas value="false"/>
    </processing>

    <visualisation>
        <window-size value="700,500"/>
        <window-pos value="50,50"/>
        <gui-testing value="true"/>
        <gui-testing-debug value="true"/>
    </visualisation>

    <report>
        <no-warnings value="true"/>
        <error-log value="C:/Users/Palcraft/.texttest/tmp/netedit.gui.29Jan135057.10500/netedit.gui/netElements/edges/select_vtypes_allowed_2\log.txt"/>
    </report>

</configuration>
-->

<net version="0.27" xmlns:xsi="http://www.w3.org/2001/XMLSchema-instance" xsi:noNamespaceSchemaLocation="http://sumo.dlr.de/xsd/net_file.xsd">

    <location netOffset="0.00,-30.00" convBoundary="0.00,0.00,80.00,40.00" origBoundary="-10000000000.00,-10000000000.00,10000000000.00,10000000000.00" projParameter="!"/>

    <edge id=":gneJ2_0" function="internal">
        <lane id=":gneJ2_0_0" index="0" allow="passenger" speed="13.89" length="4.82" shape="0.00,41.65 -1.24,40.82 -1.65,40.00 -1.24,39.17 0.00,38.35"/>
    </edge>
    <edge id=":gneJ3_0" function="internal">
        <lane id=":gneJ3_0_0" index="0" speed="13.89" length="4.82" shape="20.00,38.35 21.24,39.18 21.65,40.00 21.24,40.83 20.00,41.65"/>
    </edge>

    <edge id="-gneE14" from="gneJ4" to="gneJ5" priority="1">
        <lane id="-gneE14_0" index="0" allow="bus" speed="13.89" length="20.00" shape="0.00,28.35 20.00,28.35"/>
    </edge>
    <edge id="-gneE15" from="gneJ8" to="gneJ7" priority="1">
        <lane id="-gneE15_0" index="0" allow="coach" speed="13.89" length="20.00" shape="20.00,21.65 0.00,21.65"/>
    </edge>
    <edge id="-gneE18" from="gneJ10" to="gneJ9" priority="1">
        <lane id="-gneE18_0" index="0" allow="emergency" speed="13.89" length="20.00" shape="50.00,41.65 30.00,41.65"/>
    </edge>
    <edge id="-gneE21" from="gneJ16" to="gneJ15" priority="1">
        <lane id="-gneE21_0" index="0" allow="army" speed="13.89" length="20.00" shape="80.00,21.65 60.00,21.65"/>
    </edge>
    <edge id="-gneE22" from="gneJ22" to="gneJ21" priority="1">
        <lane id="-gneE22_0" index="0" allow="truck" speed="13.89" length="20.00" shape="20.00,11.65 0.00,11.65"/>
    </edge>
    <edge id="-gneE24" from="gneJ26" to="gneJ25" priority="1">
        <lane id="-gneE24_0" index="0" allow="vip" speed="13.89" length="20.00" shape="80.00,11.65 60.00,11.65"/>
    </edge>
    <edge id="-gneE25" from="gneJ28" to="gneJ27" priority="1">
        <lane id="-gneE25_0" index="0" allow="custom1" speed="13.89" length="20.00" shape="50.00,1.65 30.00,1.65"/>
    </edge>
    <edge id="gneE12" from="gneJ3" to="gneJ2" priority="1">
        <lane id="gneE12_0" index="0" speed="13.89" length="20.00" shape="20.00,41.65 0.00,41.65"/>
    </edge>
    <edge id="gneE13" from="gneJ2" to="gneJ3" priority="1">
        <lane id="gneE13_0" index="0" allow="passenger" speed="13.89" length="20.00" shape="0.00,38.35 20.00,38.35"/>
    </edge>
    <edge id="gneE14" from="gneJ5" to="gneJ4" priority="1">
        <lane id="gneE14_0" index="0" allow="taxi" speed="13.89" length="20.00" shape="20.00,31.65 0.00,31.65"/>
    </edge>
    <edge id="gneE15" from="gneJ7" to="gneJ8" priority="1">
        <lane id="gneE15_0" index="0" allow="delivery" speed="13.89" length="20.00" shape="0.00,18.35 20.00,18.35"/>
    </edge>
    <edge id="gneE18" from="gneJ9" to="gneJ10" priority="1">
        <lane id="gneE18_0" index="0" allow="motorcycle" speed="13.89" length="20.00" shape="30.00,38.35 50.00,38.35"/>
    </edge>
    <edge id="gneE21" from="gneJ15" to="gneJ16" priority="1">
        <lane id="gneE21_0" index="0" allow="authority" speed="13.89" length="20.00" shape="60.00,18.35 80.00,18.35"/>
    </edge>
    <edge id="gneE22" from="gneJ21" to="gneJ22" priority="1">
        <lane id="gneE22_0" index="0" allow="trailer" speed="13.89" length="20.00" shape="0.00,8.35 20.00,8.35"/>
    </edge>
    <edge id="gneE24" from="gneJ25" to="gneJ26" priority="1">
        <lane id="gneE24_0" index="0" allow="hov" speed="13.89" length="20.00" shape="60.00,8.35 80.00,8.35"/>
    </edge>
    <edge id="gneE25" from="gneJ27" to="gneJ28" priority="1">
        <lane id="gneE25_0" index="0" allow="custom2" speed="13.89" length="20.00" shape="30.00,-1.65 50.00,-1.65"/>
    </edge>

    <junction id="gneJ10" type="dead_end" x="50.00" y="40.00" incLanes="gneE18_0" intLanes="" shape="50.00,40.05 50.00,36.75 50.00,39.95"/>
    <junction id="gneJ11" type="dead_end" x="60.00" y="40.00" incLanes="" intLanes="" shape="60.00,40.00"/>
    <junction id="gneJ12" type="dead_end" x="80.00" y="40.00" incLanes="" intLanes="" shape="80.00,40.00"/>
    <junction id="gneJ13" type="dead_end" x="60.00" y="30.00" incLanes="" intLanes="" shape="60.00,30.00"/>
    <junction id="gneJ14" type="dead_end" x="80.00" y="30.00" incLanes="" intLanes="" shape="80.00,30.00"/>
    <junction id="gneJ15" type="dead_end" x="60.00" y="20.00" incLanes="-gneE21_0" intLanes="" shape="60.00,19.95 60.00,23.25 60.00,20.05"/>
    <junction id="gneJ16" type="dead_end" x="80.00" y="20.00" incLanes="gneE21_0" intLanes="" shape="80.00,20.05 80.00,16.75 80.00,19.95"/>
    <junction id="gneJ17" type="dead_end" x="30.00" y="30.00" incLanes="" intLanes="" shape="30.00,30.00"/>
    <junction id="gneJ18" type="dead_end" x="50.00" y="30.00" incLanes="" intLanes="" shape="50.00,30.00"/>
    <junction id="gneJ19" type="dead_end" x="30.00" y="20.00" incLanes="" intLanes="" shape="30.00,20.00"/>
    <junction id="gneJ2" type="priority" x="0.00" y="40.00" incLanes="gneE12_0" intLanes=":gneJ2_0_0" shape="0.00,39.95 0.00,43.25 0.00,40.05">
        <request index="0" response="0" foes="0" cont="0"/>
    </junction>
    <junction id="gneJ20" type="dead_end" x="50.00" y="20.00" incLanes="" intLanes="" shape="50.00,20.00"/>
    <junction id="gneJ21" type="dead_end" x="0.00" y="10.00" incLanes="-gneE22_0" intLanes="" shape="0.00,9.95 0.00,13.25 0.00,10.05"/>
    <junction id="gneJ22" type="dead_end" x="20.00" y="10.00" incLanes="gneE22_0" intLanes="" shape="20.00,10.05 20.00,6.75 20.00,9.95"/>
    <junction id="gneJ23" type="dead_end" x="30.00" y="10.00" incLanes="" intLanes="" shape="30.00,10.00"/>
    <junction id="gneJ24" type="dead_end" x="50.00" y="10.00" incLanes="" intLanes="" shape="50.00,10.00"/>
    <junction id="gneJ25" type="dead_end" x="60.00" y="10.00" incLanes="-gneE24_0" intLanes="" shape="60.00,9.95 60.00,13.25 60.00,10.05"/>
    <junction id="gneJ26" type="dead_end" x="80.00" y="10.00" incLanes="gneE24_0" intLanes="" shape="80.00,10.05 80.00,6.75 80.00,9.95"/>
    <junction id="gneJ27" type="dead_end" x="30.00" y="0.00" incLanes="-gneE25_0" intLanes="" shape="30.00,-0.05 30.00,3.25 30.00,0.05"/>
    <junction id="gneJ28" type="dead_end" x="50.00" y="0.00" incLanes="gneE25_0" intLanes="" shape="50.00,0.05 50.00,-3.25 50.00,-0.05"/>
    <junction id="gneJ3" type="priority" x="20.00" y="40.00" incLanes="gneE13_0" intLanes=":gneJ3_0_0" shape="20.00,40.05 20.00,36.75 20.00,39.95">
        <request index="0" response="0" foes="0" cont="0"/>
    </junction>
    <junction id="gneJ4" type="dead_end" x="0.00" y="30.00" incLanes="gneE14_0" intLanes="" shape="0.00,29.95 0.00,33.25 0.00,30.05"/>
    <junction id="gneJ5" type="dead_end" x="20.00" y="30.00" incLanes="-gneE14_0" intLanes="" shape="20.00,30.05 20.00,26.75 20.00,29.95"/>
    <junction id="gneJ7" type="dead_end" x="0.00" y="20.00" incLanes="-gneE15_0" intLanes="" shape="0.00,19.95 0.00,23.25 0.00,20.05"/>
    <junction id="gneJ8" type="dead_end" x="20.00" y="20.00" incLanes="gneE15_0" intLanes="" shape="20.00,20.05 20.00,16.75 20.00,19.95"/>
    <junction id="gneJ9" type="dead_end" x="30.00" y="40.00" incLanes="-gneE18_0" intLanes="" shape="30.00,39.95 30.00,43.25 30.00,40.05"/>

    <connection from="gneE12" to="gneE13" fromLane="0" toLane="0" via=":gneJ2_0_0" dir="t" state="M"/>
    <connection from="gneE13" to="gneE12" fromLane="0" toLane="0" via=":gneJ3_0_0" dir="t" state="M"/>

    <connection from=":gneJ2_0" to="gneE13" fromLane="0" toLane="0" dir="t" state="M"/>
    <connection from=":gneJ3_0" to="gneE12" fromLane="0" toLane="0" dir="t" state="M"/>

</net>
