<?xml version="1.0" encoding="UTF-8"?>

<!-- generated on 2023-11-07 13:20:00 by Eclipse SUMO netedit Version 1.19.0
-->

<routes xmlns:xsi="http://www.w3.org/2001/XMLSchema-instance" xsi:noNamespaceSchemaLocation="http://sumo.dlr.de/xsd/routes_file.xsd">
    <!-- Vehicles, persons and containers (sorted by depart) -->
    <container id="customID" depart="0.00">
        <transport from="Edge0" to="Edge2"/>
    </container>
</routes>
