<?xml version="1.0" encoding="UTF-8"?>

<!-- generated on Fri Dec 14 09:27:51 2018 by Eclipse SUMO netconvert Version v1_0_1+0645-93703db
This data file and the accompanying materials
are made available under the terms of the Eclipse Public License v2.0
which accompanies this distribution, and is available at
http://www.eclipse.org/legal/epl-v20.html
SPDX-License-Identifier: EPL-2.0
<configuration xmlns:xsi="http://www.w3.org/2001/XMLSchema-instance" xsi:noNamespaceSchemaLocation="http://sumo.dlr.de/xsd/netconvertConfiguration.xsd">

    <input>
        <opendrive-files value="opendrive.xodr"/>
    </input>

    <output>
        <write-license value="true"/>
    </output>

    <processing>
        <geometry.min-dist value="50"/>
    </processing>

    <tls_building>
        <tls.left-green.time value="0"/>
    </tls_building>

    <junctions>
        <no-internal-links value="true"/>
        <rectangular-lane-cut value="true"/>
    </junctions>

    <report>
        <verbose value="true"/>
        <xml-validation value="never"/>
    </report>

</configuration>
-->

<net version="1.1" junctionCornerDetail="5" rectangularLaneCut="true" limitTurnSpeed="5.50" xmlns:xsi="http://www.w3.org/2001/XMLSchema-instance" xsi:noNamespaceSchemaLocation="http://sumo.dlr.de/xsd/net_file.xsd">

    <location netOffset="199.99,84.86" convBoundary="0.00,0.00,399.98,167.98" origBoundary="-199.99,-84.86,199.99,83.12" projParameter="!"/>

    <type id="bidirectional" priority="1" speed="1.39" disallow="tram rail_urban rail rail_electric pedestrian ship" width="3.65"/>
    <type id="border" priority="0" speed="1.39" disallow="all" discard="1" width="0.10"/>
    <type id="driving" priority="1" speed="13.89" disallow="tram rail_urban rail rail_electric pedestrian ship" width="3.65"/>
    <type id="entry" priority="1" speed="22.22" disallow="tram rail_urban rail rail_electric pedestrian ship" width="3.65"/>
    <type id="exit" priority="1" speed="22.22" disallow="tram rail_urban rail rail_electric pedestrian ship" width="3.65"/>
    <type id="median" priority="0" speed="1.39" disallow="all" discard="1" width="0.10"/>
    <type id="mwyEntry" priority="1" speed="22.22" allow="private emergency authority army vip passenger hov taxi bus coach delivery truck trailer motorcycle evehicle custom1 custom2" width="3.65"/>
    <type id="mwyExit" priority="1" speed="22.22" allow="private emergency authority army vip passenger hov taxi bus coach delivery truck trailer motorcycle evehicle custom1 custom2" width="3.65"/>
    <type id="none" priority="0" speed="1.39" disallow="all" discard="1" width="1.00"/>
    <type id="offRamp" priority="1" speed="22.22" allow="private emergency authority army vip passenger hov taxi bus coach delivery truck trailer motorcycle evehicle custom1 custom2" width="3.65"/>
    <type id="onRamp" priority="1" speed="22.22" allow="private emergency authority army vip passenger hov taxi bus coach delivery truck trailer motorcycle evehicle custom1 custom2" width="3.65"/>
    <type id="parking" priority="1" speed="1.39" disallow="tram rail_urban rail rail_electric pedestrian ship" width="2.50"/>
    <type id="rail" priority="3" speed="33.33" allow="rail_urban rail rail_electric" width="3.65"/>
    <type id="restricted" priority="0" speed="13.89" disallow="all" width="3.65"/>
    <type id="roadWorks" priority="0" speed="1.39" allow="authority" width="3.65"/>
    <type id="shoulder" priority="0" speed="1.39" disallow="all" discard="1" width="1.00"/>
    <type id="special1" priority="1" speed="22.22" allow="custom1" discard="1" width="3.65"/>
    <type id="special2" priority="1" speed="22.22" allow="custom2" discard="1" width="3.65"/>
    <type id="special3" priority="1" speed="22.22" allow="custom1 custom2" discard="1" width="3.65"/>
    <type id="stop" priority="1" speed="13.89" disallow="tram rail_urban rail rail_electric pedestrian ship" width="3.65"/>
    <type id="tram" priority="2" speed="13.89" allow="tram" width="3.65"/>

    <edge id="-501.0.00" from="2" to="508.501" priority="1" type="driving" shape="199.99,84.86 209.89,94.76">
        <lane id="-501.0.00_0" index="0" disallow="tram rail_urban rail rail_electric pedestrian ship" speed="13.89" length="14.00" width="3.75" shape="206.79,89.01 211.12,93.34"/>
    </edge>
    <edge id="-502.0.00" from="2" to="509.502" priority="1" type="driving" shape="199.99,84.86 190.09,94.76">
        <lane id="-502.0.00_0" index="0" disallow="tram rail_urban rail rail_electric pedestrian ship" speed="13.89" length="14.00" width="3.75" shape="195.83,91.67 191.51,95.99"/>
    </edge>
    <edge id="-508.0.00" from="516.508" to="508.501" priority="1" type="driving" shape="209.89,74.96 259.33,25.52 302.85,0.00 353.63,5.60 390.66,40.80 399.98,89.94 385.02,138.07 343.60,167.98 292.53,166.73 209.89,94.76">
        <lane id="-508.0.00_0" index="0" disallow="tram rail_urban rail rail_electric pedestrian ship" speed="13.89" length="534.73" width="3.75" shape="208.56,73.64 258.17,24.02 302.44,-1.93 354.46,3.81 392.39,39.85 401.91,90.05 386.62,139.22 344.19,169.87 291.81,168.59 208.66,96.17"/>
    </edge>
    <edge id="-509.0.00" from="514.509" to="509.502" priority="1" type="driving" shape="190.09,74.96 140.65,25.52 97.13,0.00 46.35,5.60 9.31,40.80 0.00,89.94 14.96,138.07 56.38,167.98 107.45,166.73 190.09,94.76">
        <lane id="-509.0.00_0" index="0" disallow="tram rail_urban rail rail_electric pedestrian ship" speed="13.89" length="534.73" width="3.75" shape="188.76,76.29 139.49,27.01 96.72,1.93 47.18,7.40 11.04,41.74 1.93,89.83 16.56,136.91 56.96,166.09 106.73,164.87 188.86,93.35"/>
    </edge>
    <edge id="-514.0.00" from="2" to="514.509" priority="1" type="driving" shape="199.99,84.86 190.09,74.96">
        <lane id="-514.0.00_0" index="0" disallow="tram rail_urban rail rail_electric pedestrian ship" speed="13.89" length="14.00" width="3.75" shape="193.18,80.71 188.76,76.29"/>
    </edge>
    <edge id="-516.0.00" from="2" to="516.508" priority="1" type="driving" shape="199.99,84.86 209.89,74.96">
        <lane id="-516.0.00_0" index="0" disallow="tram rail_urban rail rail_electric pedestrian ship" speed="13.89" length="14.00" width="3.75" shape="204.14,78.05 208.56,73.64"/>
    </edge>
    <edge id="501.0.00" from="508.501" to="2" priority="2" type="driving" shape="209.89,94.76 199.99,84.86">
        <lane id="501.0.00_0" index="0" disallow="tram rail_urban rail rail_electric pedestrian ship" speed="13.89" length="14.00" width="3.75" shape="208.47,95.99 204.14,91.67"/>
    </edge>
    <edge id="502.0.00" from="509.502" to="2" priority="0" type="driving" shape="190.09,94.76 199.99,84.86">
        <lane id="502.0.00_0" index="0" disallow="tram rail_urban rail rail_electric pedestrian ship" speed="13.89" length="14.00" width="3.75" shape="188.85,93.34 193.18,89.01"/>
    </edge>
    <edge id="508.0.00" from="508.501" to="516.508" priority="1" type="driving" shape="209.89,94.76 292.53,166.73 343.60,167.98 385.02,138.07 399.98,89.94 390.66,40.80 353.63,5.60 302.85,0.00 259.33,25.52 209.89,74.96">
        <lane id="508.0.00_0" index="0" disallow="tram rail_urban rail rail_electric pedestrian ship" speed="13.89" length="534.73" width="3.75" shape="211.12,93.35 293.25,164.87 343.02,166.09 383.41,136.91 398.05,89.83 388.93,41.74 352.80,7.40 303.26,1.93 260.49,27.01 211.21,76.29"/>
    </edge>
    <edge id="509.0.00" from="509.502" to="514.509" priority="1" type="driving" shape="190.09,94.76 107.45,166.73 56.38,167.98 14.96,138.07 0.00,89.94 9.31,40.80 46.35,5.60 97.13,0.00 140.65,25.52 190.09,74.96">
        <lane id="509.0.00_0" index="0" disallow="tram rail_urban rail rail_electric pedestrian ship" speed="13.89" length="534.73" width="3.75" shape="191.32,96.17 108.17,168.59 55.79,169.87 13.35,139.22 -1.93,90.05 7.58,39.85 45.51,3.81 97.54,-1.93 141.80,24.02 191.41,73.64"/>
    </edge>
    <edge id="514.0.00" from="514.509" to="2" priority="2" type="driving" shape="190.09,74.96 199.99,84.86">
        <lane id="514.0.00_0" index="0" disallow="tram rail_urban rail rail_electric pedestrian ship" speed="13.89" length="14.00" width="3.75" shape="191.41,73.64 195.83,78.05"/>
    </edge>
    <edge id="516.0.00" from="516.508" to="2" priority="0" type="driving" shape="209.89,74.96 199.99,84.86">
        <lane id="516.0.00_0" index="0" disallow="tram rail_urban rail rail_electric pedestrian ship" speed="13.89" length="14.00" width="3.75" shape="211.21,76.29 206.79,80.71"/>
    </edge>

    <tlLogic id="2" type="static" programID="0" offset="0">
        <phase duration="42" state="GGgrrrGGgrrr"/>
        <phase duration="3"  state="yyyrrryyyrrr"/>
        <phase duration="42" state="rrrGGgrrrGGg"/>
        <phase duration="3"  state="rrryyyrrryyy"/>
        <param key="connection:501.0.00" value="_Sg32"/>
        <param key="connection:502.0.00" value="_Sg22"/>
        <param key="connection:514.0.00" value="_Sg42"/>
        <param key="connection:516.0.00" value="_Sg12"/>
    </tlLogic>

    <junction id="2" type="traffic_light" x="199.99" y="84.86" incLanes="501.0.00_0 516.0.00_0 514.0.00_0 502.0.00_0" intLanes="" shape="202.82,92.99 208.12,87.69 206.86,85.80 206.71,84.86 206.86,83.92 207.33,82.97 208.12,82.03 202.82,76.73 200.93,77.99 199.99,78.14 199.05,77.99 198.10,77.51 197.16,76.73 191.86,82.03 193.11,83.92 193.27,84.86 193.11,85.80 192.64,86.75 191.86,87.69 197.16,92.99 199.05,91.74 199.99,91.58 200.93,91.74 201.87,92.21">
        <request index="0"  response="000000000000" foes="000100010000"/>
        <request index="1"  response="000000000000" foes="111100110000"/>
        <request index="2"  response="000011000000" foes="110011110000"/>
        <request index="3"  response="000010000000" foes="100010000000"/>
        <request index="4"  response="000110000111" foes="100110000111"/>
        <request index="5"  response="011110000110" foes="011110000110"/>
        <request index="6"  response="000000000000" foes="010000000100"/>
        <request index="7"  response="000000000000" foes="110000111100"/>
        <request index="8"  response="000000000011" foes="110000110011"/>
        <request index="9"  response="000000000010" foes="000000100010"/>
        <request index="10" response="000111000110" foes="000111100110"/>
        <request index="11" response="000110011110" foes="000110011110"/>
    </junction>
    <junction id="508.501" type="priority" x="209.89" y="94.76" incLanes="-508.0.00_0 -501.0.00_0" intLanes="" shape="207.52,97.67 212.45,92.02 207.14,97.32">
        <request index="0" response="00" foes="00"/>
        <request index="1" response="00" foes="00"/>
    </junction>
    <junction id="509.502" type="priority" x="190.09" y="94.76" incLanes="-502.0.00_0 -509.0.00_0" intLanes="" shape="192.83,97.32 187.53,92.02 192.45,97.67">
        <request index="0" response="00" foes="00"/>
        <request index="1" response="00" foes="00"/>
    </junction>
    <junction id="514.509" type="priority" x="190.09" y="74.96" incLanes="-514.0.00_0 509.0.00_0" intLanes="" shape="187.44,77.61 192.74,72.31 187.44,77.61">
        <request index="0" response="00" foes="00"/>
        <request index="1" response="00" foes="00"/>
    </junction>
    <junction id="516.508" type="priority" x="209.89" y="74.96" incLanes="508.0.00_0 -516.0.00_0" intLanes="" shape="212.54,77.61 207.24,72.31 212.54,77.61">
        <request index="0" response="00" foes="00"/>
        <request index="1" response="00" foes="00"/>
    </junction>

    <connection from="-501.0.00" to="508.0.00" fromLane="0" toLane="0" dir="s" state="M"/>
    <connection from="-502.0.00" to="509.0.00" fromLane="0" toLane="0" dir="s" state="M"/>
    <connection from="-508.0.00" to="501.0.00" fromLane="0" toLane="0" dir="s" state="M"/>
    <connection from="-509.0.00" to="502.0.00" fromLane="0" toLane="0" dir="s" state="M"/>
    <connection from="-514.0.00" to="-509.0.00" fromLane="0" toLane="0" dir="s" state="M"/>
    <connection from="-516.0.00" to="-508.0.00" fromLane="0" toLane="0" dir="s" state="M"/>
    <connection from="501.0.00" to="-502.0.00" fromLane="0" toLane="0" tl="2" linkIndex="0" dir="r" state="O"/>
    <connection from="501.0.00" to="-514.0.00" fromLane="0" toLane="0" tl="2" linkIndex="1" dir="s" state="O"/>
    <connection from="501.0.00" to="-516.0.00" fromLane="0" toLane="0" tl="2" linkIndex="2" dir="l" state="o"/>
    <connection from="502.0.00" to="-514.0.00" fromLane="0" toLane="0" tl="2" linkIndex="9" dir="r" state="o"/>
    <connection from="502.0.00" to="-516.0.00" fromLane="0" toLane="0" tl="2" linkIndex="10" dir="s" state="o"/>
    <connection from="502.0.00" to="-501.0.00" fromLane="0" toLane="0" tl="2" linkIndex="11" dir="l" state="o"/>
    <connection from="508.0.00" to="516.0.00" fromLane="0" toLane="0" dir="s" state="M"/>
    <connection from="509.0.00" to="514.0.00" fromLane="0" toLane="0" dir="s" state="M"/>
    <connection from="514.0.00" to="-516.0.00" fromLane="0" toLane="0" tl="2" linkIndex="6" dir="r" state="O"/>
    <connection from="514.0.00" to="-501.0.00" fromLane="0" toLane="0" tl="2" linkIndex="7" dir="s" state="O"/>
    <connection from="514.0.00" to="-502.0.00" fromLane="0" toLane="0" tl="2" linkIndex="8" dir="l" state="o"/>
    <connection from="516.0.00" to="-501.0.00" fromLane="0" toLane="0" tl="2" linkIndex="3" dir="r" state="o"/>
    <connection from="516.0.00" to="-502.0.00" fromLane="0" toLane="0" tl="2" linkIndex="4" dir="s" state="o"/>
    <connection from="516.0.00" to="-514.0.00" fromLane="0" toLane="0" tl="2" linkIndex="5" dir="l" state="o"/>

</net>
