<routes>

	<vehicle id="1" depart="0" route="1" departSpeed="10"/>

</routes>
