<nodes>
   <node id="0" type="priority"/>
</nodes>
