<?xml version="1.0" encoding="UTF-8"?>

<!-- generated on 2022-07-07 11:06:23.719836 by tracemapper.py v1_13_0+1343-240e5d48340
  options: -n three_split.net.xml -t tracefile.txt -o out.rou.xml -v-->

<routes xmlns:xsi="http://www.w3.org/2001/XMLSchema-instance" xsi:noNamespaceSchemaLocation="http://sumo.dlr.de/xsd/routes_file.xsd">
    <route id="vehicle1" edges="beg rend"/>
    <route id="vehicle2" edges="beg left2end rend"/>
</routes>
