<flowdefs>

	<flow id="0" from="beg" to="rend" begin="0" end="1" number="1"/>

	<flow id="10" from="beg" to="rend" begin="10" end="11" number="1" color="0,0,0"/>
	<flow id="11" from="beg" to="rend" begin="11" end="12" number="1" color="1,0,1"/>

	<flow id="20" from="beg" to="rend" begin="20" end="21" number="1" departPos="0"/>
	<flow id="21" from="beg" to="rend" begin="21" end="22" number="1" departPos="10"/>
	<flow id="22" from="beg" to="rend" begin="22" end="23" number="1" departPos="free"/>
	<flow id="23" from="beg" to="rend" begin="23" end="24" number="1" departPos="random"/>

	<flow id="30" from="beg" to="rend" begin="30" end="31" number="1" departLane="0"/>
	<flow id="31" from="beg" to="rend" begin="31" end="32" number="1" departLane="1"/>
	<flow id="32" from="beg" to="rend" begin="32" end="33" number="1" departLane="random"/>
	<flow id="33" from="beg" to="rend" begin="33" end="34" number="1" departLane="free"/>
	<flow id="34" from="beg" to="rend" begin="34" end="35" number="1" departLane="0"/>

	<flow id="40" from="beg" to="rend" begin="40" end="41" number="1" departSpeed="0"/>
	<flow id="41" from="beg" to="rend" begin="41" end="42" number="1" departSpeed="1"/>
	<flow id="42" from="beg" to="rend" begin="42" end="43" number="1" departSpeed="max"/>
	<flow id="43" from="beg" to="rend" begin="43" end="44" number="1" departSpeed="random"/>

	<flow id="50" from="beg" to="rend" begin="50" end="51" number="1" arrivalLane="42"/>
	<flow id="51" from="beg" to="rend" begin="51" end="52" number="1" arrivalLane="current"/>

	<flow id="60" from="beg" to="rend" begin="60" end="61" number="1" arrivalPos="42"/>
	<flow id="61" from="beg" to="rend" begin="61" end="62" number="1" arrivalPos="max"/>
	<flow id="62" from="beg" to="rend" begin="62" end="63" number="1" arrivalPos="random"/>

	<flow id="70" from="beg" to="rend" begin="70" end="71" number="1" arrivalSpeed="42"/>
	<flow id="71" from="beg" to="rend" begin="71" end="72" number="1" arrivalSpeed="current"/>

</flowdefs>
