<?xml version="1.0" encoding="UTF-8"?>

<!-- generated on 2023-04-19 10:04:03 by Eclipse SUMO netedit Version v1_16_0+2169-ea5cfde03db
-->

<data xmlns:xsi="http://www.w3.org/2001/XMLSchema-instance" xsi:noNamespaceSchemaLocation="http://sumo.dlr.de/xsd/datamode_file.xsd">
    <interval id="dataSet" begin="0.00" end="3600.00">
        <edge id="top"/>
        <edge id="center0"/>
        <edge id="center1"/>
        <edge id="bot"/>
    </interval>
</data>
