<?xml version="1.0" encoding="UTF-8"?>

<!-- generated on 2025-09-17T10:08:44.901391+01:00 by Eclipse SUMO netedit v1_24_0+0823-6b8e691f193
This data file and the accompanying materials
are made available under the terms of the Eclipse Public License v2.0
which accompanies this distribution, and is available at
http://www.eclipse.org/legal/epl-v20.html
This file may also be made available under the following Secondary
Licenses when the conditions for such availability set forth in the Eclipse
Public License 2.0 are satisfied: GNU General Public License, version 2
or later which is available at
https://www.gnu.org/licenses/old-licenses/gpl-2.0-standalone.html
SPDX-License-Identifier: EPL-2.0 OR GPL-2.0-or-later
-->

<additional xmlns:xsi="http://www.w3.org/2001/XMLSchema-instance" xsi:noNamespaceSchemaLocation="http://sumo.dlr.de/xsd/additional_file.xsd">
    <!-- StoppingPlaces -->
    <containerStop id="containerStop_01" lane="EdgeCenter1_1" endPos="30.00"/>
    <containerStop id="containerStop_03" lane="EdgeCenter1_1" startPos="-25.00" endPos="25.00"/>
    <containerStop id="containerStop_05" lane="EdgeCenter1_1" startPos="10.00" endPos="25.00"/>
    <containerStop id="containerStop_06" lane="EdgeCenter1_1" startPos="-40.00" endPos="25.00"/>
</additional>
