<?xml version="1.0" encoding="UTF-8"?>
<connections version="1.1" xmlns:xsi="http://www.w3.org/2001/XMLSchema-instance" xsi:noNamespaceSchemaLocation="http://sumo.dlr.de/xsd/connections_file.xsd">
    <crossing edges="-E0 E0" node="J2" discard="true"/>
</connections>
