<?xml version="1.0" encoding="UTF-8"?>

<!-- generated on 2026-01-12T12:50:21.491183+01:00 by Eclipse SUMO netconvert v1_25_0+0916-65f2c470c25
This data file and the accompanying materials
are made available under the terms of the Eclipse Public License v2.0
which accompanies this distribution, and is available at
http://www.eclipse.org/legal/epl-v20.html
This file may also be made available under the following Secondary
Licenses when the conditions for such availability set forth in the Eclipse
Public License 2.0 are satisfied: GNU General Public License, version 2
or later which is available at
https://www.gnu.org/licenses/old-licenses/gpl-2.0-standalone.html
SPDX-License-Identifier: EPL-2.0 OR GPL-2.0-or-later
<netconvertConfiguration xmlns:xsi="http://www.w3.org/2001/XMLSchema-instance" xsi:noNamespaceSchemaLocation="http://sumo.dlr.de/xsd/netconvertConfiguration.xsd">

    <input>
        <sumo-net-file value="input_net.net.xml"/>
        <connection-files value="input_plain.con.xml"/>
    </input>

    <output>
        <write-license value="true"/>
        <output-file value="net.net.xml"/>
    </output>

    <processing>
        <geometry.min-radius.fix.railways value="false"/>
        <geometry.avoid-overlap value="false"/>
        <geometry.max-grade.fix value="false"/>
        <offset.disable-normalization value="true"/>
        <lefthand value="0"/>
    </processing>

    <junctions>
        <no-turnarounds value="true"/>
        <junctions.corner-detail value="5"/>
        <junctions.limit-turn-speed value="5.50"/>
        <rectangular-lane-cut value="0"/>
    </junctions>

    <pedestrian>
        <walkingareas value="0"/>
    </pedestrian>

    <report>
        <xml-validation value="never"/>
    </report>

</netconvertConfiguration>
-->

<net version="1.20" junctionCornerDetail="5" limitTurnSpeed="5.50" avoidOverlap="0" xmlns:xsi="http://www.w3.org/2001/XMLSchema-instance" xsi:noNamespaceSchemaLocation="http://sumo.dlr.de/xsd/net_file.xsd">

    <location netOffset="0.00,0.00" convBoundary="-64.49,-12.14,80.25,-9.96" origBoundary="-10000000000.00,-10000000000.00,10000000000.00,10000000000.00" projParameter="!"/>

    <edge id=":J2_0" function="internal">
        <lane id=":J2_0_0" index="0" disallow="pedestrian" speed="13.89" length="0.31" shape="0.72,-8.91 0.41,-8.91"/>
    </edge>
    <edge id=":J2_1" function="internal">
        <lane id=":J2_1_0" index="0" disallow="pedestrian" speed="13.89" length="0.27" shape="0.38,-12.11 0.65,-12.11"/>
    </edge>

    <edge id="-E0" from="J2" to="J1" priority="-1">
        <lane id="-E0_0" index="0" allow="pedestrian" speed="13.89" length="64.89" width="2.00" shape="0.43,-6.31 -64.45,-5.76"/>
        <lane id="-E0_1" index="1" disallow="pedestrian" speed="13.89" length="64.89" shape="0.41,-8.91 -64.48,-8.36"/>
    </edge>
    <edge id="-E1" from="J3" to="J2" priority="-1">
        <lane id="-E1_0" index="0" allow="pedestrian" speed="13.89" length="79.58" width="2.00" shape="80.34,-7.94 0.77,-6.31"/>
        <lane id="-E1_1" index="1" disallow="pedestrian" speed="13.89" length="79.58" shape="80.28,-10.54 0.72,-8.91"/>
    </edge>
    <edge id="E0" from="J1" to="J2" priority="-1">
        <lane id="E0_0" index="0" allow="pedestrian" speed="13.89" length="64.89" width="2.00" shape="-64.53,-14.16 0.36,-14.71"/>
        <lane id="E0_1" index="1" disallow="pedestrian" speed="13.89" length="64.89" shape="-64.50,-11.56 0.38,-12.11"/>
    </edge>
    <edge id="E1" from="J2" to="J3" priority="-1">
        <lane id="E1_0" index="0" allow="pedestrian" speed="13.89" length="79.58" width="2.00" shape="0.60,-14.71 80.16,-16.34"/>
        <lane id="E1_1" index="1" disallow="pedestrian" speed="13.89" length="79.58" shape="0.65,-12.11 80.22,-13.74"/>
    </edge>

    <tlLogic id="J2" type="static" programID="0" offset="0">
        <phase duration="77" state="GG"/>
        <phase duration="3"  state="yy"/>
        <phase duration="10" state="rr"/>
    </tlLogic>

    <junction id="J1" type="dead_end" x="-64.49" y="-9.96" incLanes="-E0_0 -E0_1" intLanes="" shape="-64.49,-9.96 -64.45,-4.76 -64.49,-9.96"/>
    <junction id="J2" type="traffic_light" x="0.54" y="-10.51" incLanes="-E1_0 -E1_1 E0_0 E0_1" intLanes=":J2_0_0 :J2_1_0" shape="0.79,-5.31 0.58,-15.71 0.35,-15.71 0.44,-5.31">
        <request index="0" response="00" foes="00" cont="0"/>
        <request index="1" response="00" foes="00" cont="0"/>
    </junction>
    <junction id="J3" type="dead_end" x="80.25" y="-12.14" incLanes="E1_0 E1_1" intLanes="" shape="80.25,-12.14 80.14,-17.34 80.25,-12.14"/>

    <connection from="-E1" to="-E0" fromLane="1" toLane="1" via=":J2_0_0" tl="J2" linkIndex="0" dir="s" state="O"/>
    <connection from="E0" to="E1" fromLane="1" toLane="1" via=":J2_1_0" tl="J2" linkIndex="1" dir="s" state="O"/>

    <connection from=":J2_0" to="-E0" fromLane="0" toLane="1" dir="s" state="M"/>
    <connection from=":J2_1" to="E1" fromLane="0" toLane="1" dir="s" state="M"/>

</net>
