<edges>

	<edge id="1" from="1" to="2" speed="19." numLanes="2" priority="1"/>
	<edge id="2" from="2" to="3" speed="19." numLanes="2" priority="1"/>

</edges>
