<?xml version="1.0" encoding="UTF-8"?>

<!-- generated on 2024-07-03 14:26:21 by Eclipse SUMO netedit Version v1_20_0+0977-3d26a690048
-->

<additional xmlns:xsi="http://www.w3.org/2001/XMLSchema-instance" xsi:noNamespaceSchemaLocation="http://sumo.dlr.de/xsd/additional_file.xsd">
    <!-- Other additionals -->
    <vaporizer id="Edge0" begin="0.00" end="3600.00"/>
    <vaporizer id="Edge1" begin="0.00" end="3600.00"/>
    <vaporizer id="Edge2" begin="0.00" end="3600.00"/>
    <vaporizer id="Edge3" begin="0.00" end="3600.00"/>
    <vaporizer id="Edge4" begin="0.00" end="3600.00"/>
    <vaporizer id="Edge5" begin="0.00" end="3600.00"/>
    <vaporizer id="EdgeBike0" begin="0.00" end="3600.00"/>
    <vaporizer id="EdgeBike1" begin="0.00" end="3600.00"/>
    <vaporizer id="EdgeCenter0" begin="0.00" end="3600.00"/>
    <vaporizer id="EdgeCenter1" begin="0.00" end="3600.00"/>
    <vaporizer id="EdgeExternBot" begin="0.00" end="3600.00"/>
    <vaporizer id="EdgeExternTop" begin="0.00" end="3600.00"/>
</additional>
