<?xml version="1.0" encoding="UTF-8"?>

<!-- generated on Mon Feb 17 15:30:44 2020 by Eclipse SUMO netconvert Version v1_5_0+0130-ceb0a01
This data file and the accompanying materials
are made available under the terms of the Eclipse Public License v2.0
which accompanies this distribution, and is available at
http://www.eclipse.org/legal/epl-v20.html
SPDX-License-Identifier: EPL-2.0
<configuration xmlns:xsi="http://www.w3.org/2001/XMLSchema-instance" xsi:noNamespaceSchemaLocation="http://sumo.dlr.de/xsd/netconvertConfiguration.xsd">

    <input>
        <node-files value="input_plain.nod.xml"/>
        <edge-files value="input_plain.edg.xml"/>
    </input>

    <output>
        <write-license value="true"/>
    </output>

    <junctions>
        <no-internal-links value="true"/>
        <no-turnarounds value="true"/>
    </junctions>

    <report>
        <xml-validation value="never"/>
        <aggregate-warnings value="5"/>
        <ignore-errors.edge-type value="true"/>
    </report>

</configuration>
-->

<net version="1.6" junctionCornerDetail="5" limitTurnSpeed="5.50" xmlns:xsi="http://www.w3.org/2001/XMLSchema-instance" xsi:noNamespaceSchemaLocation="http://sumo.dlr.de/xsd/net_file.xsd">

    <location netOffset="-392286.39,-5819087.97" convBoundary="0.00,0.00,377.57,942.34" origBoundary="13.354338,52.488705,13.527397,52.569279" projParameter="+proj=utm +zone=33 +ellps=WGS84 +datum=WGS84 +units=m +no_defs"/>

    <edge id="1" from="C" to="2094266865" priority="15" type="railway.subway" spreadType="center" shape="331.86,232.40 332.12,264.46 329.85,287.63 319.92,308.73 300.78,331.27 271.27,359.35 228.43,396.60 193.37,437.90 165.55,493.73 131.20,588.77 127.30,605.58 113.40,665.52 97.80,712.60 80.04,758.64 59.56,801.52 44.65,827.15 32.65,846.47 19.17,863.96 10.55,872.23 0.00,883.56">
        <lane id="1_0" index="0" allow="rail_urban" speed="27.78" length="750.50" shape="331.87,233.86 332.12,264.46 329.85,287.63 319.92,308.73 300.78,331.27 271.27,359.35 228.43,396.60 193.37,437.90 165.55,493.73 131.20,588.77 127.30,605.58 113.40,665.52 97.80,712.60 80.04,758.64 59.56,801.52 44.65,827.15 32.65,846.47 19.17,863.96 10.55,872.23 0.00,883.56"/>
    </edge>
    <edge id="2" from="2776873566" to="C" priority="15" type="railway.subway" spreadType="center" shape="119.83,942.34 143.49,911.26 164.40,880.50 179.70,847.23 190.62,814.79 198.58,778.64 208.14,743.01 220.20,710.96 240.57,682.77 273.55,654.66 332.37,611.49 354.49,591.49 371.54,562.07 377.57,531.98 374.90,491.96 367.87,446.59 339.00,284.01 331.86,232.40">
        <lane id="2_0" index="0" allow="rail_urban" speed="27.78" length="804.09" shape="119.83,942.34 143.49,911.26 164.40,880.50 179.70,847.23 190.62,814.79 198.58,778.64 208.14,743.01 220.20,710.96 240.57,682.77 273.55,654.66 332.37,611.49 354.49,591.49 371.54,562.07 377.57,531.98 374.90,491.96 367.87,446.59 339.00,284.01 332.06,233.84"/>
    </edge>
    <edge id="3" from="C" to="940422472" priority="15" type="railway.subway" spreadType="center" shape="331.86,232.40 321.77,190.76 305.50,141.19 261.30,6.57 258.99,0.00">
        <lane id="3_0" index="0" allow="rail_urban" speed="27.78" length="243.67" shape="331.69,231.70 321.77,190.76 305.50,141.19 261.30,6.57 258.99,-0.00"/>
    </edge>

    <junction id="2094266865" type="dead_end" x="0.00" y="883.56" incLanes="1_0" intLanes="" shape="1.17,884.65 -1.17,882.47"/>
    <junction id="2776873566" type="dead_end" x="119.83" y="942.34" incLanes="" intLanes="" shape="121.10,943.31 118.56,941.37"/>
    <junction id="940422472" type="dead_end" x="258.99" y="0.00" incLanes="3_0" intLanes="" shape="257.48,0.53 260.50,-0.53"/>
    <junction id="C" type="priority" x="331.86" y="232.40" incLanes="2_0" intLanes="" shape="330.27,234.08 333.64,233.62 333.53,232.77 333.49,232.47 333.44,232.17 333.36,231.81 333.25,231.32 330.14,232.08 330.27,232.81 330.29,233.07 330.29,233.33 330.28,233.65">
        <request index="0" response="0" foes="0"/>
    </junction>

    <connection from="2" to="3" fromLane="0" toLane="0" dir="s" state="M"/>

</net>
