<?xml version="1.0" encoding="UTF-8"?>

<!-- generated on 2021-06-15 15:04:44 by Eclipse SUMO netedit Version v1_9_2+0562-734b028973
<configuration xmlns:xsi="http://www.w3.org/2001/XMLSchema-instance" xsi:noNamespaceSchemaLocation="http://sumo.dlr.de/xsd/netconvertConfiguration.xsd">

    <input>
        <sumo-net-file value="C:\Users\SUMO-Test\.texttest\tmp\netedit.gui.15Jun141421.868\netedit.gui\additionalElements\e3detector\volatileRecomputing\input_net.net.xml"/>
    </input>

    <output>
        <output-file value="C:\Users\SUMO-Test\.texttest\tmp\netedit.gui.15Jun141421.868\netedit.gui\additionalElements\e3detector\volatileRecomputing\net.net.xml"/>
    </output>

    <processing>
        <geometry.min-radius.fix.railways value="false"/>
        <geometry.max-grade.fix value="false"/>
        <offset.disable-normalization value="true"/>
        <lefthand value="false"/>
    </processing>

    <junctions>
        <no-turnarounds value="true"/>
        <junctions.corner-detail value="5"/>
        <junctions.limit-turn-speed value="5.5"/>
        <rectangular-lane-cut value="false"/>
    </junctions>

    <pedestrian>
        <sidewalks.guess value="true"/>
        <crossings.guess value="true"/>
        <walkingareas value="false"/>
    </pedestrian>

    <netedit>
        <additional-files value="C:\Users\SUMO-Test\.texttest\tmp\netedit.gui.15Jun141421.868\netedit.gui\additionalElements\e3detector\volatileRecomputing\additionals.xml"/>
        <additionals-output value="C:\Users\SUMO-Test\.texttest\tmp\netedit.gui.15Jun141421.868\netedit.gui\additionalElements\e3detector\volatileRecomputing\additionals.xml"/>
        <route-files value="C:\Users\SUMO-Test\.texttest\tmp\netedit.gui.15Jun141421.868\netedit.gui\additionalElements\e3detector\volatileRecomputing\routes.xml"/>
        <demandelements-output value="C:\Users\SUMO-Test\.texttest\tmp\netedit.gui.15Jun141421.868\netedit.gui\additionalElements\e3detector\volatileRecomputing\routes.xml"/>
        <data-files value="C:\Users\SUMO-Test\.texttest\tmp\netedit.gui.15Jun141421.868\netedit.gui\additionalElements\e3detector\volatileRecomputing\datas.xml"/>
        <dataelements-output value="C:\Users\SUMO-Test\.texttest\tmp\netedit.gui.15Jun141421.868\netedit.gui\additionalElements\e3detector\volatileRecomputing\datas.xml"/>
    </netedit>

    <visualisation>
        <gui-settings-file value="C:\Users\SUMO-Test\.texttest\tmp\netedit.gui.15Jun141421.868\netedit.gui\additionalElements\e3detector\volatileRecomputing\gui-settings.xml"/>
        <window-size value="936,697"/>
        <window-pos value="50,50"/>
        <gui-testing value="true"/>
        <gui-testing-debug value="true"/>
        <gui-testing-debug-gl value="true"/>
        <gui-testing.setting-output value="C:\Users\SUMO-Test\.texttest\tmp\netedit.gui.15Jun141421.868\netedit.gui\additionalElements\e3detector\volatileRecomputing\guisettingsoutput.xml"/>
    </visualisation>

    <report>
        <no-warnings value="true"/>
        <aggregate-warnings value="5"/>
        <error-log value="C:\Users\SUMO-Test\.texttest\tmp\netedit.gui.15Jun141421.868\netedit.gui\additionalElements\e3detector\volatileRecomputing\log.txt"/>
    </report>

</configuration>
-->

<additional xmlns:xsi="http://www.w3.org/2001/XMLSchema-instance" xsi:noNamespaceSchemaLocation="http://sumo.dlr.de/xsd/additional_file.xsd">
    <e3Detector id="e3Detector_0" pos="-11.53,8.52" freq="100.00" file="e3Detector_0.txt">
        <detEntry lane="gneE4_0" pos="13.82"/>
        <detEntry lane="gneE1_0" pos="42.11"/>
        <detExit lane="gneE0_0" pos="38.04"/>
        <detExit lane="gneE4_0" pos="34.51"/>
    </e3Detector>
    <e3Detector id="e3Detector_1" pos="60.44,12.04" freq="100.00" file="e3Detector_1.txt">
        <detEntry lane="gneE0_0" pos="4.97"/>
        <detEntry lane="gneE2_0" pos="19.61"/>
        <detExit lane="gneE1_0" pos="23.22"/>
        <detExit lane="gneE2_0" pos="3.55"/>
    </e3Detector>
</additional>
