<?xml version="1.0" encoding="UTF-8"?>

<!-- generated on 2022-02-07 13:32:29 by Eclipse SUMO netedit Version v1_12_0+0319-e0399fbff66
-->

<routes xmlns:xsi="http://www.w3.org/2001/XMLSchema-instance" xsi:noNamespaceSchemaLocation="http://sumo.dlr.de/xsd/routes_file.xsd">
</routes>
