<?xml version="1.0"?>

<!-- generated on 07/10/08 12:40:23 by SUMO duarouter Version 0.9.7
<configuration>

   <input>
      <net-file>input_net.net.xml</net-file>
      <trip-defs>input_trips.trips.xml</trip-defs>
   </input>

   <output>
      <output-file>routes.rou.xml</output-file>
   </output>

</configuration>
-->

<route-alternatives>
   <vtype model="SUMO_KRAUSS" id="0" accel="1.60" decel="5.50" sigma="0.90" length="7.00" maxspeed="30.00" tau="1.00" color="1,0,0"/>
   <vehicle id="0" type="0" depart="0">
      <routealt last="0">
         <route cost="124.88" probability="1.00">beg middle end rend</route>
      </routealt>
   </vehicle>
   <vehicle id="1" type="0" depart="1">
      <routealt last="0">
         <route cost="124.88" probability="1.00">beg middle end rend</route>
      </routealt>
   </vehicle>
   <vehicle id="2" type="0" depart="2">
      <routealt last="0">
         <route cost="124.88" probability="1.00">beg middle end rend</route>
      </routealt>
   </vehicle>
   <vehicle id="3" type="0" depart="3">
      <routealt last="0">
         <route cost="124.88" probability="1.00">beg middle end rend</route>
      </routealt>
   </vehicle>
   <vehicle id="4" type="0" depart="4">
      <routealt last="0">
         <route cost="124.88" probability="1.00">beg middle end rend</route>
      </routealt>
   </vehicle>
   <vehicle id="5" type="0" depart="5">
      <routealt last="0">
         <route cost="124.88" probability="1.00">beg middle end rend</route>
      </routealt>
   </vehicle>
   <vehicle id="6" type="0" depart="6">
      <routealt last="0">
         <route cost="124.88" probability="1.00">beg middle end rend</route>
      </routealt>
   </vehicle>
   <vehicle id="7" type="0" depart="7">
      <routealt last="0">
         <route cost="124.88" probability="1.00">beg middle end rend</route>
      </routealt>
   </vehicle>
   <vehicle id="8" type="0" depart="8">
      <routealt last="0">
         <route cost="124.88" probability="1.00">beg middle end rend</route>
      </routealt>
   </vehicle>
   <vehicle id="9" type="0" depart="9">
      <routealt last="0">
         <route cost="124.88" probability="1.00">beg middle end rend</route>
      </routealt>
   </vehicle>
   <vehicle id="10" type="0" depart="10">
      <routealt last="0">
         <route cost="124.88" probability="1.00">beg middle end rend</route>
      </routealt>
   </vehicle>
   <vehicle id="11" type="0" depart="11">
      <routealt last="0">
         <route cost="124.88" probability="1.00">beg middle end rend</route>
      </routealt>
   </vehicle>
   <vehicle id="12" type="0" depart="12">
      <routealt last="0">
         <route cost="124.88" probability="1.00">beg middle end rend</route>
      </routealt>
   </vehicle>
   <vehicle id="13" type="0" depart="13">
      <routealt last="0">
         <route cost="124.88" probability="1.00">beg middle end rend</route>
      </routealt>
   </vehicle>
   <vehicle id="14" type="0" depart="14">
      <routealt last="0">
         <route cost="124.88" probability="1.00">beg middle end rend</route>
      </routealt>
   </vehicle>
   <vehicle id="15" type="0" depart="15">
      <routealt last="0">
         <route cost="124.88" probability="1.00">beg middle end rend</route>
      </routealt>
   </vehicle>
   <vehicle id="16" type="0" depart="16">
      <routealt last="0">
         <route cost="124.88" probability="1.00">beg middle end rend</route>
      </routealt>
   </vehicle>
   <vehicle id="17" type="0" depart="17">
      <routealt last="0">
         <route cost="124.88" probability="1.00">beg middle end rend</route>
      </routealt>
   </vehicle>
   <vehicle id="18" type="0" depart="18">
      <routealt last="0">
         <route cost="124.88" probability="1.00">beg middle end rend</route>
      </routealt>
   </vehicle>
   <vehicle id="19" type="0" depart="19">
      <routealt last="0">
         <route cost="124.88" probability="1.00">beg middle end rend</route>
      </routealt>
   </vehicle>
   <vehicle id="20" type="0" depart="20">
      <routealt last="0">
         <route cost="124.88" probability="1.00">beg middle end rend</route>
      </routealt>
   </vehicle>
   <vehicle id="21" type="0" depart="21">
      <routealt last="0">
         <route cost="124.88" probability="1.00">beg middle end rend</route>
      </routealt>
   </vehicle>
   <vehicle id="22" type="0" depart="22">
      <routealt last="0">
         <route cost="124.88" probability="1.00">beg middle end rend</route>
      </routealt>
   </vehicle>
   <vehicle id="23" type="0" depart="23">
      <routealt last="0">
         <route cost="124.88" probability="1.00">beg middle end rend</route>
      </routealt>
   </vehicle>
   <vehicle id="24" type="0" depart="24">
      <routealt last="0">
         <route cost="124.88" probability="1.00">beg middle end rend</route>
      </routealt>
   </vehicle>
   <vehicle id="25" type="0" depart="25">
      <routealt last="0">
         <route cost="124.88" probability="1.00">beg middle end rend</route>
      </routealt>
   </vehicle>
   <vehicle id="26" type="0" depart="26">
      <routealt last="0">
         <route cost="124.88" probability="1.00">beg middle end rend</route>
      </routealt>
   </vehicle>
   <vehicle id="27" type="0" depart="27">
      <routealt last="0">
         <route cost="124.88" probability="1.00">beg middle end rend</route>
      </routealt>
   </vehicle>
   <vehicle id="28" type="0" depart="28">
      <routealt last="0">
         <route cost="124.88" probability="1.00">beg middle end rend</route>
      </routealt>
   </vehicle>
   <vehicle id="29" type="0" depart="29">
      <routealt last="0">
         <route cost="124.88" probability="1.00">beg middle end rend</route>
      </routealt>
   </vehicle>
   <vehicle id="30" type="0" depart="30">
      <routealt last="0">
         <route cost="124.88" probability="1.00">beg middle end rend</route>
      </routealt>
   </vehicle>
   <vehicle id="31" type="0" depart="31">
      <routealt last="0">
         <route cost="124.88" probability="1.00">beg middle end rend</route>
      </routealt>
   </vehicle>
   <vehicle id="32" type="0" depart="32">
      <routealt last="0">
         <route cost="124.88" probability="1.00">beg middle end rend</route>
      </routealt>
   </vehicle>
   <vehicle id="33" type="0" depart="33">
      <routealt last="0">
         <route cost="124.88" probability="1.00">beg middle end rend</route>
      </routealt>
   </vehicle>
   <vehicle id="34" type="0" depart="34">
      <routealt last="0">
         <route cost="124.88" probability="1.00">beg middle end rend</route>
      </routealt>
   </vehicle>
   <vehicle id="35" type="0" depart="35">
      <routealt last="0">
         <route cost="124.88" probability="1.00">beg middle end rend</route>
      </routealt>
   </vehicle>
   <vehicle id="36" type="0" depart="36">
      <routealt last="0">
         <route cost="124.88" probability="1.00">beg middle end rend</route>
      </routealt>
   </vehicle>
   <vehicle id="37" type="0" depart="37">
      <routealt last="0">
         <route cost="124.88" probability="1.00">beg middle end rend</route>
      </routealt>
   </vehicle>
   <vehicle id="38" type="0" depart="38">
      <routealt last="0">
         <route cost="124.88" probability="1.00">beg middle end rend</route>
      </routealt>
   </vehicle>
   <vehicle id="39" type="0" depart="39">
      <routealt last="0">
         <route cost="124.88" probability="1.00">beg middle end rend</route>
      </routealt>
   </vehicle>
   <vehicle id="40" type="0" depart="40">
      <routealt last="0">
         <route cost="124.88" probability="1.00">beg middle end rend</route>
      </routealt>
   </vehicle>
   <vehicle id="41" type="0" depart="41">
      <routealt last="0">
         <route cost="124.88" probability="1.00">beg middle end rend</route>
      </routealt>
   </vehicle>
   <vehicle id="42" type="0" depart="42">
      <routealt last="0">
         <route cost="124.88" probability="1.00">beg middle end rend</route>
      </routealt>
   </vehicle>
   <vehicle id="43" type="0" depart="43">
      <routealt last="0">
         <route cost="124.88" probability="1.00">beg middle end rend</route>
      </routealt>
   </vehicle>
   <vehicle id="44" type="0" depart="44">
      <routealt last="0">
         <route cost="124.88" probability="1.00">beg middle end rend</route>
      </routealt>
   </vehicle>
   <vehicle id="45" type="0" depart="45">
      <routealt last="0">
         <route cost="124.88" probability="1.00">beg middle end rend</route>
      </routealt>
   </vehicle>
   <vehicle id="46" type="0" depart="46">
      <routealt last="0">
         <route cost="124.88" probability="1.00">beg middle end rend</route>
      </routealt>
   </vehicle>
   <vehicle id="47" type="0" depart="47">
      <routealt last="0">
         <route cost="124.88" probability="1.00">beg middle end rend</route>
      </routealt>
   </vehicle>
   <vehicle id="48" type="0" depart="48">
      <routealt last="0">
         <route cost="124.88" probability="1.00">beg middle end rend</route>
      </routealt>
   </vehicle>
   <vehicle id="49" type="0" depart="49">
      <routealt last="0">
         <route cost="124.88" probability="1.00">beg middle end rend</route>
      </routealt>
   </vehicle>
   <vehicle id="50" type="0" depart="50">
      <routealt last="0">
         <route cost="124.88" probability="1.00">beg middle end rend</route>
      </routealt>
   </vehicle>
   <vehicle id="51" type="0" depart="51">
      <routealt last="0">
         <route cost="124.88" probability="1.00">beg middle end rend</route>
      </routealt>
   </vehicle>
   <vehicle id="52" type="0" depart="52">
      <routealt last="0">
         <route cost="124.88" probability="1.00">beg middle end rend</route>
      </routealt>
   </vehicle>
   <vehicle id="53" type="0" depart="53">
      <routealt last="0">
         <route cost="124.88" probability="1.00">beg middle end rend</route>
      </routealt>
   </vehicle>
   <vehicle id="54" type="0" depart="54">
      <routealt last="0">
         <route cost="124.88" probability="1.00">beg middle end rend</route>
      </routealt>
   </vehicle>
   <vehicle id="55" type="0" depart="55">
      <routealt last="0">
         <route cost="124.88" probability="1.00">beg middle end rend</route>
      </routealt>
   </vehicle>
   <vehicle id="56" type="0" depart="56">
      <routealt last="0">
         <route cost="124.88" probability="1.00">beg middle end rend</route>
      </routealt>
   </vehicle>
   <vehicle id="57" type="0" depart="57">
      <routealt last="0">
         <route cost="124.88" probability="1.00">beg middle end rend</route>
      </routealt>
   </vehicle>
   <vehicle id="58" type="0" depart="58">
      <routealt last="0">
         <route cost="124.88" probability="1.00">beg middle end rend</route>
      </routealt>
   </vehicle>
   <vehicle id="59" type="0" depart="59">
      <routealt last="0">
         <route cost="124.88" probability="1.00">beg middle end rend</route>
      </routealt>
   </vehicle>
   <vehicle id="60" type="0" depart="60">
      <routealt last="0">
         <route cost="124.88" probability="1.00">beg middle end rend</route>
      </routealt>
   </vehicle>
   <vehicle id="61" type="0" depart="61">
      <routealt last="0">
         <route cost="124.88" probability="1.00">beg middle end rend</route>
      </routealt>
   </vehicle>
   <vehicle id="62" type="0" depart="62">
      <routealt last="0">
         <route cost="124.88" probability="1.00">beg middle end rend</route>
      </routealt>
   </vehicle>
   <vehicle id="63" type="0" depart="63">
      <routealt last="0">
         <route cost="124.88" probability="1.00">beg middle end rend</route>
      </routealt>
   </vehicle>
   <vehicle id="64" type="0" depart="64">
      <routealt last="0">
         <route cost="124.88" probability="1.00">beg middle end rend</route>
      </routealt>
   </vehicle>
   <vehicle id="65" type="0" depart="65">
      <routealt last="0">
         <route cost="124.88" probability="1.00">beg middle end rend</route>
      </routealt>
   </vehicle>
   <vehicle id="66" type="0" depart="66">
      <routealt last="0">
         <route cost="124.88" probability="1.00">beg middle end rend</route>
      </routealt>
   </vehicle>
   <vehicle id="67" type="0" depart="67">
      <routealt last="0">
         <route cost="124.88" probability="1.00">beg middle end rend</route>
      </routealt>
   </vehicle>
   <vehicle id="68" type="0" depart="68">
      <routealt last="0">
         <route cost="124.88" probability="1.00">beg middle end rend</route>
      </routealt>
   </vehicle>
   <vehicle id="69" type="0" depart="69">
      <routealt last="0">
         <route cost="124.88" probability="1.00">beg middle end rend</route>
      </routealt>
   </vehicle>
   <vehicle id="70" type="0" depart="70">
      <routealt last="0">
         <route cost="124.88" probability="1.00">beg middle end rend</route>
      </routealt>
   </vehicle>
   <vehicle id="71" type="0" depart="71">
      <routealt last="0">
         <route cost="124.88" probability="1.00">beg middle end rend</route>
      </routealt>
   </vehicle>
   <vehicle id="72" type="0" depart="72">
      <routealt last="0">
         <route cost="124.88" probability="1.00">beg middle end rend</route>
      </routealt>
   </vehicle>
   <vehicle id="73" type="0" depart="73">
      <routealt last="0">
         <route cost="124.88" probability="1.00">beg middle end rend</route>
      </routealt>
   </vehicle>
   <vehicle id="74" type="0" depart="74">
      <routealt last="0">
         <route cost="124.88" probability="1.00">beg middle end rend</route>
      </routealt>
   </vehicle>
   <vehicle id="75" type="0" depart="75">
      <routealt last="0">
         <route cost="124.88" probability="1.00">beg middle end rend</route>
      </routealt>
   </vehicle>
   <vehicle id="76" type="0" depart="76">
      <routealt last="0">
         <route cost="124.88" probability="1.00">beg middle end rend</route>
      </routealt>
   </vehicle>
   <vehicle id="77" type="0" depart="77">
      <routealt last="0">
         <route cost="124.88" probability="1.00">beg middle end rend</route>
      </routealt>
   </vehicle>
   <vehicle id="78" type="0" depart="78">
      <routealt last="0">
         <route cost="124.88" probability="1.00">beg middle end rend</route>
      </routealt>
   </vehicle>
   <vehicle id="79" type="0" depart="79">
      <routealt last="0">
         <route cost="124.88" probability="1.00">beg middle end rend</route>
      </routealt>
   </vehicle>
   <vehicle id="80" type="0" depart="80">
      <routealt last="0">
         <route cost="124.88" probability="1.00">beg middle end rend</route>
      </routealt>
   </vehicle>
   <vehicle id="81" type="0" depart="81">
      <routealt last="0">
         <route cost="124.88" probability="1.00">beg middle end rend</route>
      </routealt>
   </vehicle>
   <vehicle id="82" type="0" depart="82">
      <routealt last="0">
         <route cost="124.88" probability="1.00">beg middle end rend</route>
      </routealt>
   </vehicle>
   <vehicle id="83" type="0" depart="83">
      <routealt last="0">
         <route cost="124.88" probability="1.00">beg middle end rend</route>
      </routealt>
   </vehicle>
   <vehicle id="84" type="0" depart="84">
      <routealt last="0">
         <route cost="124.88" probability="1.00">beg middle end rend</route>
      </routealt>
   </vehicle>
   <vehicle id="85" type="0" depart="85">
      <routealt last="0">
         <route cost="124.88" probability="1.00">beg middle end rend</route>
      </routealt>
   </vehicle>
   <vehicle id="86" type="0" depart="86">
      <routealt last="0">
         <route cost="124.88" probability="1.00">beg middle end rend</route>
      </routealt>
   </vehicle>
   <vehicle id="87" type="0" depart="87">
      <routealt last="0">
         <route cost="124.88" probability="1.00">beg middle end rend</route>
      </routealt>
   </vehicle>
   <vehicle id="88" type="0" depart="88">
      <routealt last="0">
         <route cost="124.88" probability="1.00">beg middle end rend</route>
      </routealt>
   </vehicle>
   <vehicle id="89" type="0" depart="89">
      <routealt last="0">
         <route cost="124.88" probability="1.00">beg middle end rend</route>
      </routealt>
   </vehicle>
   <vehicle id="90" type="0" depart="90">
      <routealt last="0">
         <route cost="124.88" probability="1.00">beg middle end rend</route>
      </routealt>
   </vehicle>
   <vehicle id="91" type="0" depart="91">
      <routealt last="0">
         <route cost="124.88" probability="1.00">beg middle end rend</route>
      </routealt>
   </vehicle>
   <vehicle id="92" type="0" depart="92">
      <routealt last="0">
         <route cost="124.88" probability="1.00">beg middle end rend</route>
      </routealt>
   </vehicle>
   <vehicle id="93" type="0" depart="93">
      <routealt last="0">
         <route cost="124.88" probability="1.00">beg middle end rend</route>
      </routealt>
   </vehicle>
   <vehicle id="94" type="0" depart="94">
      <routealt last="0">
         <route cost="124.88" probability="1.00">beg middle end rend</route>
      </routealt>
   </vehicle>
   <vehicle id="95" type="0" depart="95">
      <routealt last="0">
         <route cost="124.88" probability="1.00">beg middle end rend</route>
      </routealt>
   </vehicle>
   <vehicle id="96" type="0" depart="96">
      <routealt last="0">
         <route cost="124.88" probability="1.00">beg middle end rend</route>
      </routealt>
   </vehicle>
   <vehicle id="97" type="0" depart="97">
      <routealt last="0">
         <route cost="124.88" probability="1.00">beg middle end rend</route>
      </routealt>
   </vehicle>
   <vehicle id="98" type="0" depart="98">
      <routealt last="0">
         <route cost="124.88" probability="1.00">beg middle end rend</route>
      </routealt>
   </vehicle>
   <vehicle id="99" type="0" depart="99">
      <routealt last="0">
         <route cost="124.88" probability="1.00">beg middle end rend</route>
      </routealt>
   </vehicle>
</route-alternatives>
