<?xml version="1.0" encoding="UTF-8"?>

<!-- generated on 2022-10-12 14:53:14 by Eclipse SUMO netconvert Version v1_14_1+1648-5ffae7ec9dd
<configuration xmlns:xsi="http://www.w3.org/2001/XMLSchema-instance" xsi:noNamespaceSchemaLocation="http://sumo.dlr.de/xsd/netconvertConfiguration.xsd">

    <input>
        <sumo-net-file value="D:/SUMO/tests/netedit\netelements\lanes\inspect\stopoffset/input_net.net.xml"/>
    </input>

    <output>
        <plain-output-prefix value="D:/SUMO/tests/netedit\netelements\lanes\inspect\stopoffset/input_net"/>
    </output>

    <processing>
        <geometry.min-radius.fix.railways value="false"/>
        <geometry.max-grade.fix value="false"/>
        <offset.disable-normalization value="true"/>
        <lefthand value="0"/>
    </processing>

    <junctions>
        <no-turnarounds value="true"/>
        <junctions.corner-detail value="5"/>
        <junctions.limit-turn-speed value="5.50"/>
        <rectangular-lane-cut value="0"/>
    </junctions>

    <pedestrian>
        <walkingareas value="0"/>
    </pedestrian>

</configuration>
-->

<connections version="1.9" xmlns:xsi="http://www.w3.org/2001/XMLSchema-instance" xsi:noNamespaceSchemaLocation="http://sumo.dlr.de/xsd/connections_file.xsd">
    <connection from="gneE0" to="gneE5" fromLane="0" toLane="0"/>
    <connection from="gneE0" to="gneE1" fromLane="0" toLane="0"/>

    <connection from="gneE1" to="gneE9" fromLane="0" toLane="0"/>
    <connection from="gneE1" to="gneE0" fromLane="0" toLane="0"/>

    <connection from="gneE2" to="gneE4" fromLane="0" toLane="0" keepClear="0"/>
    <connection from="gneE2" to="gneE3" fromLane="1" toLane="1"/>

    <connection from="gneE3" to="gneE8" fromLane="0" toLane="0"/>
    <connection from="gneE3" to="gneE2" fromLane="1" toLane="1"/>

    <connection from="gneE4" to="gneE1" fromLane="0" toLane="0" keepClear="0"/>

    <connection from="gneE5" to="gneE3" fromLane="0" toLane="0" keepClear="0"/>
    <connection from="gneE5" to="gneE3" fromLane="0" toLane="1" keepClear="0"/>

    <connection from="gneE8" to="gneE0" fromLane="0" toLane="0" keepClear="0"/>

    <connection from="gneE9" to="gneE2" fromLane="0" toLane="0" keepClear="0"/>
    <connection from="gneE9" to="gneE2" fromLane="0" toLane="1" keepClear="0"/>

</connections>
