<?xml version="1.0"?>

<!-- generated on Tue Jun 28 15:20:16 2011 by SUMO sumo Version dev-SVN-r10759
<?xml version="1.0" encoding="iso-8859-1"?>

<configuration xmlns:xsi="http://www.w3.org/2001/XMLSchema-instance" xsi:noNamespaceSchemaLocation="http://sumo.sf.net/xsd/sumoConfiguration.xsd">

    <input>
        <net-file value="net.net.xml"/>
        <route-files value="input_routes.rou.xml"/>
        <additional-files value="input_additional.add.xml"/>
    </input>

    <time>
        <begin value="0"/>
        <end value="10000"/>
    </time>

    <report>
        <no-duration-log value="true"/>
        <no-step-log value="true"/>
    </report>

</configuration>
-->

<netstats>
    <interval begin="0.00" end="60.00" id="dump_60">
        <edge id="1/1to2/1" sampledSeconds="682.78" traveltime="60.12" density="11.61" occupancy="8.13" waitingTime="0.00" speed="16.30" departed="23" arrived="0" entered="0" left="2" laneChangedFrom="0" laneChangedTo="0"/>
        <edge id="2/1to3/1" sampledSeconds="5.91" traveltime="50.33" density="0.10" occupancy="0.07" waitingTime="0.00" speed="19.47" departed="0" arrived="0" entered="2" left="0" laneChangedFrom="0" laneChangedTo="0"/>
    </interval>
    <interval begin="60.00" end="120.00" id="dump_60">
        <edge id="1/1to2/1" sampledSeconds="1264.03" traveltime="57.04" density="21.50" occupancy="15.05" waitingTime="0.00" speed="17.18" departed="22" arrived="0" entered="0" left="22" laneChangedFrom="0" laneChangedTo="0"/>
        <edge id="2/1to3/1" sampledSeconds="729.79" traveltime="52.42" density="12.41" occupancy="8.69" waitingTime="0.00" speed="18.69" departed="0" arrived="0" entered="22" left="5" laneChangedFrom="0" laneChangedTo="0"/>
        <edge id="3/1to4/1" sampledSeconds="32.90" traveltime="50.79" density="0.56" occupancy="0.39" waitingTime="0.00" speed="19.30" departed="0" arrived="0" entered="4" left="0" laneChangedFrom="0" laneChangedTo="0"/>
    </interval>
    <interval begin="120.00" end="180.00" id="dump_60">
        <edge id="1/1to2/1" sampledSeconds="1265.91" traveltime="57.04" density="21.53" occupancy="15.07" waitingTime="0.00" speed="17.18" departed="23" arrived="0" entered="0" left="22" laneChangedFrom="0" laneChangedTo="0"/>
        <edge id="2/1to3/1" sampledSeconds="1182.64" traveltime="53.02" density="20.11" occupancy="14.08" waitingTime="0.00" speed="18.48" departed="0" arrived="0" entered="22" left="21" laneChangedFrom="0" laneChangedTo="0"/>
        <edge id="3/1to4/1" sampledSeconds="833.51" traveltime="52.34" density="14.18" occupancy="9.92" waitingTime="0.00" speed="18.72" departed="0" arrived="0" entered="22" left="7" laneChangedFrom="0" laneChangedTo="0"/>
        <edge id="4/1to5/1" sampledSeconds="81.67" traveltime="50.97" density="1.39" occupancy="0.97" waitingTime="0.00" speed="19.23" departed="0" arrived="0" entered="7" left="0" laneChangedFrom="0" laneChangedTo="0"/>
    </interval>
    <interval begin="180.00" end="240.00" id="dump_60">
        <edge id="1/1to2/1" sampledSeconds="1266.75" traveltime="57.08" density="21.54" occupancy="15.08" waitingTime="0.00" speed="17.17" departed="22" arrived="0" entered="0" left="23" laneChangedFrom="0" laneChangedTo="0"/>
        <edge id="2/1to3/1" sampledSeconds="1185.28" traveltime="53.05" density="20.16" occupancy="14.11" waitingTime="0.00" speed="18.47" departed="0" arrived="0" entered="23" left="23" laneChangedFrom="0" laneChangedTo="0"/>
        <edge id="3/1to4/1" sampledSeconds="1181.96" traveltime="53.02" density="20.10" occupancy="14.07" waitingTime="0.00" speed="18.48" departed="0" arrived="0" entered="23" left="22" laneChangedFrom="0" laneChangedTo="0"/>
        <edge id="4/1to5/1" sampledSeconds="916.49" traveltime="52.31" density="15.59" occupancy="10.91" waitingTime="0.00" speed="18.73" departed="0" arrived="0" entered="22" left="10" laneChangedFrom="0" laneChangedTo="0"/>
        <edge id="5/1to6/1" sampledSeconds="150.80" traveltime="51.06" density="2.56" occupancy="1.80" waitingTime="0.00" speed="19.19" departed="0" arrived="0" entered="10" left="0" laneChangedFrom="0" laneChangedTo="0"/>
    </interval>
    <interval begin="240.00" end="300.00" id="dump_60">
        <edge id="1/1to2/1" sampledSeconds="1266.23" traveltime="57.06" density="21.54" occupancy="15.08" waitingTime="0.00" speed="17.17" departed="22" arrived="0" entered="0" left="22" laneChangedFrom="0" laneChangedTo="0"/>
        <edge id="2/1to3/1" sampledSeconds="1186.00" traveltime="53.05" density="20.17" occupancy="14.12" waitingTime="0.00" speed="18.47" departed="0" arrived="0" entered="22" left="22" laneChangedFrom="0" laneChangedTo="0"/>
        <edge id="3/1to4/1" sampledSeconds="1185.95" traveltime="53.05" density="20.17" occupancy="14.12" waitingTime="0.00" speed="18.47" departed="0" arrived="0" entered="22" left="22" laneChangedFrom="0" laneChangedTo="0"/>
        <edge id="4/1to5/1" sampledSeconds="1180.96" traveltime="53.01" density="20.09" occupancy="14.06" waitingTime="0.00" speed="18.48" departed="0" arrived="0" entered="22" left="22" laneChangedFrom="0" laneChangedTo="0"/>
        <edge id="5/1to6/1" sampledSeconds="978.31" traveltime="52.30" density="16.64" occupancy="11.65" waitingTime="0.00" speed="18.74" departed="0" arrived="0" entered="21" left="12" laneChangedFrom="0" laneChangedTo="0"/>
        <edge id="6/1to7/1" sampledSeconds="241.34" traveltime="51.14" density="4.10" occupancy="2.87" waitingTime="0.00" speed="19.16" departed="0" arrived="0" entered="12" left="0" laneChangedFrom="0" laneChangedTo="0"/>
    </interval>
    <interval begin="300.00" end="360.00" id="dump_60">
        <edge id="1/1to2/1" sampledSeconds="1266.31" traveltime="57.05" density="21.54" occupancy="15.08" waitingTime="0.00" speed="17.18" departed="23" arrived="0" entered="0" left="22" laneChangedFrom="0" laneChangedTo="0"/>
        <edge id="2/1to3/1" sampledSeconds="1186.01" traveltime="53.05" density="20.17" occupancy="14.12" waitingTime="0.00" speed="18.47" departed="0" arrived="0" entered="22" left="23" laneChangedFrom="0" laneChangedTo="0"/>
        <edge id="3/1to4/1" sampledSeconds="1185.47" traveltime="53.05" density="20.16" occupancy="14.11" waitingTime="0.00" speed="18.47" departed="0" arrived="0" entered="22" left="23" laneChangedFrom="0" laneChangedTo="0"/>
        <edge id="4/1to5/1" sampledSeconds="1185.35" traveltime="53.05" density="20.16" occupancy="14.11" waitingTime="0.00" speed="18.47" departed="0" arrived="0" entered="23" left="22" laneChangedFrom="0" laneChangedTo="0"/>
        <edge id="5/1to6/1" sampledSeconds="1180.25" traveltime="53.01" density="20.07" occupancy="14.05" waitingTime="0.00" speed="18.49" departed="0" arrived="0" entered="23" left="22" laneChangedFrom="0" laneChangedTo="0"/>
        <edge id="6/1to7/1" sampledSeconds="1019.52" traveltime="52.31" density="17.34" occupancy="12.14" waitingTime="0.00" speed="18.73" departed="0" arrived="0" entered="22" left="15" laneChangedFrom="0" laneChangedTo="0"/>
        <edge id="7/1to8/1" sampledSeconds="352.34" traveltime="51.25" density="5.99" occupancy="4.19" waitingTime="0.00" speed="19.12" departed="0" arrived="0" entered="15" left="0" laneChangedFrom="0" laneChangedTo="0"/>
    </interval>
    <interval begin="360.00" end="420.00" id="dump_60">
        <edge id="1/1to2/1" sampledSeconds="1265.84" traveltime="57.05" density="21.53" occupancy="15.07" waitingTime="0.00" speed="17.18" departed="22" arrived="0" entered="0" left="23" laneChangedFrom="0" laneChangedTo="0"/>
        <edge id="2/1to3/1" sampledSeconds="1185.48" traveltime="53.05" density="20.16" occupancy="14.11" waitingTime="0.00" speed="18.47" departed="0" arrived="0" entered="23" left="22" laneChangedFrom="0" laneChangedTo="0"/>
        <edge id="3/1to4/1" sampledSeconds="1185.91" traveltime="53.05" density="20.17" occupancy="14.12" waitingTime="0.00" speed="18.47" departed="0" arrived="0" entered="23" left="22" laneChangedFrom="0" laneChangedTo="0"/>
        <edge id="4/1to5/1" sampledSeconds="1185.97" traveltime="53.05" density="20.17" occupancy="14.12" waitingTime="0.00" speed="18.47" departed="0" arrived="0" entered="22" left="22" laneChangedFrom="0" laneChangedTo="0"/>
        <edge id="5/1to6/1" sampledSeconds="1185.97" traveltime="53.05" density="20.17" occupancy="14.12" waitingTime="0.00" speed="18.47" departed="0" arrived="0" entered="22" left="22" laneChangedFrom="0" laneChangedTo="0"/>
        <edge id="6/1to7/1" sampledSeconds="1179.18" traveltime="53.00" density="20.06" occupancy="14.04" waitingTime="0.00" speed="18.49" departed="0" arrived="0" entered="22" left="22" laneChangedFrom="0" laneChangedTo="0"/>
        <edge id="7/1to8/1" sampledSeconds="1039.65" traveltime="52.31" density="17.68" occupancy="12.38" waitingTime="0.00" speed="18.73" departed="0" arrived="0" entered="22" left="17" laneChangedFrom="0" laneChangedTo="0"/>
        <edge id="8/1to9/1" sampledSeconds="472.99" traveltime="51.27" density="8.04" occupancy="5.63" waitingTime="0.00" speed="19.12" departed="0" arrived="0" entered="17" left="2" laneChangedFrom="0" laneChangedTo="0"/>
        <edge id="9/1to10/1" sampledSeconds="11.06" traveltime="50.30" density="0.19" occupancy="0.13" waitingTime="0.00" speed="19.48" departed="0" arrived="0" entered="2" left="0" laneChangedFrom="0" laneChangedTo="0"/>
    </interval>
    <interval begin="420.00" end="480.00" id="dump_60">
        <edge id="1/1to2/1" sampledSeconds="1265.67" traveltime="57.05" density="21.53" occupancy="15.07" waitingTime="0.00" speed="17.18" departed="22" arrived="0" entered="0" left="22" laneChangedFrom="0" laneChangedTo="0"/>
        <edge id="10/1to1/1" sampledSeconds="40.52" traveltime="50.55" density="0.69" occupancy="0.48" waitingTime="0.00" speed="19.39" departed="0" arrived="0" entered="4" left="0" laneChangedFrom="0" laneChangedTo="0"/>
        <edge id="2/1to3/1" sampledSeconds="1185.93" traveltime="53.05" density="20.17" occupancy="14.12" waitingTime="0.00" speed="18.47" departed="0" arrived="0" entered="22" left="22" laneChangedFrom="0" laneChangedTo="0"/>
        <edge id="3/1to4/1" sampledSeconds="1186.03" traveltime="53.05" density="20.17" occupancy="14.12" waitingTime="0.00" speed="18.47" departed="0" arrived="0" entered="22" left="22" laneChangedFrom="0" laneChangedTo="0"/>
        <edge id="4/1to5/1" sampledSeconds="1185.82" traveltime="53.05" density="20.17" occupancy="14.12" waitingTime="0.00" speed="18.47" departed="0" arrived="0" entered="22" left="23" laneChangedFrom="0" laneChangedTo="0"/>
        <edge id="5/1to6/1" sampledSeconds="1185.33" traveltime="53.05" density="20.16" occupancy="14.11" waitingTime="0.00" speed="18.47" departed="0" arrived="0" entered="23" left="23" laneChangedFrom="0" laneChangedTo="0"/>
        <edge id="6/1to7/1" sampledSeconds="1185.54" traveltime="53.05" density="20.16" occupancy="14.11" waitingTime="0.00" speed="18.47" departed="0" arrived="0" entered="23" left="22" laneChangedFrom="0" laneChangedTo="0"/>
        <edge id="7/1to8/1" sampledSeconds="1178.52" traveltime="53.00" density="20.04" occupancy="14.03" waitingTime="0.00" speed="18.49" departed="0" arrived="0" entered="22" left="22" laneChangedFrom="0" laneChangedTo="0"/>
        <edge id="8/1to9/1" sampledSeconds="1050.70" traveltime="52.35" density="17.87" occupancy="12.51" waitingTime="0.00" speed="18.72" departed="0" arrived="0" entered="22" left="18" laneChangedFrom="0" laneChangedTo="0"/>
        <edge id="9/1to10/1" sampledSeconds="584.88" traveltime="51.31" density="9.95" occupancy="6.96" waitingTime="0.00" speed="19.10" departed="0" arrived="0" entered="18" left="4" laneChangedFrom="0" laneChangedTo="0"/>
    </interval>
    <interval begin="480.00" end="540.00" id="dump_60">
        <edge id="1/1to2/1" sampledSeconds="1220.97" traveltime="55.66" density="20.77" occupancy="14.54" waitingTime="0.00" speed="17.61" departed="13" arrived="0" entered="7" left="22" laneChangedFrom="0" laneChangedTo="0"/>
        <edge id="10/1to1/1" sampledSeconds="682.71" traveltime="51.57" density="11.61" occupancy="8.13" waitingTime="0.00" speed="19.00" departed="0" arrived="0" entered="18" left="7" laneChangedFrom="0" laneChangedTo="0"/>
        <edge id="2/1to3/1" sampledSeconds="1185.64" traveltime="53.05" density="20.17" occupancy="14.12" waitingTime="0.00" speed="18.47" departed="0" arrived="0" entered="22" left="23" laneChangedFrom="0" laneChangedTo="0"/>
        <edge id="3/1to4/1" sampledSeconds="1185.30" traveltime="53.05" density="20.16" occupancy="14.11" waitingTime="0.00" speed="18.47" departed="0" arrived="0" entered="23" left="23" laneChangedFrom="0" laneChangedTo="0"/>
        <edge id="4/1to5/1" sampledSeconds="1185.59" traveltime="53.05" density="20.16" occupancy="14.12" waitingTime="0.00" speed="18.47" departed="0" arrived="0" entered="23" left="22" laneChangedFrom="0" laneChangedTo="0"/>
        <edge id="5/1to6/1" sampledSeconds="1186.00" traveltime="53.05" density="20.17" occupancy="14.12" waitingTime="0.00" speed="18.47" departed="0" arrived="0" entered="22" left="22" laneChangedFrom="0" laneChangedTo="0"/>
        <edge id="6/1to7/1" sampledSeconds="1185.97" traveltime="53.05" density="20.17" occupancy="14.12" waitingTime="0.00" speed="18.47" departed="0" arrived="0" entered="22" left="22" laneChangedFrom="0" laneChangedTo="0"/>
        <edge id="7/1to8/1" sampledSeconds="1185.98" traveltime="53.05" density="20.17" occupancy="14.12" waitingTime="0.00" speed="18.47" departed="0" arrived="0" entered="22" left="22" laneChangedFrom="0" laneChangedTo="0"/>
        <edge id="8/1to9/1" sampledSeconds="1177.39" traveltime="52.99" density="20.02" occupancy="14.02" waitingTime="0.00" speed="18.49" departed="0" arrived="0" entered="22" left="22" laneChangedFrom="0" laneChangedTo="0"/>
        <edge id="9/1to10/1" sampledSeconds="1059.15" traveltime="52.38" density="18.01" occupancy="12.61" waitingTime="0.00" speed="18.71" departed="0" arrived="0" entered="22" left="18" laneChangedFrom="0" laneChangedTo="0"/>
    </interval>
    <interval begin="540.00" end="600.00" id="dump_60">
        <edge id="1/1to2/1" sampledSeconds="963.08" traveltime="52.07" density="16.38" occupancy="11.47" waitingTime="0.00" speed="18.82" departed="0" arrived="0" entered="18" left="21" laneChangedFrom="0" laneChangedTo="0"/>
        <edge id="10/1to1/1" sampledSeconds="1066.06" traveltime="52.41" density="18.13" occupancy="12.69" waitingTime="0.00" speed="18.70" departed="0" arrived="0" entered="22" left="18" laneChangedFrom="0" laneChangedTo="0"/>
        <edge id="2/1to3/1" sampledSeconds="1164.22" traveltime="52.97" density="19.80" occupancy="13.86" waitingTime="0.00" speed="18.50" departed="0" arrived="0" entered="21" left="22" laneChangedFrom="0" laneChangedTo="0"/>
        <edge id="3/1to4/1" sampledSeconds="1185.88" traveltime="53.05" density="20.17" occupancy="14.12" waitingTime="0.00" speed="18.47" departed="0" arrived="0" entered="22" left="22" laneChangedFrom="0" laneChangedTo="0"/>
        <edge id="4/1to5/1" sampledSeconds="1185.95" traveltime="53.05" density="20.17" occupancy="14.12" waitingTime="0.00" speed="18.47" departed="0" arrived="0" entered="22" left="22" laneChangedFrom="0" laneChangedTo="0"/>
        <edge id="5/1to6/1" sampledSeconds="1186.00" traveltime="53.05" density="20.17" occupancy="14.12" waitingTime="0.00" speed="18.47" departed="0" arrived="0" entered="22" left="22" laneChangedFrom="0" laneChangedTo="0"/>
        <edge id="6/1to7/1" sampledSeconds="1185.63" traveltime="53.05" density="20.17" occupancy="14.12" waitingTime="0.00" speed="18.47" departed="0" arrived="0" entered="22" left="23" laneChangedFrom="0" laneChangedTo="0"/>
        <edge id="7/1to8/1" sampledSeconds="1185.33" traveltime="53.05" density="20.16" occupancy="14.11" waitingTime="0.00" speed="18.47" departed="0" arrived="0" entered="23" left="23" laneChangedFrom="0" laneChangedTo="0"/>
        <edge id="8/1to9/1" sampledSeconds="1185.69" traveltime="53.05" density="20.17" occupancy="14.12" waitingTime="0.00" speed="18.47" departed="0" arrived="0" entered="23" left="22" laneChangedFrom="0" laneChangedTo="0"/>
        <edge id="9/1to10/1" sampledSeconds="1176.66" traveltime="52.99" density="20.01" occupancy="14.01" waitingTime="0.00" speed="18.49" departed="0" arrived="0" entered="22" left="22" laneChangedFrom="0" laneChangedTo="0"/>
    </interval>
    <interval begin="600.00" end="660.00" id="dump_60">
        <edge id="1/1to2/1" sampledSeconds="1071.94" traveltime="52.43" density="18.23" occupancy="12.76" waitingTime="0.00" speed="18.69" departed="0" arrived="0" entered="22" left="18" laneChangedFrom="0" laneChangedTo="0"/>
        <edge id="10/1to1/1" sampledSeconds="1175.60" traveltime="52.98" density="19.99" occupancy="14.00" waitingTime="0.00" speed="18.50" departed="0" arrived="0" entered="22" left="22" laneChangedFrom="0" laneChangedTo="0"/>
        <edge id="2/1to3/1" sampledSeconds="962.71" traveltime="52.01" density="16.37" occupancy="11.46" waitingTime="0.00" speed="18.84" departed="0" arrived="0" entered="18" left="20" laneChangedFrom="0" laneChangedTo="0"/>
        <edge id="3/1to4/1" sampledSeconds="1159.93" traveltime="52.95" density="19.73" occupancy="13.81" waitingTime="0.00" speed="18.51" departed="0" arrived="0" entered="20" left="22" laneChangedFrom="0" laneChangedTo="0"/>
        <edge id="4/1to5/1" sampledSeconds="1185.54" traveltime="53.05" density="20.16" occupancy="14.11" waitingTime="0.00" speed="18.47" departed="0" arrived="0" entered="22" left="23" laneChangedFrom="0" laneChangedTo="0"/>
        <edge id="5/1to6/1" sampledSeconds="1185.32" traveltime="53.05" density="20.16" occupancy="14.11" waitingTime="0.00" speed="18.47" departed="0" arrived="0" entered="23" left="23" laneChangedFrom="0" laneChangedTo="0"/>
        <edge id="6/1to7/1" sampledSeconds="1185.72" traveltime="53.05" density="20.17" occupancy="14.12" waitingTime="0.00" speed="18.47" departed="0" arrived="0" entered="23" left="22" laneChangedFrom="0" laneChangedTo="0"/>
        <edge id="7/1to8/1" sampledSeconds="1185.98" traveltime="53.05" density="20.17" occupancy="14.12" waitingTime="0.00" speed="18.47" departed="0" arrived="0" entered="22" left="22" laneChangedFrom="0" laneChangedTo="0"/>
        <edge id="8/1to9/1" sampledSeconds="1185.97" traveltime="53.05" density="20.17" occupancy="14.12" waitingTime="0.00" speed="18.47" departed="0" arrived="0" entered="22" left="22" laneChangedFrom="0" laneChangedTo="0"/>
        <edge id="9/1to10/1" sampledSeconds="1185.91" traveltime="53.05" density="20.17" occupancy="14.12" waitingTime="0.00" speed="18.47" departed="0" arrived="0" entered="22" left="23" laneChangedFrom="0" laneChangedTo="0"/>
    </interval>
    <interval begin="660.00" end="720.00" id="dump_60">
        <edge id="1/1to2/1" sampledSeconds="1174.82" traveltime="52.98" density="19.98" occupancy="13.99" waitingTime="0.00" speed="18.50" departed="0" arrived="0" entered="22" left="22" laneChangedFrom="0" laneChangedTo="0"/>
        <edge id="10/1to1/1" sampledSeconds="1185.82" traveltime="53.05" density="20.17" occupancy="14.12" waitingTime="0.00" speed="18.47" departed="0" arrived="0" entered="23" left="22" laneChangedFrom="0" laneChangedTo="0"/>
        <edge id="2/1to3/1" sampledSeconds="1076.57" traveltime="52.45" density="18.31" occupancy="12.82" waitingTime="0.00" speed="18.68" departed="0" arrived="0" entered="22" left="19" laneChangedFrom="0" laneChangedTo="0"/>
        <edge id="3/1to4/1" sampledSeconds="964.19" traveltime="52.00" density="16.40" occupancy="11.48" waitingTime="0.00" speed="18.85" departed="0" arrived="0" entered="19" left="20" laneChangedFrom="0" laneChangedTo="0"/>
        <edge id="4/1to5/1" sampledSeconds="1154.45" traveltime="52.93" density="19.63" occupancy="13.74" waitingTime="0.00" speed="18.51" departed="0" arrived="0" entered="20" left="22" laneChangedFrom="0" laneChangedTo="0"/>
        <edge id="5/1to6/1" sampledSeconds="1185.92" traveltime="53.05" density="20.17" occupancy="14.12" waitingTime="0.00" speed="18.47" departed="0" arrived="0" entered="22" left="22" laneChangedFrom="0" laneChangedTo="0"/>
        <edge id="6/1to7/1" sampledSeconds="1185.96" traveltime="53.05" density="20.17" occupancy="14.12" waitingTime="0.00" speed="18.47" departed="0" arrived="0" entered="22" left="22" laneChangedFrom="0" laneChangedTo="0"/>
        <edge id="7/1to8/1" sampledSeconds="1185.94" traveltime="53.05" density="20.17" occupancy="14.12" waitingTime="0.00" speed="18.47" departed="0" arrived="0" entered="22" left="23" laneChangedFrom="0" laneChangedTo="0"/>
        <edge id="8/1to9/1" sampledSeconds="1185.46" traveltime="53.05" density="20.16" occupancy="14.11" waitingTime="0.00" speed="18.47" departed="0" arrived="0" entered="22" left="23" laneChangedFrom="0" laneChangedTo="0"/>
        <edge id="9/1to10/1" sampledSeconds="1185.37" traveltime="53.05" density="20.16" occupancy="14.11" waitingTime="0.00" speed="18.47" departed="0" arrived="0" entered="23" left="22" laneChangedFrom="0" laneChangedTo="0"/>
    </interval>
    <interval begin="720.00" end="780.00" id="dump_60">
        <edge id="1/1to2/1" sampledSeconds="1185.69" traveltime="53.05" density="20.17" occupancy="14.12" waitingTime="0.00" speed="18.47" departed="0" arrived="0" entered="22" left="23" laneChangedFrom="0" laneChangedTo="0"/>
        <edge id="10/1to1/1" sampledSeconds="1185.97" traveltime="53.05" density="20.17" occupancy="14.12" waitingTime="0.00" speed="18.47" departed="0" arrived="0" entered="22" left="22" laneChangedFrom="0" laneChangedTo="0"/>
        <edge id="2/1to3/1" sampledSeconds="1173.87" traveltime="52.97" density="19.96" occupancy="13.98" waitingTime="0.00" speed="18.50" departed="0" arrived="0" entered="23" left="22" laneChangedFrom="0" laneChangedTo="0"/>
        <edge id="3/1to4/1" sampledSeconds="1079.96" traveltime="52.46" density="18.37" occupancy="12.86" waitingTime="0.00" speed="18.68" departed="0" arrived="0" entered="22" left="20" laneChangedFrom="0" laneChangedTo="0"/>
        <edge id="4/1to5/1" sampledSeconds="966.21" traveltime="51.99" density="16.43" occupancy="11.50" waitingTime="0.00" speed="18.85" departed="0" arrived="0" entered="20" left="20" laneChangedFrom="0" laneChangedTo="0"/>
        <edge id="5/1to6/1" sampledSeconds="1149.88" traveltime="52.91" density="19.56" occupancy="13.69" waitingTime="0.00" speed="18.52" departed="0" arrived="0" entered="20" left="23" laneChangedFrom="0" laneChangedTo="0"/>
        <edge id="6/1to7/1" sampledSeconds="1185.41" traveltime="53.05" density="20.16" occupancy="14.11" waitingTime="0.00" speed="18.47" departed="0" arrived="0" entered="22" left="23" laneChangedFrom="0" laneChangedTo="0"/>
        <edge id="7/1to8/1" sampledSeconds="1185.38" traveltime="53.05" density="20.16" occupancy="14.11" waitingTime="0.00" speed="18.47" departed="0" arrived="0" entered="23" left="22" laneChangedFrom="0" laneChangedTo="0"/>
        <edge id="8/1to9/1" sampledSeconds="1185.87" traveltime="53.05" density="20.17" occupancy="14.12" waitingTime="0.00" speed="18.47" departed="0" arrived="0" entered="23" left="22" laneChangedFrom="0" laneChangedTo="0"/>
        <edge id="9/1to10/1" sampledSeconds="1185.97" traveltime="53.05" density="20.17" occupancy="14.12" waitingTime="0.00" speed="18.47" departed="0" arrived="0" entered="22" left="22" laneChangedFrom="0" laneChangedTo="0"/>
    </interval>
    <interval begin="780.00" end="840.00" id="dump_60">
        <edge id="1/1to2/1" sampledSeconds="1185.53" traveltime="53.05" density="20.16" occupancy="14.11" waitingTime="0.00" speed="18.47" departed="0" arrived="0" entered="23" left="22" laneChangedFrom="0" laneChangedTo="0"/>
        <edge id="10/1to1/1" sampledSeconds="1185.33" traveltime="53.05" density="20.16" occupancy="14.11" waitingTime="0.00" speed="18.47" departed="0" arrived="0" entered="23" left="23" laneChangedFrom="0" laneChangedTo="0"/>
        <edge id="2/1to3/1" sampledSeconds="1185.87" traveltime="53.05" density="20.17" occupancy="14.12" waitingTime="0.00" speed="18.47" departed="0" arrived="0" entered="22" left="22" laneChangedFrom="0" laneChangedTo="0"/>
        <edge id="3/1to4/1" sampledSeconds="1173.22" traveltime="52.97" density="19.95" occupancy="13.97" waitingTime="0.00" speed="18.50" departed="0" arrived="0" entered="22" left="21" laneChangedFrom="0" laneChangedTo="0"/>
        <edge id="4/1to5/1" sampledSeconds="1083.71" traveltime="52.48" density="18.43" occupancy="12.90" waitingTime="0.00" speed="18.67" departed="0" arrived="0" entered="21" left="19" laneChangedFrom="0" laneChangedTo="0"/>
        <edge id="5/1to6/1" sampledSeconds="968.82" traveltime="51.99" density="16.48" occupancy="11.53" waitingTime="0.00" speed="18.85" departed="0" arrived="0" entered="19" left="19" laneChangedFrom="0" laneChangedTo="0"/>
        <edge id="6/1to7/1" sampledSeconds="1144.55" traveltime="52.89" density="19.47" occupancy="13.63" waitingTime="0.00" speed="18.53" departed="0" arrived="0" entered="20" left="22" laneChangedFrom="0" laneChangedTo="0"/>
        <edge id="7/1to8/1" sampledSeconds="1185.94" traveltime="53.05" density="20.17" occupancy="14.12" waitingTime="0.00" speed="18.47" departed="0" arrived="0" entered="22" left="22" laneChangedFrom="0" laneChangedTo="0"/>
        <edge id="8/1to9/1" sampledSeconds="1185.97" traveltime="53.05" density="20.17" occupancy="14.12" waitingTime="0.00" speed="18.47" departed="0" arrived="0" entered="22" left="22" laneChangedFrom="0" laneChangedTo="0"/>
        <edge id="9/1to10/1" sampledSeconds="1185.77" traveltime="53.05" density="20.17" occupancy="14.12" waitingTime="0.00" speed="18.47" departed="0" arrived="0" entered="22" left="23" laneChangedFrom="0" laneChangedTo="0"/>
    </interval>
    <interval begin="840.00" end="900.00" id="dump_60">
        <edge id="1/1to2/1" sampledSeconds="1185.97" traveltime="53.05" density="20.17" occupancy="14.12" waitingTime="0.00" speed="18.47" departed="0" arrived="0" entered="22" left="22" laneChangedFrom="0" laneChangedTo="0"/>
        <edge id="10/1to1/1" sampledSeconds="1185.97" traveltime="53.05" density="20.17" occupancy="14.12" waitingTime="0.00" speed="18.47" departed="0" arrived="0" entered="22" left="22" laneChangedFrom="0" laneChangedTo="0"/>
        <edge id="2/1to3/1" sampledSeconds="1185.97" traveltime="53.05" density="20.17" occupancy="14.12" waitingTime="0.00" speed="18.47" departed="0" arrived="0" entered="22" left="22" laneChangedFrom="0" laneChangedTo="0"/>
        <edge id="3/1to4/1" sampledSeconds="1185.43" traveltime="53.04" density="20.16" occupancy="14.11" waitingTime="0.00" speed="18.47" departed="0" arrived="0" entered="22" left="23" laneChangedFrom="0" laneChangedTo="0"/>
        <edge id="4/1to5/1" sampledSeconds="1172.29" traveltime="52.96" density="19.94" occupancy="13.96" waitingTime="0.00" speed="18.50" departed="0" arrived="0" entered="23" left="22" laneChangedFrom="0" laneChangedTo="0"/>
        <edge id="5/1to6/1" sampledSeconds="1086.26" traveltime="52.49" density="18.47" occupancy="12.93" waitingTime="0.00" speed="18.67" departed="0" arrived="0" entered="22" left="20" laneChangedFrom="0" laneChangedTo="0"/>
        <edge id="6/1to7/1" sampledSeconds="972.23" traveltime="52.00" density="16.54" occupancy="11.57" waitingTime="0.00" speed="18.85" departed="0" arrived="0" entered="20" left="20" laneChangedFrom="0" laneChangedTo="0"/>
        <edge id="7/1to8/1" sampledSeconds="1139.23" traveltime="52.87" density="19.38" occupancy="13.56" waitingTime="0.00" speed="18.54" departed="0" arrived="0" entered="20" left="23" laneChangedFrom="0" laneChangedTo="0"/>
        <edge id="8/1to9/1" sampledSeconds="1185.30" traveltime="53.05" density="20.16" occupancy="14.11" waitingTime="0.00" speed="18.47" departed="0" arrived="0" entered="23" left="23" laneChangedFrom="0" laneChangedTo="0"/>
        <edge id="9/1to10/1" sampledSeconds="1185.54" traveltime="53.05" density="20.16" occupancy="14.11" waitingTime="0.00" speed="18.47" departed="0" arrived="0" entered="23" left="22" laneChangedFrom="0" laneChangedTo="0"/>
    </interval>
    <interval begin="900.00" end="960.00" id="dump_60">
        <edge id="1/1to2/1" sampledSeconds="1185.61" traveltime="53.05" density="20.16" occupancy="14.12" waitingTime="0.00" speed="18.47" departed="0" arrived="0" entered="22" left="23" laneChangedFrom="0" laneChangedTo="0"/>
        <edge id="10/1to1/1" sampledSeconds="1185.97" traveltime="53.05" density="20.17" occupancy="14.12" waitingTime="0.00" speed="18.47" departed="0" arrived="0" entered="22" left="22" laneChangedFrom="0" laneChangedTo="0"/>
        <edge id="2/1to3/1" sampledSeconds="1185.33" traveltime="53.05" density="20.16" occupancy="14.11" waitingTime="0.00" speed="18.47" departed="0" arrived="0" entered="23" left="23" laneChangedFrom="0" laneChangedTo="0"/>
        <edge id="3/1to4/1" sampledSeconds="1185.70" traveltime="53.05" density="20.17" occupancy="14.12" waitingTime="0.00" speed="18.47" departed="0" arrived="0" entered="23" left="22" laneChangedFrom="0" laneChangedTo="0"/>
        <edge id="4/1to5/1" sampledSeconds="1185.75" traveltime="53.04" density="20.17" occupancy="14.12" waitingTime="0.00" speed="18.47" departed="0" arrived="0" entered="22" left="22" laneChangedFrom="0" laneChangedTo="0"/>
        <edge id="5/1to6/1" sampledSeconds="1171.72" traveltime="52.96" density="19.93" occupancy="13.95" waitingTime="0.00" speed="18.50" departed="0" arrived="0" entered="22" left="21" laneChangedFrom="0" laneChangedTo="0"/>
        <edge id="6/1to7/1" sampledSeconds="1088.71" traveltime="52.50" density="18.52" occupancy="12.96" waitingTime="0.00" speed="18.66" departed="0" arrived="0" entered="21" left="19" laneChangedFrom="0" laneChangedTo="0"/>
        <edge id="7/1to8/1" sampledSeconds="975.71" traveltime="52.00" density="16.59" occupancy="11.62" waitingTime="0.00" speed="18.84" departed="0" arrived="0" entered="19" left="19" laneChangedFrom="0" laneChangedTo="0"/>