<additional xmlns:xsi="http://www.w3.org/2001/XMLSchema-instance" xsi:noNamespaceSchemaLocation="https://sumo.dlr.de/xsd/additional_file.xsd">

	<!-- Valid parent -->
    <e3Detector id="e3Detector_0" freq="100" file="e3Detector_0.txt" timeThreshold="1.00" speedThreshold="1.39" pos="22.97,6.36">
		
		<!-- non valid Position (missing) -->
		<detEntry lane="gneE1_0"/>
		
		<!-- non valid Position (dummy) -->
		<detEntry lane="gneE1_0" pos="dummyPosition"/>
		
		<!-- non valid Position (empty) -->
        <detEntry lane="gneE1_0" pos=""/>
		
		<!-- non valid Position (negative) -->
        <detEntry lane="gneE1_0" pos="-10"/>
		
		<!-- non valid Position (overpassing lane) -->
        <detEntry lane="gneE1_0" pos="20000"/>
		
		<!-- valid Position (overpassing lane) -->
        <detEntry lane="gneE1_0" pos="50"/>
		
		<!-- Extra detExit for parent -->
        <detExit lane="gneE1_0" pos="50"/>
		
    </e3Detector>

</additional>
