<?xml version="1.0" encoding="UTF-8"?>

<!-- generated on Wed Aug  1 10:56:55 2018 by Eclipse SUMO netconvert Version db333e2
This data file and the accompanying materials
are made available under the terms of the Eclipse Public License v2.0
which accompanies this distribution, and is available at
http://www.eclipse.org/legal/epl-v20.html
SPDX-License-Identifier: EPL-2.0
<configuration xmlns:xsi="http://www.w3.org/2001/XMLSchema-instance" xsi:noNamespaceSchemaLocation="http://sumo.dlr.de/xsd/netconvertConfiguration.xsd">

    <input>
        <sumo-net-file value="input_net.net.xml"/>
    </input>

    <output>
        <write-license value="true"/>
        <ptstop-files value="input_ptstops.xml"/>
        <ptline-files value="input_ptlines.xml"/>
        <ptstop-output value="additional.xml"/>
        <ptline-output value="ptlines.xml"/>
        <railway.topology.output value="topology.xml"/>
    </output>

    <processing>
        <no-turnarounds value="true"/>
        <railway.topology.repair value="true"/>
        <offset.disable-normalization value="true"/>
        <lefthand value="false"/>
        <junctions.corner-detail value="5"/>
        <rectangular-lane-cut value="false"/>
        <walkingareas value="false"/>
    </processing>

    <report>
        <verbose value="true"/>
        <xml-validation value="never"/>
    </report>

</configuration>
-->

<net version="0.27" junctionCornerDetail="5" xmlns:xsi="http://www.w3.org/2001/XMLSchema-instance" xsi:noNamespaceSchemaLocation="http://sumo.dlr.de/xsd/net_file.xsd">

    <location netOffset="0.00,0.00" convBoundary="-100.95,-200.00,300.00,-87.31" origBoundary="-10000000000.00,-10000000000.00,10000000000.00,10000000000.00" projParameter="!"/>

    <edge id=":gneJ38_0" function="internal">
        <lane id=":gneJ38_0_0" index="0" allow="rail_urban" speed="27.78" length="0.10" shape="0.00,-100.00 0.00,-100.00"/>
    </edge>
    <edge id=":gneJ38_1" function="internal">
        <lane id=":gneJ38_1_0" index="0" allow="rail_urban" speed="27.78" length="0.10" shape="0.00,-100.00 0.00,-100.00"/>
    </edge>
    <edge id=":gneJ39_0" function="internal">
        <lane id=":gneJ39_0_0" index="0" allow="rail_urban" speed="27.78" length="0.57" shape="100.27,-99.90 100.11,-99.96 100.00,-99.99 99.88,-100.00 99.71,-100.00"/>
    </edge>
    <edge id=":gneJ39_1" function="internal">
        <lane id=":gneJ39_1_0" index="0" allow="rail_urban" speed="27.78" length="0.57" shape="99.71,-100.00 99.88,-100.00 100.00,-99.99 100.11,-99.96 100.27,-99.90"/>
    </edge>
    <edge id=":gneJ45_0" function="internal">
        <lane id=":gneJ45_0_0" index="0" allow="rail_urban" speed="27.78" length="0.10" shape="0.00,-200.00 0.00,-200.00"/>
    </edge>
    <edge id=":gneJ46_0" function="internal">
        <lane id=":gneJ46_0_0" index="0" allow="rail_urban" speed="27.78" length="16.90" shape="101.69,-200.00 97.68,-199.61 93.39,-198.68 89.12,-197.53 85.19,-196.50"/>
    </edge>
    <edge id=":gneJ46_1" function="internal">
        <lane id=":gneJ46_1_0" index="0" allow="rail_urban" speed="27.78" length="16.91" shape="84.78,-200.00 101.69,-200.00"/>
    </edge>
    <edge id=":gneJ46_2" function="internal">
        <lane id=":gneJ46_2_0" index="0" allow="rail_urban" speed="27.78" length="16.90" shape="85.19,-196.50 89.12,-197.53 93.39,-198.68 97.68,-199.61 101.69,-200.00"/>
    </edge>
    <edge id=":gneJ47_0" function="internal">
        <lane id=":gneJ47_0_0" index="0" allow="rail_urban" speed="27.78" length="0.10" shape="200.00,-200.00 200.00,-200.00"/>
    </edge>
    <edge id=":gneJ47_1" function="internal">
        <lane id=":gneJ47_1_0" index="0" allow="rail_urban" speed="27.78" length="0.10" shape="200.00,-200.00 200.00,-200.00"/>
    </edge>
    <edge id=":gneJ48_0" function="internal">
        <lane id=":gneJ48_0_0" index="0" allow="rail_urban" speed="27.78" length="0.38" shape="-0.43,-176.25 -0.54,-176.23 -0.62,-176.22 -0.70,-176.21 -0.81,-176.21"/>
    </edge>
    <edge id=":gneJ48_1" function="internal">
        <lane id=":gneJ48_1_0" index="0" allow="rail_urban" speed="27.78" length="0.38" shape="-0.81,-176.21 -0.70,-176.21 -0.62,-176.22 -0.54,-176.23 -0.43,-176.25"/>
    </edge>

    <edge id="-a" from="gneJ38" to="gneJ40" priority="-1" spreadType="center">
        <lane id="-a_0" index="0" allow="rail_urban" speed="27.78" length="100.00" shape="0.00,-100.00 -100.00,-100.00"/>
    </edge>
    <edge id="-b" from="gneJ39" to="gneJ38" priority="-1" spreadType="center">
        <lane id="-b_0" index="0" allow="rail_urban" speed="27.78" length="99.71" shape="99.71,-100.00 0.00,-100.00"/>
    </edge>
    <edge id="-c" from="gneJ39" to="gneJ43" priority="-1" spreadType="center" shape="100.00,-100.00 134.05,-87.31 200.96,-87.41">
        <lane id="-c_0" index="0" allow="rail_urban" speed="27.78" length="102.96" shape="100.27,-99.90 134.05,-87.31 200.96,-87.41"/>
    </edge>
    <edge id="-f" from="gneJ47" to="gneJ46" priority="-1" spreadType="center">
        <lane id="-f_0" index="0" allow="rail_urban" speed="27.78" length="98.31" shape="200.00,-200.00 101.69,-200.00"/>
    </edge>
    <edge id="-g" from="gneJ48" to="gneJ46" priority="-1" spreadType="center">
        <lane id="-g_0" index="0" allow="rail_urban" speed="27.78" length="87.98" shape="-0.43,-176.25 85.19,-196.50"/>
    </edge>
    <edge id="-gneE1" from="gneJ52" to="gneJ47" priority="-1" spreadType="center">
        <lane id="-gneE1_0" index="0" allow="rail_urban" speed="27.78" length="100.00" shape="300.00,-200.00 200.00,-200.00"/>
    </edge>
    <edge id="-h" from="gneJ49" to="gneJ48" priority="-1" spreadType="center">
        <lane id="-h_0" index="0" allow="rail_urban" speed="27.78" length="100.14" shape="-100.95,-176.82 -0.81,-176.21"/>
    </edge>
    <edge id="a" from="gneJ40" to="gneJ38" priority="-1" spreadType="center">
        <lane id="a_0" index="0" allow="rail_urban" speed="27.78" length="100.00" shape="-100.00,-100.00 0.00,-100.00"/>
    </edge>
    <edge id="b" from="gneJ38" to="gneJ39" priority="-1" spreadType="center">
        <lane id="b_0" index="0" allow="rail_urban" speed="27.78" length="99.71" shape="0.00,-100.00 99.71,-100.00"/>
    </edge>
    <edge id="c" from="gneJ43" to="gneJ39" priority="-1" spreadType="center" shape="200.96,-87.41 134.05,-87.31 100.00,-100.00">
        <lane id="c_0" index="0" allow="rail_urban" speed="27.78" length="102.96" shape="200.96,-87.41 134.05,-87.31 100.27,-99.90"/>
    </edge>
    <edge id="d" from="gneJ44" to="gneJ45" priority="-1" spreadType="center">
        <lane id="d_0" index="0" allow="rail_urban" speed="27.78" length="100.00" shape="-100.00,-200.00 0.00,-200.00"/>
    </edge>
    <edge id="e" from="gneJ45" to="gneJ46" priority="-1" spreadType="center">
        <lane id="e_0" index="0" allow="rail_urban" speed="27.78" length="84.78" shape="0.00,-200.00 84.78,-200.00"/>
    </edge>
    <edge id="f" from="gneJ46" to="gneJ47" priority="-1" spreadType="center">
        <lane id="f_0" index="0" allow="rail_urban" speed="27.78" length="98.31" shape="101.69,-200.00 200.00,-200.00"/>
    </edge>
    <edge id="g" from="gneJ46" to="gneJ48" priority="-1" spreadType="center">
        <lane id="g_0" index="0" allow="rail_urban" speed="27.78" length="87.98" shape="85.19,-196.50 -0.43,-176.25"/>
    </edge>
    <edge id="gneE1" from="gneJ47" to="gneJ52" priority="-1" spreadType="center">
        <lane id="gneE1_0" index="0" allow="rail_urban" speed="27.78" length="100.00" shape="200.00,-200.00 300.00,-200.00"/>
    </edge>
    <edge id="gneE2" from="gneJ53" to="gneJ54" priority="-1" spreadType="center">
        <lane id="gneE2_0" index="0" allow="rail_urban" speed="27.78" length="100.00" shape="100.00,-100.00 200.00,-100.00"/>
    </edge>
    <edge id="h" from="gneJ48" to="gneJ49" priority="-1" spreadType="center">
        <lane id="h_0" index="0" allow="rail_urban" speed="27.78" length="100.14" shape="-0.81,-176.21 -100.95,-176.82"/>
    </edge>

    <junction id="gneJ38" type="priority" x="0.00" y="-100.00" incLanes="-b_0 a_0" intLanes=":gneJ38_0_0 :gneJ38_1_0" shape="0.00,-98.40 0.00,-101.60 0.00,-98.40">
        <request index="0" response="00" foes="00" cont="0"/>
        <request index="1" response="00" foes="00" cont="0"/>
    </junction>
    <junction id="gneJ39" type="priority" x="100.00" y="-100.00" incLanes="c_0 b_0" intLanes=":gneJ39_0_0 :gneJ39_1_0" shape="99.71,-98.40 100.83,-101.40 100.43,-101.54 100.28,-101.57 100.14,-101.59 99.95,-101.60 99.71,-101.60">
        <request index="0" response="00" foes="00" cont="0"/>
        <request index="1" response="00" foes="00" cont="0"/>
    </junction>
    <junction id="gneJ40" type="dead_end" x="-100.00" y="-100.00" incLanes="-a_0" intLanes="" shape="-100.00,-98.40 -100.00,-101.60 -100.00,-98.40 -100.00,-101.60"/>
    <junction id="gneJ43" type="dead_end" x="200.96" y="-87.41" incLanes="-c_0" intLanes="" shape="200.96,-89.01 200.96,-85.81 200.96,-89.01 200.96,-85.81"/>
    <junction id="gneJ44" type="dead_end" x="-100.00" y="-200.00" incLanes="" intLanes="" shape="-100.00,-198.40 -100.00,-201.60"/>
    <junction id="gneJ45" type="priority" x="0.00" y="-200.00" incLanes="d_0" intLanes=":gneJ45_0_0" shape="0.00,-198.40 0.00,-201.60 0.00,-198.40">
        <request index="0" response="0" foes="0" cont="0"/>
    </junction>
    <junction id="gneJ46" type="priority" x="100.00" y="-200.00" incLanes="-f_0 e_0 -g_0" intLanes=":gneJ46_0_0 :gneJ46_1_0 :gneJ46_2_0" shape="101.69,-198.40 101.69,-201.60 84.78,-201.60 84.78,-198.40 84.82,-198.05 85.56,-194.94 88.96,-195.86 91.47,-196.68 93.54,-197.38 95.62,-197.92 98.18,-198.28">
        <request index="0" response="000" foes="000" cont="0"/>
        <request index="1" response="000" foes="100" cont="0"/>
        <request index="2" response="010" foes="010" cont="0"/>
    </junction>
    <junction id="gneJ47" type="priority" x="200.00" y="-200.00" incLanes="-gneE1_0 f_0" intLanes=":gneJ47_0_0 :gneJ47_1_0" shape="200.00,-198.40 200.00,-201.60 200.00,-198.40">
        <request index="0" response="00" foes="00" cont="0"/>
        <request index="1" response="00" foes="00" cont="0"/>
    </junction>
    <junction id="gneJ48" type="priority" x="-0.62" y="-176.21" incLanes="g_0 -h_0" intLanes=":gneJ48_0_0 :gneJ48_1_0" shape="-0.07,-174.70 -0.80,-177.81 -0.82,-174.61 -0.54,-174.61 -0.44,-174.62 -0.34,-174.64 -0.22,-174.66">
        <request index="0" response="00" foes="00" cont="0"/>
        <request index="1" response="00" foes="00" cont="0"/>
    </junction>
    <junction id="gneJ49" type="dead_end" x="-100.95" y="-176.82" incLanes="h_0" intLanes="" shape="-100.96,-175.22 -100.94,-178.42 -100.96,-175.22 -100.94,-178.42"/>
    <junction id="gneJ52" type="dead_end" x="300.00" y="-200.00" incLanes="gneE1_0" intLanes="" shape="300.00,-201.60 300.00,-198.40 300.00,-201.60 300.00,-198.40"/>
    <junction id="gneJ53" type="dead_end" x="100.00" y="-100.00" incLanes="" intLanes="" shape="100.00,-98.40 100.00,-101.60"/>
    <junction id="gneJ54" type="dead_end" x="200.00" y="-100.00" incLanes="gneE2_0" intLanes="" shape="200.00,-101.60 200.00,-98.40"/>

    <connection from="-b" to="-a" fromLane="0" toLane="0" via=":gneJ38_0_0" dir="s" state="M"/>
    <connection from="-f" to="g" fromLane="0" toLane="0" via=":gneJ46_0_0" dir="s" state="M"/>
    <connection from="-g" to="f" fromLane="0" toLane="0" via=":gneJ46_2_0" dir="s" state="m"/>
    <connection from="-gneE1" to="-f" fromLane="0" toLane="0" via=":gneJ47_0_0" dir="s" state="M"/>
    <connection from="-h" to="-g" fromLane="0" toLane="0" via=":gneJ48_1_0" dir="s" state="M"/>
    <connection from="a" to="b" fromLane="0" toLane="0" via=":gneJ38_1_0" dir="s" state="M"/>
    <connection from="b" to="-c" fromLane="0" toLane="0" via=":gneJ39_1_0" dir="s" state="M"/>
    <connection from="c" to="-b" fromLane="0" toLane="0" via=":gneJ39_0_0" dir="s" state="M"/>
    <connection from="d" to="e" fromLane="0" toLane="0" via=":gneJ45_0_0" dir="s" state="M"/>
    <connection from="e" to="f" fromLane="0" toLane="0" via=":gneJ46_1_0" dir="s" state="M"/>
    <connection from="f" to="gneE1" fromLane="0" toLane="0" via=":gneJ47_1_0" dir="s" state="M"/>
    <connection from="g" to="h" fromLane="0" toLane="0" via=":gneJ48_0_0" dir="s" state="M"/>

    <connection from=":gneJ38_0" to="-a" fromLane="0" toLane="0" dir="s" state="M"/>
    <connection from=":gneJ38_1" to="b" fromLane="0" toLane="0" dir="s" state="M"/>
    <connection from=":gneJ39_0" to="-b" fromLane="0" toLane="0" dir="s" state="M"/>
    <connection from=":gneJ39_1" to="-c" fromLane="0" toLane="0" dir="s" state="M"/>
    <connection from=":gneJ45_0" to="e" fromLane="0" toLane="0" dir="s" state="M"/>
    <connection from=":gneJ46_0" to="g" fromLane="0" toLane="0" dir="s" state="M"/>
    <connection from=":gneJ46_1" to="f" fromLane="0" toLane="0" dir="s" state="M"/>
    <connection from=":gneJ46_2" to="f" fromLane="0" toLane="0" dir="s" state="M"/>
    <connection from=":gneJ47_0" to="-f" fromLane="0" toLane="0" dir="s" state="M"/>
    <connection from=":gneJ47_1" to="gneE1" fromLane="0" toLane="0" dir="s" state="M"/>
    <connection from=":gneJ48_0" to="h" fromLane="0" toLane="0" dir="s" state="M"/>
    <connection from=":gneJ48_1" to="-g" fromLane="0" toLane="0" dir="s" state="M"/>

</net>
