<?xml version="1.0" encoding="UTF-8"?>

<!-- generated on Wed Aug  1 14:06:41 2018 by Eclipse SUMO netconvert Version 4179c84
This data file and the accompanying materials
are made available under the terms of the Eclipse Public License v2.0
which accompanies this distribution, and is available at
http://www.eclipse.org/legal/epl-v20.html
SPDX-License-Identifier: EPL-2.0
<configuration xmlns:xsi="http://www.w3.org/2001/XMLSchema-instance" xsi:noNamespaceSchemaLocation="http://sumo.dlr.de/xsd/netconvertConfiguration.xsd">

    <input>
        <sumo-net-file value="input_net.net.xml"/>
    </input>

    <output>
        <write-license value="true"/>
        <ptstop-files value="input_ptstops.xml"/>
        <ptline-files value="input_ptlines.xml"/>
        <ptstop-output value="additional.xml"/>
        <ptline-output value="ptlines.xml"/>
        <railway.topology.output value="topology.xml"/>
    </output>

    <processing>
        <no-turnarounds value="true"/>
        <railway.topology.repair value="true"/>
        <offset.disable-normalization value="true"/>
        <lefthand value="false"/>
        <junctions.corner-detail value="5"/>
        <rectangular-lane-cut value="false"/>
        <walkingareas value="false"/>
    </processing>

    <report>
        <verbose value="true"/>
        <xml-validation value="never"/>
    </report>

</configuration>
-->

<railwayTopology>
    <railNodeType in="0" out="1">
        <node id="12"/>
        <node id="5"/>
    </railNodeType>
    <railNodeType in="1" out="0">
        <node id="4"/>
        <node id="6"/>
    </railNodeType>
    <railNodeType in="1" out="1">
        <node id="1"/>
        <node id="10"/>
        <node id="11"/>
        <node id="7"/>
    </railNodeType>
    <railNodeType in="2" out="2">
        <node id="2"/>
        <node id="3"/>
        <node id="8"/>
        <node id="9"/>
    </railNodeType>
    <bidiEdge id="a" bidi="-a"/>
    <bidiEdge id="b" bidi="-b"/>
    <bidiEdge id="f" bidi="-f"/>
    <bidiEdge id="gneE1" bidi="-gneE1"/>
</railwayTopology>
