<routes xmlns:xsi="http://www.w3.org/2001/XMLSchema-instance" xsi:noNamespaceSchemaLocation="http://sumo.dlr.de/xsd/routes_file.xsd">
    <vType id="DEFAULT_VEHTYPE" sigma="0"/>
    <route id="1" edges="beg end">
        <stop lane="beg_0" endPos="6" until="50"/>
        <stop lane="end_0" endPos="4" until="100"/>
    </route>
    <flow begin="0" end="300" period="100" id="bus" route="1"/>
</routes>



