<?xml version="1.0" encoding="UTF-8"?>

<!-- generated on 2025-04-14 14:56:10 by Eclipse SUMO netedit Version v1_22_0+1491-6ef8282ea1d
-->

<additional xmlns:xsi="http://www.w3.org/2001/XMLSchema-instance" xsi:noNamespaceSchemaLocation="http://sumo.dlr.de/xsd/additional_file.xsd">
    <!-- StoppingPlaces -->
    <trainStop id="ts_0" lane="E0_0" startPos="40.72" endPos="50.72"/>
</additional>
