<?xml version="1.0" encoding="UTF-8"?>

<!-- generated on 2022-10-21 16:02:46 by Eclipse SUMO netedit Version v1_14_1+1876-eb3cce9c206
-->

<routes xmlns:xsi="http://www.w3.org/2001/XMLSchema-instance" xsi:noNamespaceSchemaLocation="http://sumo.dlr.de/xsd/routes_file.xsd">
    <!-- Routes -->
    <route id="route_0" edges="gneE0 gneE1" color="yellow"/>
    <!-- Vehicles, persons and containers (sorted by depart) -->
    <flow id="routeFlow" begin="0.00" route="route_0" end="3600.00" number="18">
        <stop lane="gneE1_0" startPos="8.00" endPos="18.00" duration="60.00" speed="13.89"/>
        <stop lane="gneE1_0" startPos="9.00" endPos="19.00" duration="60.00" permitted="ID1 ID2 ID3" speed="13.89"/>
    </flow>
</routes>
