<?xml version="1.0" encoding="iso-8859-1"?>

<!-- generated on Wed Aug 17 23:05:39 2011 by SUMO netconvert Version dev-SVN-r11101
<?xml version="1.0" encoding="iso-8859-1"?>

<configuration xmlns:xsi="http://www.w3.org/2001/XMLSchema-instance" xsi:noNamespaceSchemaLocation="http://sumo.dlr.de/xsd/netconvertConfiguration.xsd">

    <input>
        <sumo-net-file value="net.net.xml"/>
    </input>

    <output>
        <plain-output-prefix value="hello"/>
    </output>

</configuration>
-->

<nodes version="0.13" xmlns:xsi="http://www.w3.org/2001/XMLSchema-instance" xsi:noNamespaceSchemaLocation="http://sumo.dlr.de/xsd/nodes_file.xsd">
    <node id="SUMOGenerated0" x="1000000.00" y="0.00" type="unregulated"/>
    <node id="SUMOGenerated1" x="0.00" y="0.00" type="priority"/>
    <node id="SUMOGenerated2" x="1.00" y="0.00" type="unregulated"/>
</nodes>
