<?xml version="1.0" encoding="UTF-8"?>

<!-- generated on 2025-10-08T08:53:10.138192+01:00 by Eclipse SUMO netedit v1_24_0+1253-fef8d3c1920
<neteditConfiguration xmlns:xsi="http://www.w3.org/2001/XMLSchema-instance" xsi:noNamespaceSchemaLocation="http://sumo.dlr.de/xsd/neteditConfiguration.xsd">

    <input>
        <sumo-net-file value="net.net.xml"/>
    </input>

    <output>
        <output-file value="net.net.xml"/>
        <output.street-names value="true"/>
    </output>

    <processing>
        <geometry.min-radius.fix.railways value="false"/>
        <geometry.avoid-overlap value="false"/>
        <geometry.max-grade.fix value="false"/>
        <offset.disable-normalization value="true"/>
        <lefthand value="0"/>
    </processing>

    <junctions>
        <no-turnarounds value="true"/>
        <junctions.corner-detail value="5"/>
        <junctions.limit-turn-speed value="5.50"/>
        <rectangular-lane-cut value="0"/>
    </junctions>

    <pedestrian>
        <walkingareas value="0"/>
    </pedestrian>

</neteditConfiguration>
-->

<net version="1.20" junctionCornerDetail="5" limitTurnSpeed="5.50" avoidOverlap="0" xmlns:xsi="http://www.w3.org/2001/XMLSchema-instance" xsi:noNamespaceSchemaLocation="http://sumo.dlr.de/xsd/net_file.xsd">

    <location netOffset="0.00,0.00" convBoundary="0.00,0.00,200.00,0.00" origBoundary="-10000000000.00,-10000000000.00,10000000000.00,10000000000.00" projParameter="!"/>

    <edge id=":J1_0" function="internal">
        <lane id=":J1_0_0" index="0" speed="13.89" length="0.10" shape="100.00,-1.60 100.00,-1.60"/>
    </edge>

    <edge id="E0" from="J0" to="J1" name="Hi, I&apos;m a new user of SUMO.I want to add the Nasch model to SUMO version 1." priority="-1">
        <lane id="E0_0" index="0" speed="13.89" length="100.00" shape="0.00,-1.60 100.00,-1.60"/>
    </edge>
    <edge id="E1" from="J1" to="J2" priority="-1">
        <lane id="E1_0" index="0" speed="13.89" length="100.00" shape="100.00,-1.60 200.00,-1.60"/>
    </edge>

    <tlLogic id="J1" type="actuated" programID="0" offset="0">
        <phase duration="5"  state="r" minDur="5" next="0 1"/>
        <phase duration="5"  state="u"/>
        <phase duration="1"  state="G"/>
        <phase duration="3"  state="y"/>
    </tlLogic>

    <junction id="J0" type="dead_end" x="0.00" y="0.00" incLanes="" intLanes="" shape="0.00,0.00 0.00,-3.20"/>
    <junction id="J1" type="traffic_light" x="100.00" y="0.00" incLanes="E0_0" intLanes=":J1_0_0" shape="100.00,0.00 100.00,-3.20 100.00,0.00">
        <request index="0" response="0" foes="0" cont="0"/>
    </junction>
    <junction id="J2" type="dead_end" x="200.00" y="0.00" incLanes="E1_0" intLanes="" shape="200.00,-3.20 200.00,0.00"/>

    <connection from="E0" to="E1" fromLane="0" toLane="0" via=":J1_0_0" tl="J1" linkIndex="0" dir="s" state="O"/>

    <connection from=":J1_0" to="E1" fromLane="0" toLane="0" dir="s" state="M"/>

</net>
