<?xml version="1.0"?>

<!-- generated on 11/21/07 15:06:29 by SUMO sumo Version 0.9.7
<configuration>

   <input>
      <net-file>net.net.xml</net-file>
      <route-files>input_routes.rou.xml</route-files>
      <additional-files>input_additional.add.xml</additional-files>
   </input>

   <time>
      <begin>0</begin>
      <end>1000</end>
   </time>

   <processing>
      <no-duration-log>true</no-duration-log>
      <no-step-log>true</no-step-log>
   </processing>

</configuration>
-->

<e3-detector>
   <entry lane="1o_0" pos="0.00"/>
   <exit lane="2o_0" pos="0.00"/>
   <interval begin="0" end="299" id="e3_1" meanTravelTime="120.79" meanSpeed="8.12" meanHaltsPerVehicle="20.50" vehicleSum="4.00"/>
   <interval begin="300" end="599" id="e3_1" meanTravelTime="123.78" meanSpeed="7.91" meanHaltsPerVehicle="24.41" vehicleSum="27.00"/>
   <interval begin="600" end="899" id="e3_1" meanTravelTime="124.02" meanSpeed="7.89" meanHaltsPerVehicle="22.36" vehicleSum="28.00"/>
   <interval begin="900" end="1001" id="e3_1" meanTravelTime="123.84" meanSpeed="7.90" meanHaltsPerVehicle="21.27" vehicleSum="11.00"/>
</e3-detector>
