<?xml version="1.0" encoding="UTF-8"?>

<!-- generated on Tue Feb 19 09:10:27 2019 by Eclipse SUMO netconvert Version v1_1_0+0919-80296dbfce
<configuration xmlns:xsi="http://www.w3.org/2001/XMLSchema-instance" xsi:noNamespaceSchemaLocation="http://sumo.dlr.de/xsd/netconvertConfiguration.xsd">

    <input>
        <node-files value=".\netedit\bugs\processing\ticket2327\input_net.nod.xml"/>
        <edge-files value=".\netedit\bugs\processing\ticket2327\input_net.edg.xml"/>
        <connection-files value=".\netedit\bugs\processing\ticket2327\input_net.con.xml"/>
    </input>

    <output>
        <output-file value=".\netedit\bugs\processing\ticket2327\input_net.net.xml"/>
    </output>

    <report>
        <verbose value="true"/>
    </report>

</configuration>
-->

<net version="1.1" junctionCornerDetail="5" limitTurnSpeed="5.50" xmlns:xsi="http://www.w3.org/2001/XMLSchema-instance" xsi:noNamespaceSchemaLocation="http://sumo.dlr.de/xsd/net_file.xsd">

    <location netOffset="3.00,-25.00" convBoundary="0.00,0.00,100.00,60.00" origBoundary="-10000000000.00,-10000000000.00,10000000000.00,10000000000.00" projParameter="!"/>

    <edge id=":gneJ11_0" function="internal">
        <lane id=":gneJ11_0_0" index="0" disallow="pedestrian" speed="13.89" length="14.40" shape="77.20,41.60 62.80,41.60"/>
    </edge>
    <edge id=":gneJ11_1" function="internal">
        <lane id=":gneJ11_1_0" index="0" disallow="pedestrian" speed="8.00" length="5.93" shape="77.20,41.60 73.35,41.05 71.60,40.00"/>
    </edge>
    <edge id=":gneJ11_6" function="internal">
        <lane id=":gneJ11_6_0" index="0" disallow="pedestrian" speed="8.00" length="8.26" shape="71.60,40.00 70.60,39.40 68.95,36.65 68.40,32.80"/>
    </edge>
    <edge id=":gneJ11_2" function="internal">
        <lane id=":gneJ11_2_0" index="0" disallow="pedestrian" speed="6.51" length="9.03" shape="71.60,32.80 71.95,35.25 73.00,37.00 74.75,38.05 77.20,38.40"/>
    </edge>
    <edge id=":gneJ11_3" function="internal">
        <lane id=":gneJ11_3_0" index="0" disallow="pedestrian" speed="8.00" length="14.19" shape="71.60,32.80 71.05,36.65 69.40,39.40 66.65,41.05 62.80,41.60"/>
    </edge>
    <edge id=":gneJ11_4" function="internal">
        <lane id=":gneJ11_4_0" index="0" disallow="pedestrian" speed="6.51" length="4.75" shape="62.80,38.40 65.25,38.05 67.00,37.00 67.12,36.80"/>
    </edge>
    <edge id=":gneJ11_5" function="internal">
        <lane id=":gneJ11_5_0" index="0" disallow="pedestrian" speed="13.89" length="14.40" shape="62.80,38.40 77.20,38.40"/>
    </edge>
    <edge id=":gneJ11_7" function="internal">
        <lane id=":gneJ11_7_0" index="0" disallow="pedestrian" speed="6.51" length="4.28" shape="67.12,36.80 68.05,35.25 68.40,32.80"/>
    </edge>
    <edge id=":gneJ11_c0" function="crossing" crossingEdges="gneE8 -gneE8">
        <lane id=":gneJ11_c0_0" index="0" allow="pedestrian" speed="1.00" length="6.40" width="4.00" shape="75.20,36.80 75.20,43.20"/>
    </edge>
    <edge id=":gneJ11_c1" function="crossing" crossingEdges="-gneE16 gneE16">
        <lane id=":gneJ11_c1_0" index="0" allow="pedestrian" speed="1.00" length="6.40" width="4.00" shape="66.80,34.80 73.20,34.80"/>
    </edge>
    <edge id=":gneJ11_c2" function="crossing" crossingEdges="-gneE15 gneE15">
        <lane id=":gneJ11_c2_0" index="0" allow="pedestrian" speed="1.00" length="6.40" width="4.00" shape="64.80,43.20 64.80,36.80"/>
    </edge>
    <edge id=":gneJ11_w0" function="walkingarea">
        <lane id=":gneJ11_w0_0" index="0" allow="pedestrian" speed="1.00" length="9.03" width="4.00" shape="66.80,43.20 62.80,43.20 62.80,45.20 77.20,45.20 77.20,43.20 73.20,43.20"/>
    </edge>
    <edge id=":gneJ11_w1" function="walkingarea">
        <lane id=":gneJ11_w1_0" index="0" allow="pedestrian" speed="1.00" length="3.30" width="4.00" shape="77.20,36.80 77.20,34.80 75.20,32.80 73.20,32.80 73.31,34.02 73.64,35.02 74.20,35.80 74.98,36.36 75.98,36.69"/>
    </edge>
    <edge id=":gneJ11_w2" function="walkingarea">
        <lane id=":gneJ11_w2_0" index="0" allow="pedestrian" speed="1.00" length="3.30" width="4.00" shape="66.80,32.80 64.80,32.80 62.80,34.80 62.80,36.80 64.02,36.69 65.02,36.36 65.80,35.80 66.36,35.02 66.69,34.02"/>
    </edge>
    <edge id=":gneJ12_0" function="internal">
        <lane id=":gneJ12_0_0" index="0" disallow="pedestrian" speed="7.10" length="10.97" shape="91.60,34.80 91.17,37.77 89.90,39.90 87.77,41.17 84.80,41.60"/>
    </edge>
    <edge id=":gneJ12_1" function="internal">
        <lane id=":gneJ12_1_0" index="0" disallow="pedestrian" speed="5.37" length="5.81" shape="84.80,38.40 86.38,38.17 87.50,37.50 88.18,36.38 88.40,34.80"/>
    </edge>
    <edge id=":gneJ12_c0" function="crossing" crossingEdges="gneE9 -gneE9">
        <lane id=":gneJ12_c0_0" index="0" allow="pedestrian" speed="1.00" length="6.40" width="4.00" shape="86.80,36.80 93.20,36.80"/>
    </edge>
    <edge id=":gneJ12_w0" function="walkingarea">
        <lane id=":gneJ12_w0_0" index="0" allow="pedestrian" speed="1.00" length="8.91" width="4.00" shape="84.80,43.20 84.80,45.20 95.20,34.80 93.20,34.80 92.97,37.37 92.27,39.47 91.10,41.10 89.47,42.27 87.37,42.97"/>
    </edge>
    <edge id=":gneJ12_w1" function="walkingarea">
        <lane id=":gneJ12_w1_0" index="0" allow="pedestrian" speed="1.00" length="1.96" width="4.00" shape="86.80,34.80 84.80,34.80 84.80,34.80 84.80,36.80 85.41,36.74 85.91,36.58 86.30,36.30 86.58,35.91 86.74,35.41"/>
    </edge>
    <edge id=":gneJ13_0" function="internal">
        <lane id=":gneJ13_0_0" index="0" disallow="pedestrian" speed="6.51" length="4.75" shape="88.40,27.20 88.05,24.75 87.00,23.00 86.80,22.88"/>
    </edge>
    <edge id=":gneJ13_1" function="internal">
        <lane id=":gneJ13_1_0" index="0" disallow="pedestrian" speed="13.89" length="14.40" shape="88.40,27.20 88.40,12.80"/>
    </edge>
    <edge id=":gneJ13_6" function="internal">
        <lane id=":gneJ13_6_0" index="0" disallow="pedestrian" speed="6.51" length="4.28" shape="86.80,22.88 85.25,21.95 82.80,21.60"/>
    </edge>
    <edge id=":gneJ13_2" function="internal">
        <lane id=":gneJ13_2_0" index="0" disallow="pedestrian" speed="13.89" length="14.40" shape="91.60,12.80 91.60,27.20"/>
    </edge>
    <edge id=":gneJ13_3" function="internal">
        <lane id=":gneJ13_3_0" index="0" disallow="pedestrian" speed="8.00" length="5.93" shape="91.60,12.80 91.05,16.65 90.00,18.40"/>
    </edge>
    <edge id=":gneJ13_7" function="internal">
        <lane id=":gneJ13_7_0" index="0" disallow="pedestrian" speed="8.00" length="8.26" shape="90.00,18.40 89.40,19.40 86.65,21.05 82.80,21.60"/>
    </edge>
    <edge id=":gneJ13_4" function="internal">
        <lane id=":gneJ13_4_0" index="0" disallow="pedestrian" speed="6.51" length="9.03" shape="82.80,18.40 85.25,18.05 87.00,17.00 88.05,15.25 88.40,12.80"/>
    </edge>
    <edge id=":gneJ13_5" function="internal">
        <lane id=":gneJ13_5_0" index="0" disallow="pedestrian" speed="8.00" length="14.19" shape="82.80,18.40 86.65,18.95 89.40,20.60 91.05,23.35 91.60,27.20"/>
    </edge>
    <edge id=":gneJ13_c0" function="crossing" crossingEdges="-gneE9 gneE9">
        <lane id=":gneJ13_c0_0" index="0" allow="pedestrian" speed="1.00" length="6.40" width="4.00" shape="93.20,25.20 86.80,25.20"/>
    </edge>
    <edge id=":gneJ13_c1" function="crossing" crossingEdges="gneE10 -gneE10">
        <lane id=":gneJ13_c1_0" index="0" allow="pedestrian" speed="1.00" length="6.40" width="4.00" shape="86.80,14.80 93.20,14.80"/>
    </edge>
    <edge id=":gneJ13_c2" function="crossing" crossingEdges="-gneE17 gneE17">
        <lane id=":gneJ13_c2_0" index="0" allow="pedestrian" speed="1.00" length="6.40" width="4.00" shape="84.80,23.20 84.80,16.80"/>
    </edge>
    <edge id=":gneJ13_w0" function="walkingarea">
        <lane id=":gneJ13_w0_0" index="0" allow="pedestrian" speed="1.00" length="3.30" width="4.00" shape="82.80,23.20 82.80,25.20 84.80,27.20 86.80,27.20 86.69,25.98 86.36,24.98 85.80,24.20 85.02,23.64 84.02,23.31"/>
    </edge>
    <edge id=":gneJ13_w1" function="walkingarea">
        <lane id=":gneJ13_w1_0" index="0" allow="pedestrian" speed="1.00" length="9.03" width="4.00" shape="93.20,23.20 93.20,27.20 95.20,27.20 95.20,12.80 93.20,12.80 93.20,16.80"/>
    </edge>
    <edge id=":gneJ13_w2" function="walkingarea">
        <lane id=":gneJ13_w2_0" index="0" allow="pedestrian" speed="1.00" length="3.30" width="4.00" shape="86.80,12.80 84.80,12.80 82.80,14.80 82.80,16.80 84.02,16.69 85.02,16.36 85.80,15.80 86.36,15.02 86.69,14.02"/>
    </edge>
    <edge id=":gneJ14_0" function="internal">
        <lane id=":gneJ14_0_0" index="0" disallow="pedestrian" speed="5.37" length="5.81" shape="88.40,5.20 88.17,3.62 87.50,2.50 86.38,1.82 84.80,1.60"/>
    </edge>
    <edge id=":gneJ14_1" function="internal">
        <lane id=":gneJ14_1_0" index="0" disallow="pedestrian" speed="7.10" length="10.97" shape="84.80,-1.60 87.77,-1.17 89.90,0.10 91.17,2.23 91.60,5.20"/>
    </edge>
    <edge id=":gneJ14_c0" function="crossing" crossingEdges="-gneE10 gneE10">
        <lane id=":gneJ14_c0_0" index="0" allow="pedestrian" speed="1.00" length="6.40" width="4.00" shape="93.20,3.20 86.80,3.20"/>
    </edge>
    <edge id=":gneJ14_w0" function="walkingarea">
        <lane id=":gneJ14_w0_0" index="0" allow="pedestrian" speed="1.00" length="1.96" width="4.00" shape="84.80,3.20 84.80,5.20 84.80,5.20 86.80,5.20 86.74,4.59 86.58,4.09 86.30,3.70 85.91,3.42 85.41,3.26"/>
    </edge>
    <edge id=":gneJ14_w1" function="walkingarea">
        <lane id=":gneJ14_w1_0" index="0" allow="pedestrian" speed="1.00" length="8.91" width="4.00" shape="93.20,5.20 95.20,5.20 84.80,-5.20 84.80,-3.20 87.37,-2.97 89.47,-2.27 91.10,-1.10 92.27,0.53 92.97,2.63"/>
    </edge>
    <edge id=":gneJ15_0" function="internal">
        <lane id=":gneJ15_0_0" index="0" disallow="pedestrian" speed="6.51" length="9.03" shape="68.40,7.20 68.05,4.75 67.00,3.00 65.25,1.95 62.80,1.60"/>
    </edge>
    <edge id=":gneJ15_1" function="internal">
        <lane id=":gneJ15_1_0" index="0" disallow="pedestrian" speed="8.00" length="14.19" shape="68.40,7.20 68.95,3.35 70.60,0.60 73.35,-1.05 77.20,-1.60"/>
    </edge>
    <edge id=":gneJ15_2" function="internal">
        <lane id=":gneJ15_2_0" index="0" disallow="pedestrian" speed="6.51" length="4.75" shape="77.20,1.60 74.75,1.95 73.00,3.00 72.88,3.20"/>
    </edge>
    <edge id=":gneJ15_3" function="internal">
        <lane id=":gneJ15_3_0" index="0" disallow="pedestrian" speed="13.89" length="14.40" shape="77.20,1.60 62.80,1.60"/>
    </edge>
    <edge id=":gneJ15_6" function="internal">
        <lane id=":gneJ15_6_0" index="0" disallow="pedestrian" speed="6.51" length="4.28" shape="72.88,3.20 71.95,4.75 71.60,7.20"/>
    </edge>
    <edge id=":gneJ15_4" function="internal">
        <lane id=":gneJ15_4_0" index="0" disallow="pedestrian" speed="13.89" length="14.40" shape="62.80,-1.60 77.20,-1.60"/>
    </edge>
    <edge id=":gneJ15_5" function="internal">
        <lane id=":gneJ15_5_0" index="0" disallow="pedestrian" speed="8.00" length="5.93" shape="62.80,-1.60 66.65,-1.05 68.40,-0.00"/>
    </edge>
    <edge id=":gneJ15_7" function="internal">
        <lane id=":gneJ15_7_0" index="0" disallow="pedestrian" speed="8.00" length="8.26" shape="68.40,-0.00 69.40,0.60 71.05,3.35 71.60,7.20"/>
    </edge>
    <edge id=":gneJ15_c0" function="crossing" crossingEdges="-gneE18 gneE18">
        <lane id=":gneJ15_c0_0" index="0" allow="pedestrian" speed="1.00" length="6.40" width="4.00" shape="73.20,5.20 66.80,5.20"/>
    </edge>
    <edge id=":gneJ15_c1" function="crossing" crossingEdges="-gneE11 gneE11">
        <lane id=":gneJ15_c1_0" index="0" allow="pedestrian" speed="1.00" length="6.40" width="4.00" shape="75.20,-3.20 75.20,3.20"/>
    </edge>
    <edge id=":gneJ15_c2" function="crossing" crossingEdges="gneE12 -gneE12">
        <lane id=":gneJ15_c2_0" index="0" allow="pedestrian" speed="1.00" length="6.40" width="4.00" shape="64.80,3.20 64.80,-3.20"/>
    </edge>
    <edge id=":gneJ15_w0" function="walkingarea">
        <lane id=":gneJ15_w0_0" index="0" allow="pedestrian" speed="1.00" length="3.30" width="4.00" shape="62.80,3.20 62.80,5.20 64.80,7.20 66.80,7.20 66.69,5.98 66.36,4.98 65.80,4.20 65.02,3.64 64.02,3.31"/>
    </edge>
    <edge id=":gneJ15_w1" function="walkingarea">
        <lane id=":gneJ15_w1_0" index="0" allow="pedestrian" speed="1.00" length="3.30" width="4.00" shape="73.20,7.20 75.20,7.20 77.20,5.20 77.20,3.20 75.98,3.31 74.98,3.64 74.20,4.20 73.64,4.98 73.31,5.98"/>
    </edge>
    <edge id=":gneJ15_w2" function="walkingarea">
        <lane id=":gneJ15_w2_0" index="0" allow="pedestrian" speed="1.00" length="9.03" width="4.00" shape="73.20,-3.20 77.20,-3.20 77.20,-5.20 62.80,-5.20 62.80,-3.20 66.80,-3.20"/>
    </edge>
    <edge id=":gneJ16_0" function="internal">
        <lane id=":gneJ16_0_0" index="0" disallow="pedestrian" speed="7.10" length="10.97" shape="48.40,5.20 48.83,2.23 50.10,0.10 52.22,-1.17 55.20,-1.60"/>
    </edge>
    <edge id=":gneJ16_1" function="internal">
        <lane id=":gneJ16_1_0" index="0" disallow="pedestrian" speed="5.37" length="5.81" shape="55.20,1.60 53.63,1.83 52.50,2.50 51.83,3.63 51.60,5.20"/>
    </edge>
    <edge id=":gneJ16_c0" function="crossing" crossingEdges="gneE13 -gneE13">
        <lane id=":gneJ16_c0_0" index="0" allow="pedestrian" speed="1.00" length="6.40" width="4.00" shape="53.20,3.20 46.80,3.20"/>
    </edge>
    <edge id=":gneJ16_w0" function="walkingarea">
        <lane id=":gneJ16_w0_0" index="0" allow="pedestrian" speed="1.00" length="8.91" width="4.00" shape="55.20,-3.20 55.20,-5.20 44.80,5.20 46.80,5.20 47.03,2.63 47.73,0.53 48.90,-1.10 50.53,-2.27 52.63,-2.97"/>
    </edge>
    <edge id=":gneJ16_w1" function="walkingarea">
        <lane id=":gneJ16_w1_0" index="0" allow="pedestrian" speed="1.00" length="1.96" width="4.00" shape="53.20,5.20 55.20,5.20 55.20,5.20 55.20,3.20 54.59,3.26 54.09,3.42 53.70,3.70 53.42,4.09 53.26,4.59"/>
    </edge>
    <edge id=":gneJ17_0" function="internal">
        <lane id=":gneJ17_0_0" index="0" disallow="pedestrian" speed="13.89" length="14.40" shape="48.40,27.20 48.40,12.80"/>
    </edge>
    <edge id=":gneJ17_1" function="internal">
        <lane id=":gneJ17_1_0" index="0" disallow="pedestrian" speed="8.00" length="5.93" shape="48.40,27.20 48.95,23.35 50.00,21.60"/>
    </edge>
    <edge id=":gneJ17_6" function="internal">
        <lane id=":gneJ17_6_0" index="0" disallow="pedestrian" speed="8.00" length="8.26" shape="50.00,21.60 50.60,20.60 53.35,18.95 57.20,18.40"/>
    </edge>
    <edge id=":gneJ17_2" function="internal">
        <lane id=":gneJ17_2_0" index="0" disallow="pedestrian" speed="6.51" length="9.03" shape="57.20,21.60 54.75,21.95 53.00,23.00 51.95,24.75 51.60,27.20"/>
    </edge>
    <edge id=":gneJ17_3" function="internal">
        <lane id=":gneJ17_3_0" index="0" disallow="pedestrian" speed="8.00" length="14.19" shape="57.20,21.60 53.35,21.05 50.60,19.40 48.95,16.65 48.40,12.80"/>
    </edge>
    <edge id=":gneJ17_4" function="internal">
        <lane id=":gneJ17_4_0" index="0" disallow="pedestrian" speed="6.51" length="4.75" shape="51.60,12.80 51.95,15.25 53.00,17.00 53.20,17.12"/>
    </edge>
    <edge id=":gneJ17_5" function="internal">
        <lane id=":gneJ17_5_0" index="0" disallow="pedestrian" speed="13.89" length="14.40" shape="51.60,12.80 51.60,27.20"/>
    </edge>
    <edge id=":gneJ17_7" function="internal">
        <lane id=":gneJ17_7_0" index="0" disallow="pedestrian" speed="6.51" length="4.28" shape="53.20,17.12 54.75,18.05 57.20,18.40"/>
    </edge>
    <edge id=":gneJ17_c0" function="crossing" crossingEdges="gneE14 -gneE14">
        <lane id=":gneJ17_c0_0" index="0" allow="pedestrian" speed="1.00" length="6.40" width="4.00" shape="53.20,25.20 46.80,25.20"/>
    </edge>
    <edge id=":gneJ17_c1" function="crossing" crossingEdges="-gneE19 gneE19">
        <lane id=":gneJ17_c1_0" index="0" allow="pedestrian" speed="1.00" length="6.40" width="4.00" shape="55.20,16.80 55.20,23.20"/>
    </edge>
    <edge id=":gneJ17_c2" function="crossing" crossingEdges="-gneE13 gneE13">
        <lane id=":gneJ17_c2_0" index="0" allow="pedestrian" speed="1.00" length="6.40" width="4.00" shape="46.80,14.80 53.20,14.80"/>
    </edge>
    <edge id=":gneJ17_w0" function="walkingarea">
        <lane id=":gneJ17_w0_0" index="0" allow="pedestrian" speed="1.00" length="9.03" width="4.00" shape="46.80,16.80 46.80,12.80 44.80,12.80 44.80,27.20 46.80,27.20 46.80,23.20"/>
    </edge>
    <edge id=":gneJ17_w1" function="walkingarea">
        <lane id=":gneJ17_w1_0" index="0" allow="pedestrian" speed="1.00" length="3.30" width="4.00" shape="53.20,27.20 55.20,27.20 57.20,25.20 57.20,23.20 55.98,23.31 54.98,23.64 54.20,24.20 53.64,24.98 53.31,25.98"/>
    </edge>
    <edge id=":gneJ17_w2" function="walkingarea">
        <lane id=":gneJ17_w2_0" index="0" allow="pedestrian" speed="1.00" length="3.30" width="4.00" shape="57.20,16.80 57.20,14.80 55.20,12.80 53.20,12.80 53.31,14.02 53.64,15.02 54.20,15.80 54.98,16.36 55.98,16.69"/>
    </edge>
    <edge id=":gneJ18_0" function="internal">
        <lane id=":gneJ18_0_0" index="0" disallow="pedestrian" speed="7.10" length="10.97" shape="55.20,41.60 52.23,41.17 50.10,39.90 48.83,37.78 48.40,34.80"/>
    </edge>
    <edge id=":gneJ18_1" function="internal">
        <lane id=":gneJ18_1_0" index="0" disallow="pedestrian" speed="5.37" length="5.81" shape="51.60,34.80 51.83,36.38 52.50,37.50 53.63,38.18 55.20,38.40"/>
    </edge>
    <edge id=":gneJ18_c0" function="crossing" crossingEdges="gneE15 -gneE15">
        <lane id=":gneJ18_c0_0" index="0" allow="pedestrian" speed="1.00" length="6.40" width="4.00" shape="53.20,36.80 53.20,43.20"/>
    </edge>
    <edge id=":gneJ18_w0" function="walkingarea">
        <lane id=":gneJ18_w0_0" index="0" allow="pedestrian" speed="1.00" length="8.91" width="4.00" shape="46.80,34.80 44.80,34.80 55.20,45.20 55.20,43.20 52.63,42.97 50.53,42.27 48.90,41.10 47.73,39.47 47.03,37.37"/>
    </edge>
    <edge id=":gneJ18_w1" function="walkingarea">
        <lane id=":gneJ18_w1_0" index="0" allow="pedestrian" speed="1.00" length="1.96" width="4.00" shape="55.20,36.80 55.20,34.80 55.20,34.80 53.20,34.80 53.26,35.41 53.42,35.91 53.70,36.30 54.09,36.58 54.59,36.74"/>
    </edge>
    <edge id=":gneJ19_0" function="internal">
        <lane id=":gneJ19_0_0" index="0" disallow="pedestrian" speed="6.51" length="4.75" shape="68.40,27.20 68.05,24.75 67.00,23.00 66.80,22.88"/>
    </edge>
    <edge id=":gneJ19_1" function="internal">
        <lane id=":gneJ19_1_0" index="0" disallow="pedestrian" speed="13.89" length="14.40" shape="68.40,27.20 68.40,12.80"/>
    </edge>
    <edge id=":gneJ19_2" function="internal">
        <lane id=":gneJ19_2_0" index="0" disallow="pedestrian" speed="8.00" length="5.93" shape="68.40,27.20 68.95,23.35 70.00,21.60"/>
    </edge>
    <edge id=":gneJ19_12" function="internal">
        <lane id=":gneJ19_12_0" index="0" disallow="pedestrian" speed="6.51" length="4.28" shape="66.80,22.88 65.25,21.95 62.80,21.60"/>
    </edge>
    <edge id=":gneJ19_13" function="internal">
        <lane id=":gneJ19_13_0" index="0" disallow="pedestrian" speed="8.00" length="8.26" shape="70.00,21.60 70.60,20.60 73.35,18.95 77.20,18.40"/>
    </edge>
    <edge id=":gneJ19_3" function="internal">
        <lane id=":gneJ19_3_0" index="0" disallow="pedestrian" speed="6.51" length="9.03" shape="77.20,21.60 74.75,21.95 73.00,23.00 71.95,24.75 71.60,27.20"/>
    </edge>
    <edge id=":gneJ19_4" function="internal">
        <lane id=":gneJ19_4_0" index="0" disallow="pedestrian" speed="13.89" length="14.40" shape="77.20,21.60 62.80,21.60"/>
    </edge>
    <edge id=":gneJ19_5" function="internal">
        <lane id=":gneJ19_5_0" index="0" disallow="pedestrian" speed="8.00" length="14.19" shape="77.20,21.60 73.35,21.05 70.60,19.40 68.95,16.65 68.40,12.80"/>
    </edge>
    <edge id=":gneJ19_6" function="internal">
        <lane id=":gneJ19_6_0" index="0" disallow="pedestrian" speed="6.51" length="4.75" shape="71.60,12.80 71.95,15.25 73.00,17.00 73.20,17.12"/>
    </edge>
    <edge id=":gneJ19_7" function="internal">
        <lane id=":gneJ19_7_0" index="0" disallow="pedestrian" speed="13.89" length="14.40" shape="71.60,12.80 71.60,27.20"/>
    </edge>
    <edge id=":gneJ19_8" function="internal">
        <lane id=":gneJ19_8_0" index="0" disallow="pedestrian" speed="8.00" length="5.93" shape="71.60,12.80 71.05,16.65 70.00,18.40"/>
    </edge>
    <edge id=":gneJ19_14" function="internal">
        <lane id=":gneJ19_14_0" index="0" disallow="pedestrian" speed="6.51" length="4.28" shape="73.20,17.12 74.75,18.05 77.20,18.40"/>
    </edge>
    <edge id=":gneJ19_15" function="internal">
        <lane id=":gneJ19_15_0" index="0" disallow="pedestrian" speed="8.00" length="8.26" shape="70.00,18.40 69.40,19.40 66.65,21.05 62.80,21.60"/>
    </edge>
    <edge id=":gneJ19_9" function="internal">
        <lane id=":gneJ19_9_0" index="0" disallow="pedestrian" speed="6.51" length="9.03" shape="62.80,18.40 65.25,18.05 67.00,17.00 68.05,15.25 68.40,12.80"/>
    </edge>
    <edge id=":gneJ19_10" function="internal">
        <lane id=":gneJ19_10_0" index="0" disallow="pedestrian" speed="13.89" length="14.40" shape="62.80,18.40 77.20,18.40"/>
    </edge>
    <edge id=":gneJ19_11" function="internal">
        <lane id=":gneJ19_11_0" index="0" disallow="pedestrian" speed="8.00" length="14.19" shape="62.80,18.40 66.65,18.95 69.40,20.60 71.05,23.35 71.60,27.20"/>
    </edge>
    <edge id=":gneJ19_c0" function="crossing" crossingEdges="gneE16 -gneE16">
        <lane id=":gneJ19_c0_0" index="0" allow="pedestrian" speed="1.00" length="6.40" width="4.00" shape="73.20,25.20 66.80,25.20"/>
    </edge>
    <edge id=":gneJ19_c1" function="crossing" crossingEdges="gneE17 -gneE17">
        <lane id=":gneJ19_c1_0" index="0" allow="pedestrian" speed="1.00" length="6.40" width="4.00" shape="75.20,16.80 75.20,23.20"/>
    </edge>
    <edge id=":gneJ19_c2" function="crossing" crossingEdges="gneE18 -gneE18">
        <lane id=":gneJ19_c2_0" index="0" allow="pedestrian" speed="1.00" length="6.40" width="4.00" shape="66.80,14.80 73.20,14.80"/>
    </edge>
    <edge id=":gneJ19_c3" function="crossing" crossingEdges="gneE19 -gneE19">
        <lane id=":gneJ19_c3_0" index="0" allow="pedestrian" speed="1.00" length="6.40" width="4.00" shape="64.80,23.20 64.80,16.80"/>
    </edge>
    <edge id=":gneJ19_w0" function="walkingarea">
        <lane id=":gneJ19_w0_0" index="0" allow="pedestrian" speed="1.00" length="3.30" width="4.00" shape="62.80,23.20 62.80,25.20 64.80,27.20 66.80,27.20 66.69,25.98 66.36,24.98 65.80,24.20 65.02,23.64 64.02,23.31"/>
    </edge>
    <edge id=":gneJ19_w1" function="walkingarea">
        <lane id=":gneJ19_w1_0" index="0" allow="pedestrian" speed="1.00" length="3.30" width="4.00" shape="73.20,27.20 75.20,27.20 77.20,25.20 77.20,23.20 75.98,23.31 74.98,23.64 74.20,24.20 73.64,24.98 73.31,25.98"/>
    </edge>
    <edge id=":gneJ19_w2" function="walkingarea">
        <lane id=":gneJ19_w2_0" index="0" allow="pedestrian" speed="1.00" length="3.30" width="4.00" shape="77.20,16.80 77.20,14.80 75.20,12.80 73.20,12.80 73.31,14.02 73.64,15.02 74.20,15.80 74.98,16.36 75.98,16.69"/>
    </edge>
    <edge id=":gneJ19_w3" function="walkingarea">
        <lane id=":gneJ19_w3_0" index="0" allow="pedestrian" speed="1.00" length="3.30" width="4.00" shape="66.80,12.80 64.80,12.80 62.80,14.80 62.80,16.80 64.02,16.69 65.02,16.36 65.80,15.80 66.36,15.02 66.69,14.02"/>
    </edge>
    <edge id=":gneJ2_0" function="internal">
        <lane id=":gneJ2_0_0" index="0" disallow="pedestrian" speed="3.65" length="4.67" shape="40.00,61.60 38.80,60.80 38.40,60.00 38.80,59.20 40.00,58.40"/>
    </edge>
    <edge id=":gneJ2_w0" function="walkingarea">
        <lane id=":gneJ2_w0_0" index="0" allow="pedestrian" speed="1.00" length="8.40" width="2.00" shape="40.00,56.80 40.00,54.80 40.00,65.20 40.00,63.20"/>
    </edge>
    <edge id=":gneJ3_0" function="internal">
        <lane id=":gneJ3_0_0" index="0" disallow="pedestrian" speed="3.65" length="4.67" shape="60.00,58.40 61.20,59.20 61.60,60.00 61.20,60.80 60.00,61.60"/>
    </edge>
    <edge id=":gneJ3_w0" function="walkingarea">
        <lane id=":gneJ3_w0_0" index="0" allow="pedestrian" speed="1.00" length="8.40" width="2.00" shape="60.00,63.20 60.00,65.20 60.00,54.80 60.00,56.80"/>
    </edge>
    <edge id=":gneJ4_0" function="internal">
        <lane id=":gneJ4_0_0" index="0" disallow="pedestrian" speed="3.65" length="4.67" shape="80.00,61.60 78.80,60.80 78.40,60.00 78.80,59.20 80.00,58.40"/>
    </edge>
    <edge id=":gneJ4_w0" function="walkingarea">
        <lane id=":gneJ4_w0_0" index="0" allow="pedestrian" speed="1.00" length="8.40" width="2.00" shape="80.00,56.80 80.00,54.80 80.00,65.20 80.00,63.20"/>
    </edge>
    <edge id=":gneJ5_0" function="internal">
        <lane id=":gneJ5_0_0" index="0" disallow="pedestrian" speed="3.65" length="4.67" shape="100.00,58.40 101.20,59.20 101.60,60.00 101.20,60.80 100.00,61.60"/>
    </edge>
    <edge id=":gneJ5_w0" function="walkingarea">
        <lane id=":gneJ5_w0_0" index="0" allow="pedestrian" speed="1.00" length="8.40" width="2.00" shape="100.00,63.20 100.00,65.20 100.00,54.80 100.00,56.80"/>
    </edge>
    <edge id=":gneJ6_0" function="internal">
        <lane id=":gneJ6_0_0" index="0" disallow="pedestrian" speed="7.10" length="10.97" shape="5.20,41.60 2.23,41.17 0.10,39.90 -1.17,37.78 -1.60,34.80"/>
    </edge>
    <edge id=":gneJ6_1" function="internal">
        <lane id=":gneJ6_1_0" index="0" disallow="pedestrian" speed="5.37" length="5.81" shape="1.60,34.80 1.83,36.37 2.50,37.50 3.63,38.17 5.20,38.40"/>
    </edge>
    <edge id=":gneJ6_c0" function="crossing" crossingEdges="gneE4 -gneE4">
        <lane id=":gneJ6_c0_0" index="0" allow="pedestrian" speed="1.00" length="6.40" width="4.00" shape="3.20,36.80 3.20,43.20"/>
    </edge>
    <edge id=":gneJ6_w0" function="walkingarea">
        <lane id=":gneJ6_w0_0" index="0" allow="pedestrian" speed="1.00" length="8.91" width="4.00" shape="-3.20,34.80 -5.20,34.80 5.20,45.20 5.20,43.20 2.63,42.97 0.53,42.27 -1.10,41.10 -2.27,39.47 -2.97,37.37"/>
    </edge>
    <edge id=":gneJ6_w1" function="walkingarea">
        <lane id=":gneJ6_w1_0" index="0" allow="pedestrian" speed="1.00" length="1.96" width="4.00" shape="5.20,36.80 5.20,34.80 5.20,34.80 3.20,34.80 3.26,35.41 3.42,35.91 3.70,36.30 4.09,36.58 4.59,36.74"/>
    </edge>
    <edge id=":gneJ7_0" function="internal">
        <lane id=":gneJ7_0_0" index="0" disallow="pedestrian" speed="7.10" length="10.97" shape="21.60,34.80 21.18,37.77 19.90,39.90 17.77,41.17 14.80,41.60"/>
    </edge>
    <edge id=":gneJ7_1" function="internal">
        <lane id=":gneJ7_1_0" index="0" disallow="pedestrian" speed="5.37" length="5.81" shape="14.80,38.40 16.37,38.17 17.50,37.50 18.17,36.38 18.40,34.80"/>
    </edge>
    <edge id=":gneJ7_c0" function="crossing" crossingEdges="gneE5 -gneE5">
        <lane id=":gneJ7_c0_0" index="0" allow="pedestrian" speed="1.00" length="6.40" width="4.00" shape="16.80,36.80 23.20,36.80"/>
    </edge>
    <edge id=":gneJ7_w0" function="walkingarea">
        <lane id=":gneJ7_w0_0" index="0" allow="pedestrian" speed="1.00" length="8.91" width="4.00" shape="14.80,43.20 14.80,45.20 25.20,34.80 23.20,34.80 22.97,37.37 22.27,39.47 21.10,41.10 19.47,42.27 17.37,42.97"/>
    </edge>
    <edge id=":gneJ7_w1" function="walkingarea">
        <lane id=":gneJ7_w1_0" index="0" allow="pedestrian" speed="1.00" length="1.96" width="4.00" shape="16.80,34.80 14.80,34.80 14.80,34.80 14.80,36.80 15.41,36.74 15.91,36.58 16.30,36.30 16.58,35.91 16.74,35.41"/>
    </edge>
    <edge id=":gneJ8_0" function="internal">
        <lane id=":gneJ8_0_0" index="0" disallow="pedestrian" speed="5.37" length="5.81" shape="18.40,25.20 18.18,23.63 17.50,22.50 16.38,21.83 14.80,21.60"/>
    </edge>
    <edge id=":gneJ8_1" function="internal">
        <lane id=":gneJ8_1_0" index="0" disallow="pedestrian" speed="7.10" length="10.97" shape="14.80,18.40 17.78,18.82 19.90,20.10 21.18,22.23 21.60,25.20"/>
    </edge>
    <edge id=":gneJ8_c0" function="crossing" crossingEdges="-gneE5 gneE5">
        <lane id=":gneJ8_c0_0" index="0" allow="pedestrian" speed="1.00" length="6.40" width="4.00" shape="23.20,23.20 16.80,23.20"/>
    </edge>
    <edge id=":gneJ8_w0" function="walkingarea">
        <lane id=":gneJ8_w0_0" index="0" allow="pedestrian" speed="1.00" length="1.96" width="4.00" shape="14.80,23.20 14.80,25.20 14.80,25.20 16.80,25.20 16.74,24.59 16.58,24.09 16.30,23.70 15.91,23.42 15.41,23.26"/>
    </edge>
    <edge id=":gneJ8_w1" function="walkingarea">
        <lane id=":gneJ8_w1_0" index="0" allow="pedestrian" speed="1.00" length="8.91" width="4.00" shape="23.20,25.20 25.20,25.20 14.80,14.80 14.80,16.80 17.37,17.03 19.47,17.73 21.10,18.90 22.27,20.53 22.97,22.63"/>
    </edge>
    <edge id=":gneJ9_0" function="internal">
        <lane id=":gneJ9_0_0" index="0" disallow="pedestrian" speed="7.10" length="10.97" shape="-1.60,25.20 -1.17,22.22 0.10,20.10 2.23,18.82 5.20,18.40"/>
    </edge>
    <edge id=":gneJ9_1" function="internal">
        <lane id=":gneJ9_1_0" index="0" disallow="pedestrian" speed="5.37" length="5.81" shape="5.20,21.60 3.62,21.82 2.50,22.50 1.82,23.63 1.60,25.20"/>
    </edge>
    <edge id=":gneJ9_c0" function="crossing" crossingEdges="gneE7 -gneE7">
        <lane id=":gneJ9_c0_0" index="0" allow="pedestrian" speed="1.00" length="6.40" width="4.00" shape="3.20,23.20 -3.20,23.20"/>
    </edge>
    <edge id=":gneJ9_w0" function="walkingarea">
        <lane id=":gneJ9_w0_0" index="0" allow="pedestrian" speed="1.00" length="8.91" width="4.00" shape="5.20,16.80 5.20,14.80 -5.20,25.20 -3.20,25.20 -2.97,22.63 -2.27,20.53 -1.10,18.90 0.53,17.73 2.63,17.03"/>
    </edge>
    <edge id=":gneJ9_w1" function="walkingarea">