<?xml version="1.0" encoding="UTF-8"?>

<!-- generated on 2024-07-02 14:58:55 by Eclipse SUMO netedit Version v1_20_0+0930-542f1297b48
<neteditConfiguration xmlns:xsi="http://www.w3.org/2001/XMLSchema-instance" xsi:noNamespaceSchemaLocation="http://sumo.dlr.de/xsd/neteditConfiguration.xsd">

    <input>
        <sumo-net-file value="D:\Netedit_dev\tests\netedit\network\connections\with_tls\net.net.xml"/>
    </input>

    <output>
        <output-file value="D:\Netedit_dev\tests\netedit\network\connections\with_tls\net.net.xml"/>
    </output>

    <processing>
        <geometry.min-radius.fix.railways value="false"/>
        <geometry.max-grade.fix value="false"/>
        <offset.disable-normalization value="true"/>
        <lefthand value="0"/>
    </processing>

    <junctions>
        <no-turnarounds value="true"/>
        <junctions.corner-detail value="5"/>
        <junctions.limit-turn-speed value="5.50"/>
        <rectangular-lane-cut value="0"/>
    </junctions>

    <pedestrian>
        <walkingareas value="0"/>
    </pedestrian>

</neteditConfiguration>
-->

<net version="1.20" junctionCornerDetail="5" limitTurnSpeed="5.50" xmlns:xsi="http://www.w3.org/2001/XMLSchema-instance" xsi:noNamespaceSchemaLocation="http://sumo.dlr.de/xsd/net_file.xsd">

    <location netOffset="0.00,0.00" convBoundary="-60.00,-30.00,60.00,30.00" origBoundary="-10000000000.000000,-10000000000.000000,10000000000.000000,10000000000.000000" projParameter="+proj=merc +a=6378137 +b=6378137 +lat_ts=0.0 +lon_0=0.0 +x_0=0.0 +y_0=0 +k=1.0 +units=m +nadgrids=@null +wktext +no_defs"/>

    <edge id=":Junction5_0" function="internal">
        <lane id=":Junction5_0_0" index="0" disallow="pedestrian" speed="6.43" length="8.87" width="3.00" shape="-1.50,7.00 -1.84,4.59 -2.88,2.87 -4.59,1.84 -7.00,1.50"/>
    </edge>
    <edge id=":Junction5_1" function="internal">
        <lane id=":Junction5_1_0" index="0" disallow="pedestrian" speed="13.89" length="14.00" width="3.00" shape="-1.50,7.00 -1.50,-7.00"/>
    </edge>
    <edge id=":Junction5_2" function="internal">
        <lane id=":Junction5_2_0" index="0" disallow="pedestrian" speed="6.43" length="8.87" width="3.00" shape="7.00,1.50 4.59,1.84 2.88,2.87 1.84,4.59 1.50,7.00"/>
    </edge>
    <edge id=":Junction5_3" function="internal">
        <lane id=":Junction5_3_0" index="0" disallow="pedestrian" speed="13.89" length="14.00" width="3.00" shape="7.00,1.50 -7.00,1.50"/>
    </edge>
    <edge id=":Junction5_4" function="internal">
        <lane id=":Junction5_4_0" index="0" disallow="pedestrian" speed="6.43" length="8.87" width="3.00" shape="1.50,-7.00 1.84,-4.59 2.88,-2.87 4.59,-1.84 7.00,-1.50"/>
    </edge>
    <edge id=":Junction5_5" function="internal">
        <lane id=":Junction5_5_0" index="0" disallow="pedestrian" speed="13.89" length="14.00" width="3.00" shape="1.50,-7.00 1.50,7.00"/>
    </edge>
    <edge id=":Junction5_6" function="internal">
        <lane id=":Junction5_6_0" index="0" disallow="pedestrian" speed="6.43" length="8.87" width="3.00" shape="-7.00,-1.50 -4.59,-1.84 -2.88,-2.87 -1.84,-4.59 -1.50,-7.00"/>
    </edge>
    <edge id=":Junction5_7" function="internal">
        <lane id=":Junction5_7_0" index="0" disallow="pedestrian" speed="13.89" length="14.00" width="3.00" shape="-7.00,-1.50 7.00,-1.50"/>
    </edge>
    <edge id=":JunctionExtern0_0" function="internal">
        <lane id=":JunctionExtern0_0_0" index="0" disallow="pedestrian" speed="3.53" length="4.38" width="3.00" shape="-60.00,1.50 -61.12,0.75 -61.50,0.00 -61.12,-0.75 -60.00,-1.50"/>
    </edge>
    <edge id=":JunctionExtern1_0" function="internal">
        <lane id=":JunctionExtern1_0_0" index="0" disallow="pedestrian" speed="3.53" length="4.38" width="3.00" shape="60.00,-1.50 61.12,-0.75 61.50,0.00 61.12,0.75 60.00,1.50"/>
    </edge>

    <edge id="-E0" from="J0" to="Junction5" priority="-1">
        <lane id="-E0_0" index="0" disallow="pedestrian" speed="13.89" length="18.00" width="3.00" shape="-1.50,25.00 -1.50,7.00"/>
    </edge>
    <edge id="-E1" from="J1" to="Junction5" priority="-1">
        <lane id="-E1_0" index="0" disallow="pedestrian" speed="13.89" length="23.00" width="3.00" shape="-30.00,-1.50 -7.00,-1.50"/>
    </edge>
    <edge id="-E2" from="J2" to="Junction5" priority="-1">
        <lane id="-E2_0" index="0" disallow="pedestrian" speed="13.89" length="23.00" width="3.00" shape="30.00,1.50 7.00,1.50"/>
    </edge>
    <edge id="-E3" from="J3" to="Junction5" priority="-1">
        <lane id="-E3_0" index="0" disallow="pedestrian" speed="13.89" length="18.00" width="3.00" shape="1.50,-25.00 1.50,-7.00"/>
    </edge>
    <edge id="E0" from="Junction5" to="J0" priority="-1">
        <lane id="E0_0" index="0" disallow="pedestrian" speed="13.89" length="18.00" width="3.00" shape="1.50,7.00 1.50,25.00"/>
    </edge>
    <edge id="E1" from="Junction5" to="J1" priority="-1">
        <lane id="E1_0" index="0" disallow="pedestrian" speed="13.89" length="23.00" width="3.00" shape="-7.00,1.50 -30.00,1.50"/>
    </edge>
    <edge id="E2" from="Junction5" to="J2" priority="-1">
        <lane id="E2_0" index="0" disallow="pedestrian" speed="13.89" length="23.00" width="3.00" shape="7.00,-1.50 30.00,-1.50"/>
    </edge>
    <edge id="E3" from="Junction5" to="J3" priority="-1">
        <lane id="E3_0" index="0" disallow="pedestrian" speed="13.89" length="18.00" width="3.00" shape="-1.50,-7.00 -1.50,-25.00"/>
    </edge>
    <edge id="EdgeExternBot" from="JunctionExtern0" to="JunctionExtern1" priority="-1" length="175.00" shape="-60.00,0.00 -45.00,0.00 -45.00,-25.00 -40.00,-30.00 40.00,-30.00 45.00,-25.00 45.00,0.00 60.00,0.00">
        <lane id="EdgeExternBot_0" index="0" disallow="pedestrian" speed="13.89" length="175.00" width="3.00" shape="-60.00,-1.50 -46.50,-1.50 -46.50,-25.62 -40.62,-31.50 40.62,-31.50 46.50,-25.62 46.50,-1.50 60.00,-1.50"/>
    </edge>
    <edge id="EdgeExternTop" from="JunctionExtern1" to="JunctionExtern0" priority="-1" length="175.00" shape="60.00,0.00 45.00,0.00 45.00,25.00 40.00,30.00 -40.00,30.00 -45.00,25.00 -45.00,0.00 -60.00,0.00">
        <lane id="EdgeExternTop_0" index="0" disallow="pedestrian" speed="13.89" length="175.00" width="3.00" shape="60.00,1.50 46.50,1.50 46.50,25.62 40.62,31.50 -40.62,31.50 -46.50,25.62 -46.50,1.50 -60.00,1.50"/>
    </edge>

    <tlLogic id="Junction5" type="static" programID="0" offset="0">
        <phase duration="42" state="GGrrGGrr"/>
        <phase duration="3"  state="yyrryyrr"/>
        <phase duration="42" state="rrGGrrGG"/>
        <phase duration="3"  state="rryyrryy"/>
    </tlLogic>

    <junction id="J0" type="dead_end" x="0.00" y="25.00" incLanes="E0_0" intLanes="" shape="0.00,25.00 3.00,25.00 0.00,25.00"/>
    <junction id="J1" type="dead_end" x="-30.00" y="0.00" incLanes="E1_0" intLanes="" shape="-30.00,0.00 -30.00,3.00 -30.00,0.00"/>
    <junction id="J2" type="dead_end" x="30.00" y="0.00" incLanes="E2_0" intLanes="" shape="30.00,0.00 30.00,-3.00 30.00,0.00"/>
    <junction id="J3" type="dead_end" x="0.00" y="-25.00" incLanes="E3_0" intLanes="" shape="0.00,-25.00 -3.00,-25.00 0.00,-25.00"/>
    <junction id="Junction5" type="traffic_light" x="0.00" y="0.00" incLanes="-E0_0 -E2_0 -E3_0 -E1_0" intLanes=":Junction5_0_0 :Junction5_1_0 :Junction5_2_0 :Junction5_3_0 :Junction5_4_0 :Junction5_5_0 :Junction5_6_0 :Junction5_7_0" shape="-3.00,7.00 3.00,7.00 3.44,4.78 4.00,4.00 4.78,3.44 5.78,3.11 7.00,3.00 7.00,-3.00 4.78,-3.44 4.00,-4.00 3.44,-4.78 3.11,-5.78 3.00,-7.00 -3.00,-7.00 -3.44,-4.78 -4.00,-4.00 -4.78,-3.44 -5.78,-3.11 -7.00,-3.00 -7.00,3.00 -4.78,3.44 -4.00,4.00 -3.44,4.78 -3.11,5.78">
        <request index="0" response="00000000" foes="00001000" cont="0"/>
        <request index="1" response="00000000" foes="11001000" cont="0"/>
        <request index="2" response="00100000" foes="00100000" cont="0"/>
        <request index="3" response="00100011" foes="00100011" cont="0"/>
        <request index="4" response="00000000" foes="10000000" cont="0"/>
        <request index="5" response="00000000" foes="10001100" cont="0"/>
        <request index="6" response="00000010" foes="00000010" cont="0"/>
        <request index="7" response="00110010" foes="00110010" cont="0"/>
    </junction>
    <junction id="JunctionExtern0" type="priority" x="-60.00" y="0.00" incLanes="EdgeExternTop_0" intLanes=":JunctionExtern0_0_0" shape="-60.00,0.00 -60.00,3.00 -60.00,0.00">
        <request index="0" response="0" foes="0" cont="0"/>
    </junction>
    <junction id="JunctionExtern1" type="priority" x="60.00" y="0.00" incLanes="EdgeExternBot_0" intLanes=":JunctionExtern1_0_0" shape="60.00,0.00 60.00,-3.00 60.00,0.00">
        <request index="0" response="0" foes="0" cont="0"/>
    </junction>

    <connection from="-E0" to="E1" fromLane="0" toLane="0" via=":Junction5_0_0" tl="Junction5" linkIndex="0" dir="r" state="O"/>
    <connection from="-E0" to="E3" fromLane="0" toLane="0" via=":Junction5_1_0" tl="Junction5" linkIndex="1" dir="s" state="O"/>
    <connection from="-E1" to="E3" fromLane="0" toLane="0" via=":Junction5_6_0" tl="Junction5" linkIndex="6" dir="r" state="o"/>
    <connection from="-E1" to="E2" fromLane="0" toLane="0" via=":Junction5_7_0" tl="Junction5" linkIndex="7" dir="s" state="o"/>
    <connection from="-E2" to="E0" fromLane="0" toLane="0" via=":Junction5_2_0" tl="Junction5" linkIndex="2" dir="r" state="o"/>
    <connection from="-E2" to="E1" fromLane="0" toLane="0" via=":Junction5_3_0" tl="Junction5" linkIndex="3" dir="s" state="o"/>
    <connection from="-E3" to="E2" fromLane="0" toLane="0" via=":Junction5_4_0" tl="Junction5" linkIndex="4" dir="r" state="O"/>
    <connection from="-E3" to="E0" fromLane="0" toLane="0" via=":Junction5_5_0" tl="Junction5" linkIndex="5" dir="s" state="O"/>
    <connection from="EdgeExternBot" to="EdgeExternTop" fromLane="0" toLane="0" via=":JunctionExtern1_0_0" dir="t" state="M"/>
    <connection from="EdgeExternTop" to="EdgeExternBot" fromLane="0" toLane="0" via=":JunctionExtern0_0_0" dir="t" state="M"/>

    <connection from=":Junction5_0" to="E1" fromLane="0" toLane="0" dir="r" state="M"/>
    <connection from=":Junction5_1" to="E3" fromLane="0" toLane="0" dir="s" state="M"/>
    <connection from=":Junction5_2" to="E0" fromLane="0" toLane="0" dir="r" state="M"/>
    <connection from=":Junction5_3" to="E1" fromLane="0" toLane="0" dir="s" state="M"/>
    <connection from=":Junction5_4" to="E2" fromLane="0" toLane="0" dir="r" state="M"/>
    <connection from=":Junction5_5" to="E0" fromLane="0" toLane="0" dir="s" state="M"/>
    <connection from=":Junction5_6" to="E3" fromLane="0" toLane="0" dir="r" state="M"/>
    <connection from=":Junction5_7" to="E2" fromLane="0" toLane="0" dir="s" state="M"/>
    <connection from=":JunctionExtern0_0" to="EdgeExternBot" fromLane="0" toLane="0" dir="t" state="M"/>
    <connection from=":JunctionExtern1_0" to="EdgeExternTop" fromLane="0" toLane="0" dir="t" state="M"/>

</net>
