<?xml version="1.0" encoding="UTF-8"?>

<!-- generated on 2026-04-09T16:38:02.163200+01:00 by Eclipse SUMO sumo v1_26_0+1034-8d7c6592743
This data file and the accompanying materials
are made available under the terms of the Eclipse Public License v2.0
which accompanies this distribution, and is available at
http://www.eclipse.org/legal/epl-v20.html
This file may also be made available under the following Secondary
Licenses when the conditions for such availability set forth in the Eclipse
Public License 2.0 are satisfied: GNU General Public License, version 2
or later which is available at
https://www.gnu.org/licenses/old-licenses/gpl-2.0-standalone.html
SPDX-License-Identifier: EPL-2.0 OR GPL-2.0-or-later
<sumoConfiguration xmlns:xsi="http://www.w3.org/2001/XMLSchema-instance" xsi:noNamespaceSchemaLocation="http://sumo.dlr.de/xsd/sumoConfiguration.xsd">

    <input>
        <net-file value="net.net.xml"/>
        <route-files value="input_routes.rou.xml"/>
    </input>

    <output>
        <write-license value="true"/>
        <tripinfo-output value="tripinfos.xml"/>
        <railsignal-block-output value="railsignal_blocks.xml"/>
        <railsignal-vehicle-output value="railsignal_vehicles.xml"/>
    </output>

    <processing>
        <time-to-teleport.railsignal-deadlock value="200"/>
        <default.speeddev value="0"/>
    </processing>

    <report>
        <xml-validation value="never"/>
        <duration-log.disable value="true"/>
        <no-step-log value="true"/>
    </report>

    <mesoscopic>
        <mesosim value="true"/>
        <meso-junction-control value="true"/>
    </mesoscopic>

</sumoConfiguration>
-->

<railsignal-vehicle-output>
    <railSignal id="A">
        <link linkIndex="0" from="a_0" to=":A_1_0">
            <driveWay id="A.0"/>
        </link>
    </railSignal>
    <railSignal id="B">
        <link linkIndex="0" from="b_0" to=":B_1_0">
            <driveWay id="B.0"/>
        </link>
    </railSignal>
    <railSignal id="D">
        <link linkIndex="0" from="d_0" to=":D_1_0">
            <driveWay id="D.0"/>
        </link>
    </railSignal>
    <departJunction id="J0">
        <driveWay id="J0.d0">
            <entry id="t0" time="0.00" reason="departed"/>
            <exit id="t0" time="8.00" reason="junction"/>
            <entry id="t1" time="8.00" reason="departed"/>
            <exit id="t1" time="16.00" reason="junction"/>
        </driveWay>
    </departJunction>
</railsignal-vehicle-output>
