<?xml version="1.0" encoding="UTF-8"?>

<!-- generated on 2025-12-19T17:42:42.880912+01:00 by Eclipse SUMO sumo v1_25_0+0642-06e43b453fc
This data file and the accompanying materials
are made available under the terms of the Eclipse Public License v2.0
which accompanies this distribution, and is available at
http://www.eclipse.org/legal/epl-v20.html
This file may also be made available under the following Secondary
Licenses when the conditions for such availability set forth in the Eclipse
Public License 2.0 are satisfied: GNU General Public License, version 2
or later which is available at
https://www.gnu.org/licenses/old-licenses/gpl-2.0-standalone.html
SPDX-License-Identifier: EPL-2.0 OR GPL-2.0-or-later
<sumoConfiguration xmlns:xsi="http://www.w3.org/2001/XMLSchema-instance" xsi:noNamespaceSchemaLocation="http://sumo.dlr.de/xsd/sumoConfiguration.xsd">

    <input>
        <net-file value="net.net.xml"/>
        <route-files value="input_routes.rou.xml"/>
    </input>

    <output>
        <write-license value="true"/>
        <tripinfo-output value="tripinfos.xml"/>
        <railsignal-block-output value="railsignal_blocks.xml"/>
        <railsignal-vehicle-output value="railsignal_vehicles.xml"/>
    </output>

    <processing>
        <time-to-teleport.railsignal-deadlock value="200"/>
        <default.speeddev value="0"/>
    </processing>

    <report>
        <xml-validation value="never"/>
        <duration-log.disable value="true"/>
        <no-step-log value="true"/>
    </report>

</sumoConfiguration>
-->

<railsignal-block-output>
    <railSignal id="A">
        <link linkIndex="0" from="a_0" to=":A_1_0">
            <driveWay id="A.0" vehicle="t0" edges="b c d e -e -d -c2 -b2">
                <forward lanes=":A_1_0 b_0"/>
                <bidi lanes=":A_0_0 -b_0 :B_0_0 -c_0 :C_1_0"
                    deadlockCheck="-d_0 :D_0_0 -e_0 e_0 :D_1_0 d_0 :C_3_0 c2_0 :J5_1_0 b2_0"/>
                <flank lanes=""/>
                <conflictLinks signals=""/>
                <foes driveWays="A.0"/>
            </driveWay>
        </link>
    </railSignal>
    <railSignal id="B">
        <link linkIndex="0" from="b_0" to=":B_1_0">
            <driveWay id="B.0" vehicle="t0" edges="c d e -e -d -c2 -b2">
                <forward lanes=":B_1_0 c_0 :C_2_0 d_0"/>
                <bidi lanes=":B_0_0 -c_0 :C_1_0 -d_0 :D_0_0 -e_0"
                    deadlockCheck="e_0 :D_1_0 d_0 :C_3_0 c2_0 :J5_1_0 b2_0"/>
                <flank lanes=""/>
                <conflictLinks signals="D_0"/>
                <foes driveWays="B.0 D.0.0"/>
            </driveWay>
        </link>
    </railSignal>
    <railSignal id="D">
        <link linkIndex="0" from="d_0" to=":D_1_0">
            <driveWay id="D.0" vehicle="t0" edges="e -e -d -c2 -b2">
                <forward lanes=":D_1_0 e_0 :E_2_0 -e_0 :D_0_0 -d_0 :C_0_0 -c2_0 :J5_0_0 -b2_0"/>
                <bidi lanes=":D_0_0 -e_0 e_0 :D_1_0 d_0 :C_3_0 c2_0 :J5_1_0 b2_0"/>
                <flank lanes=""/>
                <conflictLinks signals="B_0"/>
                <foes driveWays="B.0 D.0"/>
            </driveWay>
            <subDriveWay id="D.0.0" vehicle="" edges="e -e -d">
                <forward lanes=":D_1_0 e_0 :E_2_0 -e_0 :D_0_0 -d_0"/>
            </subDriveWay>
        </link>
    </railSignal>
    <departJunction id="J0">
        <driveWay id="J0.d0" vehicle="t0" edges="a b c d e -e -d -c2 -b2">
            <forward lanes="a_0"/>
            <bidi lanes="-a_0 :A_0_0 -b_0 :B_0_0 -c_0 :C_1_0"
                    deadlockCheck="-d_0 :D_0_0 -e_0 e_0 :D_1_0 d_0 :C_3_0 c2_0 :J5_1_0 b2_0"/>
            <flank lanes=""/>
            <conflictLinks signals=""/>
            <foes driveWays="J0.d0"/>
        </driveWay>
    </departJunction>
</railsignal-block-output>
