<?xml version="1.0" encoding="UTF-8"?>

<!-- generated on Sun Sep  2 10:34:12 2018 by Eclipse SUMO netconvert Version d6cfaccbb6
<configuration xmlns:xsi="http://www.w3.org/2001/XMLSchema-instance" xsi:noNamespaceSchemaLocation="http://sumo.dlr.de/xsd/netconvertConfiguration.xsd">

    <input>
        <node-files value=".\netedit\netElements\lanes\select_vtypes\select_vtypes_disallowed\select_vtypes_allowed_private\input_net.nod.xml"/>
        <edge-files value=".\netedit\netElements\lanes\select_vtypes\select_vtypes_disallowed\select_vtypes_allowed_private\input_net.edg.xml"/>
        <connection-files value=".\netedit\netElements\lanes\select_vtypes\select_vtypes_disallowed\select_vtypes_allowed_private\input_net.con.xml"/>
    </input>

    <output>
        <output-file value=".\netedit\netElements\lanes\select_vtypes\select_vtypes_disallowed\select_vtypes_allowed_private\input_net.net.xml"/>
    </output>

    <report>
        <verbose value="true"/>
    </report>

</configuration>
-->

<net version="1.0" junctionCornerDetail="5" limitTurnSpeed="5.50" xmlns:xsi="http://www.w3.org/2001/XMLSchema-instance" xsi:noNamespaceSchemaLocation="http://sumo.dlr.de/xsd/net_file.xsd">

    <location netOffset="0.00,-30.00" convBoundary="0.00,0.00,80.00,40.00" origBoundary="-10000000000.00,-10000000000.00,10000000000.00,10000000000.00" projParameter="!"/>

    <edge id=":gneJ10_0" function="internal">
        <lane id=":gneJ10_0_0" index="0" disallow="emergency" speed="3.65" length="4.67" shape="50.00,38.40 51.20,39.20 51.60,40.00 51.20,40.80 50.00,41.60"/>
    </edge>
    <edge id=":gneJ11_0" function="internal">
        <lane id=":gneJ11_0_0" index="0" disallow="ship" speed="3.65" length="4.67" shape="60.00,41.60 58.80,40.80 58.40,40.00 58.80,39.20 60.00,38.40"/>
    </edge>
    <edge id=":gneJ12_0" function="internal">
        <lane id=":gneJ12_0_0" index="0" disallow="rail_electric" speed="3.65" length="4.67" shape="80.00,38.40 81.20,39.20 81.60,40.00 81.20,40.80 80.00,41.60"/>
    </edge>
    <edge id=":gneJ13_0" function="internal">
        <lane id=":gneJ13_0_0" index="0" disallow="private" speed="3.65" length="4.67" shape="60.00,31.60 58.80,30.80 58.40,30.00 58.80,29.20 60.00,28.40"/>
    </edge>
    <edge id=":gneJ14_0" function="internal">
        <lane id=":gneJ14_0_0" index="0" disallow="evehicle" speed="3.65" length="4.67" shape="80.00,28.40 81.20,29.20 81.60,30.00 81.20,30.80 80.00,31.60"/>
    </edge>
    <edge id=":gneJ15_0" function="internal">
        <lane id=":gneJ15_0_0" index="0" disallow="authority" speed="3.65" length="4.67" shape="60.00,21.60 58.80,20.80 58.40,20.00 58.80,19.20 60.00,18.40"/>
    </edge>
    <edge id=":gneJ16_0" function="internal">
        <lane id=":gneJ16_0_0" index="0" disallow="army" speed="3.65" length="4.67" shape="80.00,18.40 81.20,19.20 81.60,20.00 81.20,20.80 80.00,21.60"/>
    </edge>
    <edge id=":gneJ17_0" function="internal">
        <lane id=":gneJ17_0_0" index="0" disallow="bicycle" speed="3.65" length="4.67" shape="30.00,31.60 28.80,30.80 28.40,30.00 28.80,29.20 30.00,28.40"/>
    </edge>
    <edge id=":gneJ18_0" function="internal">
        <lane id=":gneJ18_0_0" index="0" disallow="moped" speed="3.65" length="4.67" shape="50.00,28.40 51.20,29.20 51.60,30.00 51.20,30.80 50.00,31.60"/>
    </edge>
    <edge id=":gneJ19_0" function="internal">
        <lane id=":gneJ19_0_0" index="0" disallow="tram" speed="3.65" length="4.67" shape="30.00,21.60 28.80,20.80 28.40,20.00 28.80,19.20 30.00,18.40"/>
    </edge>
    <edge id=":gneJ2_0" function="internal">
        <lane id=":gneJ2_0_0" index="0" disallow="passenger" speed="3.65" length="4.67" shape="0.00,41.60 -1.20,40.80 -1.60,40.00 -1.20,39.20 0.00,38.40"/>
    </edge>
    <edge id=":gneJ20_0" function="internal">
        <lane id=":gneJ20_0_0" index="0" disallow="pedestrian" speed="3.65" length="4.67" shape="50.00,18.40 51.20,19.20 51.60,20.00 51.20,20.80 50.00,21.60"/>
    </edge>
    <edge id=":gneJ21_0" function="internal">
        <lane id=":gneJ21_0_0" index="0" disallow="trailer" speed="3.65" length="4.67" shape="0.00,11.60 -1.20,10.80 -1.60,10.00 -1.20,9.20 0.00,8.40"/>
    </edge>
    <edge id=":gneJ22_0" function="internal">
        <lane id=":gneJ22_0_0" index="0" disallow="truck" speed="3.65" length="4.67" shape="20.00,8.40 21.20,9.20 21.60,10.00 21.20,10.80 20.00,11.60"/>
    </edge>
    <edge id=":gneJ23_0" function="internal">
        <lane id=":gneJ23_0_0" index="0" disallow="rail" speed="3.65" length="4.67" shape="30.00,11.60 28.80,10.80 28.40,10.00 28.80,9.20 30.00,8.40"/>
    </edge>
    <edge id=":gneJ24_0" function="internal">
        <lane id=":gneJ24_0_0" index="0" disallow="rail_urban" speed="3.65" length="4.67" shape="50.00,8.40 51.20,9.20 51.60,10.00 51.20,10.80 50.00,11.60"/>
    </edge>
    <edge id=":gneJ25_0" function="internal">
        <lane id=":gneJ25_0_0" index="0" disallow="hov" speed="3.65" length="4.67" shape="60.00,11.60 58.80,10.80 58.40,10.00 58.80,9.20 60.00,8.40"/>
    </edge>
    <edge id=":gneJ26_0" function="internal">
        <lane id=":gneJ26_0_0" index="0" disallow="vip" speed="3.65" length="4.67" shape="80.00,8.40 81.20,9.20 81.60,10.00 81.20,10.80 80.00,11.60"/>
    </edge>
    <edge id=":gneJ27_0" function="internal">
        <lane id=":gneJ27_0_0" index="0" disallow="custom2" speed="3.65" length="4.67" shape="30.00,1.60 28.80,0.80 28.40,0.00 28.80,-0.80 30.00,-1.60"/>
    </edge>
    <edge id=":gneJ28_0" function="internal">
        <lane id=":gneJ28_0_0" index="0" disallow="custom1" speed="3.65" length="4.67" shape="50.00,-1.60 51.20,-0.80 51.60,0.00 51.20,0.80 50.00,1.60"/>
    </edge>
    <edge id=":gneJ3_0" function="internal">
        <lane id=":gneJ3_0_0" index="0" speed="3.82" length="4.67" shape="20.00,38.40 21.20,39.20 21.60,40.00 21.20,40.80 20.00,41.60"/>
    </edge>
    <edge id=":gneJ4_0" function="internal">
        <lane id=":gneJ4_0_0" index="0" disallow="bus" speed="3.65" length="4.67" shape="0.00,31.60 -1.20,30.80 -1.60,30.00 -1.20,29.20 0.00,28.40"/>
    </edge>
    <edge id=":gneJ5_0" function="internal">
        <lane id=":gneJ5_0_0" index="0" disallow="taxi" speed="3.65" length="4.67" shape="20.00,28.40 21.20,29.20 21.60,30.00 21.20,30.80 20.00,31.60"/>
    </edge>
    <edge id=":gneJ7_0" function="internal">
        <lane id=":gneJ7_0_0" index="0" disallow="delivery" speed="3.65" length="4.67" shape="0.00,21.60 -1.20,20.80 -1.60,20.00 -1.20,19.20 0.00,18.40"/>
    </edge>
    <edge id=":gneJ8_0" function="internal">
        <lane id=":gneJ8_0_0" index="0" disallow="coach" speed="3.65" length="4.67" shape="20.00,18.40 21.20,19.20 21.60,20.00 21.20,20.80 20.00,21.60"/>
    </edge>
    <edge id=":gneJ9_0" function="internal">
        <lane id=":gneJ9_0_0" index="0" disallow="motorcycle" speed="3.65" length="4.67" shape="30.00,41.60 28.80,40.80 28.40,40.00 28.80,39.20 30.00,38.40"/>
    </edge>

    <edge id="-gneE14" from="gneJ4" to="gneJ5" priority="1">
        <lane id="-gneE14_0" index="0" disallow="bus" speed="13.89" length="20.00" shape="0.00,28.40 20.00,28.40"/>
    </edge>
    <edge id="-gneE15" from="gneJ8" to="gneJ7" priority="1">
        <lane id="-gneE15_0" index="0" disallow="coach" speed="13.89" length="20.00" shape="20.00,21.60 0.00,21.60"/>
    </edge>
    <edge id="-gneE16" from="gneJ20" to="gneJ19" priority="1">
        <lane id="-gneE16_0" index="0" disallow="pedestrian" speed="13.89" length="20.00" shape="50.00,21.60 30.00,21.60"/>
    </edge>
    <edge id="-gneE17" from="gneJ17" to="gneJ18" priority="1">
        <lane id="-gneE17_0" index="0" disallow="bicycle" speed="13.89" length="20.00" shape="30.00,28.40 50.00,28.40"/>
    </edge>
    <edge id="-gneE18" from="gneJ10" to="gneJ9" priority="1">
        <lane id="-gneE18_0" index="0" disallow="emergency" speed="13.89" length="20.00" shape="50.00,41.60 30.00,41.60"/>
    </edge>
    <edge id="-gneE19" from="gneJ12" to="gneJ11" priority="1">
        <lane id="-gneE19_0" index="0" disallow="rail_electric" speed="13.89" length="20.00" shape="80.00,41.60 60.00,41.60"/>
    </edge>
    <edge id="-gneE20" from="gneJ13" to="gneJ14" priority="1">
        <lane id="-gneE20_0" index="0" disallow="private" speed="13.89" length="20.00" shape="60.00,28.40 80.00,28.40"/>
    </edge>
    <edge id="-gneE21" from="gneJ16" to="gneJ15" priority="1">
        <lane id="-gneE21_0" index="0" disallow="army" speed="13.89" length="20.00" shape="80.00,21.60 60.00,21.60"/>
    </edge>
    <edge id="-gneE22" from="gneJ22" to="gneJ21" priority="1">
        <lane id="-gneE22_0" index="0" disallow="truck" speed="13.89" length="20.00" shape="20.00,11.60 0.00,11.60"/>
    </edge>
    <edge id="-gneE23" from="gneJ24" to="gneJ23" priority="1">
        <lane id="-gneE23_0" index="0" disallow="rail_urban" speed="13.89" length="20.00" shape="50.00,11.60 30.00,11.60"/>
    </edge>
    <edge id="-gneE24" from="gneJ26" to="gneJ25" priority="1">
        <lane id="-gneE24_0" index="0" disallow="vip" speed="13.89" length="20.00" shape="80.00,11.60 60.00,11.60"/>
    </edge>
    <edge id="-gneE25" from="gneJ28" to="gneJ27" priority="1">
        <lane id="-gneE25_0" index="0" disallow="custom1" speed="13.89" length="20.00" shape="50.00,1.60 30.00,1.60"/>
    </edge>
    <edge id="gneE12" from="gneJ3" to="gneJ2" priority="1">
        <lane id="gneE12_0" index="0" speed="13.89" length="20.00" shape="20.00,41.60 0.00,41.60"/>
    </edge>
    <edge id="gneE13" from="gneJ2" to="gneJ3" priority="1">
        <lane id="gneE13_0" index="0" disallow="passenger" speed="13.89" length="20.00" shape="0.00,38.40 20.00,38.40"/>
    </edge>
    <edge id="gneE14" from="gneJ5" to="gneJ4" priority="1">
        <lane id="gneE14_0" index="0" disallow="taxi" speed="13.89" length="20.00" shape="20.00,31.60 0.00,31.60"/>
    </edge>
    <edge id="gneE15" from="gneJ7" to="gneJ8" priority="1">
        <lane id="gneE15_0" index="0" disallow="delivery" speed="13.89" length="20.00" shape="0.00,18.40 20.00,18.40"/>
    </edge>
    <edge id="gneE16" from="gneJ19" to="gneJ20" priority="1">
        <lane id="gneE16_0" index="0" disallow="tram" speed="13.89" length="20.00" shape="30.00,18.40 50.00,18.40"/>
    </edge>
    <edge id="gneE17" from="gneJ18" to="gneJ17" priority="1">
        <lane id="gneE17_0" index="0" disallow="moped" speed="13.89" length="20.00" shape="50.00,31.60 30.00,31.60"/>
    </edge>
    <edge id="gneE18" from="gneJ9" to="gneJ10" priority="1">
        <lane id="gneE18_0" index="0" disallow="motorcycle" speed="13.89" length="20.00" shape="30.00,38.40 50.00,38.40"/>
    </edge>
    <edge id="gneE19" from="gneJ11" to="gneJ12" priority="1">
        <lane id="gneE19_0" index="0" disallow="ship" speed="13.89" length="20.00" shape="60.00,38.40 80.00,38.40"/>
    </edge>
    <edge id="gneE20" from="gneJ14" to="gneJ13" priority="1">
        <lane id="gneE20_0" index="0" disallow="evehicle" speed="13.89" length="20.00" shape="80.00,31.60 60.00,31.60"/>
    </edge>
    <edge id="gneE21" from="gneJ15" to="gneJ16" priority="1">
        <lane id="gneE21_0" index="0" disallow="authority" speed="13.89" length="20.00" shape="60.00,18.40 80.00,18.40"/>
    </edge>
    <edge id="gneE22" from="gneJ21" to="gneJ22" priority="1">
        <lane id="gneE22_0" index="0" disallow="trailer" speed="13.89" length="20.00" shape="0.00,8.40 20.00,8.40"/>
    </edge>
    <edge id="gneE23" from="gneJ23" to="gneJ24" priority="1">
        <lane id="gneE23_0" index="0" disallow="rail" speed="13.89" length="20.00" shape="30.00,8.40 50.00,8.40"/>
    </edge>
    <edge id="gneE24" from="gneJ25" to="gneJ26" priority="1">
        <lane id="gneE24_0" index="0" disallow="hov" speed="13.89" length="20.00" shape="60.00,8.40 80.00,8.40"/>
    </edge>
    <edge id="gneE25" from="gneJ27" to="gneJ28" priority="1">
        <lane id="gneE25_0" index="0" disallow="custom2" speed="13.89" length="20.00" shape="30.00,-1.60 50.00,-1.60"/>
    </edge>

    <junction id="gneJ10" type="priority" x="50.00" y="40.00" incLanes="gneE18_0" intLanes=":gneJ10_0_0" shape="50.00,40.00 50.00,36.80 50.00,40.00">
        <request index="0" response="0" foes="0" cont="0"/>
    </junction>
    <junction id="gneJ11" type="priority" x="60.00" y="40.00" incLanes="-gneE19_0" intLanes=":gneJ11_0_0" shape="60.00,40.00 60.00,43.20 60.00,40.00">
        <request index="0" response="0" foes="0" cont="0"/>
    </junction>
    <junction id="gneJ12" type="priority" x="80.00" y="40.00" incLanes="gneE19_0" intLanes=":gneJ12_0_0" shape="80.00,40.00 80.00,36.80 80.00,40.00">
        <request index="0" response="0" foes="0" cont="0"/>
    </junction>
    <junction id="gneJ13" type="priority" x="60.00" y="30.00" incLanes="gneE20_0" intLanes=":gneJ13_0_0" shape="60.00,30.00 60.00,33.20 60.00,30.00">
        <request index="0" response="0" foes="0" cont="0"/>
    </junction>
    <junction id="gneJ14" type="priority" x="80.00" y="30.00" incLanes="-gneE20_0" intLanes=":gneJ14_0_0" shape="80.00,30.00 80.00,26.80 80.00,30.00">
        <request index="0" response="0" foes="0" cont="0"/>
    </junction>
    <junction id="gneJ15" type="priority" x="60.00" y="20.00" incLanes="-gneE21_0" intLanes=":gneJ15_0_0" shape="60.00,20.00 60.00,23.20 60.00,20.00">
        <request index="0" response="0" foes="0" cont="0"/>
    </junction>
    <junction id="gneJ16" type="priority" x="80.00" y="20.00" incLanes="gneE21_0" intLanes=":gneJ16_0_0" shape="80.00,20.00 80.00,16.80 80.00,20.00">
        <request index="0" response="0" foes="0" cont="0"/>
    </junction>
    <junction id="gneJ17" type="priority" x="30.00" y="30.00" incLanes="gneE17_0" intLanes=":gneJ17_0_0" shape="30.00,30.00 30.00,33.20 30.00,30.00">
        <request index="0" response="0" foes="0" cont="0"/>
    </junction>
    <junction id="gneJ18" type="priority" x="50.00" y="30.00" incLanes="-gneE17_0" intLanes=":gneJ18_0_0" shape="50.00,30.00 50.00,26.80 50.00,30.00">
        <request index="0" response="0" foes="0" cont="0"/>
    </junction>
    <junction id="gneJ19" type="priority" x="30.00" y="20.00" incLanes="-gneE16_0" intLanes=":gneJ19_0_0" shape="30.00,20.00 30.00,23.20 30.00,20.00">
        <request index="0" response="0" foes="0" cont="0"/>
    </junction>
    <junction id="gneJ2" type="priority" x="0.00" y="40.00" incLanes="gneE12_0" intLanes=":gneJ2_0_0" shape="0.00,40.00 0.00,43.20 0.00,40.00">
        <request index="0" response="0" foes="0" cont="0"/>
    </junction>
    <junction id="gneJ20" type="priority" x="50.00" y="20.00" incLanes="gneE16_0" intLanes=":gneJ20_0_0" shape="50.00,20.00 50.00,16.80 50.00,20.00">
        <request index="0" response="0" foes="0" cont="0"/>
    </junction>
    <junction id="gneJ21" type="priority" x="0.00" y="10.00" incLanes="-gneE22_0" intLanes=":gneJ21_0_0" shape="0.00,10.00 0.00,13.20 0.00,10.00">
        <request index="0" response="0" foes="0" cont="0"/>
    </junction>
    <junction id="gneJ22" type="priority" x="20.00" y="10.00" incLanes="gneE22_0" intLanes=":gneJ22_0_0" shape="20.00,10.00 20.00,6.80 20.00,10.00">
        <request index="0" response="0" foes="0" cont="0"/>
    </junction>
    <junction id="gneJ23" type="priority" x="30.00" y="10.00" incLanes="-gneE23_0" intLanes=":gneJ23_0_0" shape="30.00,10.00 30.00,13.20 30.00,10.00">
        <request index="0" response="0" foes="0" cont="0"/>
    </junction>
    <junction id="gneJ24" type="priority" x="50.00" y="10.00" incLanes="gneE23_0" intLanes=":gneJ24_0_0" shape="50.00,10.00 50.00,6.80 50.00,10.00">
        <request index="0" response="0" foes="0" cont="0"/>
    </junction>
    <junction id="gneJ25" type="priority" x="60.00" y="10.00" incLanes="-gneE24_0" intLanes=":gneJ25_0_0" shape="60.00,10.00 60.00,13.20 60.00,10.00">
        <request index="0" response="0" foes="0" cont="0"/>
    </junction>
    <junction id="gneJ26" type="priority" x="80.00" y="10.00" incLanes="gneE24_0" intLanes=":gneJ26_0_0" shape="80.00,10.00 80.00,6.80 80.00,10.00">
        <request index="0" response="0" foes="0" cont="0"/>
    </junction>
    <junction id="gneJ27" type="priority" x="30.00" y="0.00" incLanes="-gneE25_0" intLanes=":gneJ27_0_0" shape="30.00,0.00 30.00,3.20 30.00,0.00">
        <request index="0" response="0" foes="0" cont="0"/>
    </junction>
    <junction id="gneJ28" type="priority" x="50.00" y="0.00" incLanes="gneE25_0" intLanes=":gneJ28_0_0" shape="50.00,0.00 50.00,-3.20 50.00,0.00">
        <request index="0" response="0" foes="0" cont="0"/>
    </junction>
    <junction id="gneJ3" type="priority" x="20.00" y="40.00" incLanes="gneE13_0" intLanes=":gneJ3_0_0" shape="20.00,40.00 20.00,36.80 20.00,40.00">
        <request index="0" response="0" foes="0" cont="0"/>
    </junction>
    <junction id="gneJ4" type="priority" x="0.00" y="30.00" incLanes="gneE14_0" intLanes=":gneJ4_0_0" shape="0.00,30.00 0.00,33.20 0.00,30.00">
        <request index="0" response="0" foes="0" cont="0"/>
    </junction>
    <junction id="gneJ5" type="priority" x="20.00" y="30.00" incLanes="-gneE14_0" intLanes=":gneJ5_0_0" shape="20.00,30.00 20.00,26.80 20.00,30.00">
        <request index="0" response="0" foes="0" cont="0"/>
    </junction>
    <junction id="gneJ7" type="priority" x="0.00" y="20.00" incLanes="-gneE15_0" intLanes=":gneJ7_0_0" shape="0.00,20.00 0.00,23.20 0.00,20.00">
        <request index="0" response="0" foes="0" cont="0"/>
    </junction>
    <junction id="gneJ8" type="priority" x="20.00" y="20.00" incLanes="gneE15_0" intLanes=":gneJ8_0_0" shape="20.00,20.00 20.00,16.80 20.00,20.00">
        <request index="0" response="0" foes="0" cont="0"/>
    </junction>
    <junction id="gneJ9" type="priority" x="30.00" y="40.00" incLanes="-gneE18_0" intLanes=":gneJ9_0_0" shape="30.00,40.00 30.00,43.20 30.00,40.00">
        <request index="0" response="0" foes="0" cont="0"/>
    </junction>

    <connection from="-gneE14" to="gneE14" fromLane="0" toLane="0" via=":gneJ5_0_0" dir="t" state="M"/>
    <connection from="-gneE15" to="gneE15" fromLane="0" toLane="0" via=":gneJ7_0_0" dir="t" state="M"/>
    <connection from="-gneE16" to="gneE16" fromLane="0" toLane="0" via=":gneJ19_0_0" dir="t" state="M"/>
    <connection from="-gneE17" to="gneE17" fromLane="0" toLane="0" via=":gneJ18_0_0" dir="t" state="M"/>
    <connection from="-gneE18" to="gneE18" fromLane="0" toLane="0" via=":gneJ9_0_0" dir="t" state="M"/>
    <connection from="-gneE19" to="gneE19" fromLane="0" toLane="0" via=":gneJ11_0_0" dir="t" state="M"/>
    <connection from="-gneE20" to="gneE20" fromLane="0" toLane="0" via=":gneJ14_0_0" dir="t" state="M"/>
    <connection from="-gneE21" to="gneE21" fromLane="0" toLane="0" via=":gneJ15_0_0" dir="t" state="M"/>
    <connection from="-gneE22" to="gneE22" fromLane="0" toLane="0" via=":gneJ21_0_0" dir="t" state="M"/>
    <connection from="-gneE23" to="gneE23" fromLane="0" toLane="0" via=":gneJ23_0_0" dir="t" state="M"/>
    <connection from="-gneE24" to="gneE24" fromLane="0" toLane="0" via=":gneJ25_0_0" dir="t" state="M"/>
    <connection from="-gneE25" to="gneE25" fromLane="0" toLane="0" via=":gneJ27_0_0" dir="t" state="M"/>
    <connection from="gneE12" to="gneE13" fromLane="0" toLane="0" via=":gneJ2_0_0" dir="t" state="M"/>
    <connection from="gneE13" to="gneE12" fromLane="0" toLane="0" via=":gneJ3_0_0" dir="t" state="M"/>
    <connection from="gneE14" to="-gneE14" fromLane="0" toLane="0" via=":gneJ4_0_0" dir="t" state="M"/>
    <connection from="gneE15" to="-gneE15" fromLane="0" toLane="0" via=":gneJ8_0_0" dir="t" state="M"/>
    <connection from="gneE16" to="-gneE16" fromLane="0" toLane="0" via=":gneJ20_0_0" dir="t" state="M"/>
    <connection from="gneE17" to="-gneE17" fromLane="0" toLane="0" via=":gneJ17_0_0" dir="t" state="M"/>
    <connection from="gneE18" to="-gneE18" fromLane="0" toLane="0" via=":gneJ10_0_0" dir="t" state="M"/>
    <connection from="gneE19" to="-gneE19" fromLane="0" toLane="0" via=":gneJ12_0_0" dir="t" state="M"/>
    <connection from="gneE20" to="-gneE20" fromLane="0" toLane="0" via=":gneJ13_0_0" dir="t" state="M"/>
    <connection from="gneE21" to="-gneE21" fromLane="0" toLane="0" via=":gneJ16_0_0" dir="t" state="M"/>
    <connection from="gneE22" to="-gneE22" fromLane="0" toLane="0" via=":gneJ22_0_0" dir="t" state="M"/>
    <connection from="gneE23" to="-gneE23" fromLane="0" toLane="0" via=":gneJ24_0_0" dir="t" state="M"/>
    <connection from="gneE24" to="-gneE24" fromLane="0" toLane="0" via=":gneJ26_0_0" dir="t" state="M"/>
    <connection from="gneE25" to="-gneE25" fromLane="0" toLane="0" via=":gneJ28_0_0" dir="t" state="M"/>

    <connection from=":gneJ10_0" to="-gneE18" fromLane="0" toLane="0" dir="t" state="M"/>
    <connection from=":gneJ11_0" to="gneE19" fromLane="0" toLane="0" dir="t" state="M"/>
    <connection from=":gneJ12_0" to="-gneE19" fromLane="0" toLane="0" dir="t" state="M"/>
    <connection from=":gneJ13_0" to="-gneE20" fromLane="0" toLane="0" dir="t" state="M"/>
    <connection from=":gneJ14_0" to="gneE20" fromLane="0" toLane="0" dir="t" state="M"/>
    <connection from=":gneJ15_0" to="gneE21" fromLane="0" toLane="0" dir="t" state="M"/>
    <connection from=":gneJ16_0" to="-gneE21" fromLane="0" toLane="0" dir="t" state="M"/>
    <connection from=":gneJ17_0" to="-gneE17" fromLane="0" toLane="0" dir="t" state="M"/>
    <connection from=":gneJ18_0" to="gneE17" fromLane="0" toLane="0" dir="t" state="M"/>
    <connection from=":gneJ19_0" to="gneE16" fromLane="0" toLane="0" dir="t" state="M"/>
    <connection from=":gneJ2_0" to="gneE13" fromLane="0" toLane="0" dir="t" state="M"/>
    <connection from=":gneJ20_0" to="-gneE16" fromLane="0" toLane="0" dir="t" state="M"/>
    <connection from=":gneJ21_0" to="gneE22" fromLane="0" toLane="0" dir="t" state="M"/>
    <connection from=":gneJ22_0" to="-gneE22" fromLane="0" toLane="0" dir="t" state="M"/>
    <connection from=":gneJ23_0" to="gneE23" fromLane="0" toLane="0" dir="t" state="M"/>
    <connection from=":gneJ24_0" to="-gneE23" fromLane="0" toLane="0" dir="t" state="M"/>
    <connection from=":gneJ25_0" to="gneE24" fromLane="0" toLane="0" dir="t" state="M"/>
    <connection from=":gneJ26_0" to="-gneE24" fromLane="0" toLane="0" dir="t" state="M"/>
    <connection from=":gneJ27_0" to="gneE25" fromLane="0" toLane="0" dir="t" state="M"/>
    <connection from=":gneJ28_0" to="-gneE25" fromLane="0" toLane="0" dir="t" state="M"/>
    <connection from=":gneJ3_0" to="gneE12" fromLane="0" toLane="0" dir="t" state="M"/>
    <connection from=":gneJ4_0" to="-gneE14" fromLane="0" toLane="0" dir="t" state="M"/>
    <connection from=":gneJ5_0" to="gneE14" fromLane="0" toLane="0" dir="t" state="M"/>
    <connection from=":gneJ7_0" to="gneE15" fromLane="0" toLane="0" dir="t" state="M"/>
    <connection from=":gneJ8_0" to="-gneE15" fromLane="0" toLane="0" dir="t" state="M"/>
    <connection from=":gneJ9_0" to="gneE18" fromLane="0" toLane="0" dir="t" state="M"/>

</net>
