<?xml version="1.0" encoding="UTF-8"?>

<!-- generated on Do 26 Apr 2018 12:37:36 CEST by Eclipse SUMO netedit Version UNKNOWN
<configuration xmlns:xsi="http://www.w3.org/2001/XMLSchema-instance" xsi:noNamespaceSchemaLocation="http://sumo.dlr.de/xsd/netconvertConfiguration.xsd">

    <input>
        <sumo-net-file value="net.net.xml"/>
    </input>

    <output>
        <output-file value="net.net.xml"/>
    </output>

    <processing>
        <no-internal-links value="true"/>
        <no-turnarounds value="true"/>
        <offset.disable-normalization value="true"/>
        <lefthand value="false"/>
        <junctions.corner-detail value="0"/>
        <rectangular-lane-cut value="false"/>
        <walkingareas value="false"/>
    </processing>

</configuration>
-->

<net version="0.27" xmlns:xsi="http://www.w3.org/2001/XMLSchema-instance" xsi:noNamespaceSchemaLocation="http://sumo.dlr.de/xsd/net_file.xsd">

    <location netOffset="500.00,500.00" convBoundary="0.00,0.00,1000.00,1000.00" origBoundary="-500.00,-500.00,500.00,500.00" projParameter="!"/>

    <edge id="1si" from="m1" to="0" priority="3">
        <lane id="1si_0" index="0" speed="13.89" length="250.00" shape="251.50,495.20 488.90,495.20"/>
        <lane id="1si_1" index="1" speed="13.89" length="250.00" shape="251.50,498.40 488.90,498.40"/>
    </edge>
    <edge id="2si" from="m2" to="0" priority="3">
        <lane id="2si_0" index="0" speed="13.89" length="250.00" shape="748.50,504.80 504.70,504.80"/>
        <lane id="2si_1" index="1" speed="13.89" length="250.00" shape="748.50,501.60 504.70,501.60"/>
    </edge>
    <edge id="3si" from="m3" to="0" priority="3">
        <lane id="3si_0" index="0" speed="13.89" length="250.00" shape="501.60,250.00 501.60,492.10"/>
    </edge>
    <edge id="4si" from="m4" to="0" priority="3">
        <lane id="4si_0" index="0" speed="13.89" length="250.00" shape="492.00,748.50 492.00,507.90"/>
        <lane id="4si_1" index="1" speed="13.89" length="250.00" shape="495.20,748.50 495.20,507.90"/>
        <lane id="4si_2" index="2" speed="13.89" length="250.00" shape="498.40,748.50 498.40,507.90"/>
    </edge>
    <edge id="Ein" from="2" to="m2" priority="2">
        <lane id="Ein_0" index="0" speed="11.11" length="250.00" shape="1000.00,501.60 751.50,501.60"/>
    </edge>
    <edge id="Eout" from="0" to="2" priority="1">
        <lane id="Eout_0" index="0" speed="11.11" length="500.00" shape="504.70,498.40 1000.00,498.40"/>
    </edge>
    <edge id="Nin" from="4" to="m4" priority="2">
        <lane id="Nin_0" index="0" speed="11.11" length="250.00" shape="498.40,1000.00 498.40,751.50"/>
    </edge>
    <edge id="Nout" from="0" to="4" priority="1">
        <lane id="Nout_0" index="0" speed="11.11" length="500.00" shape="501.60,507.90 501.60,1000.00"/>
    </edge>
    <edge id="Sin" from="3" to="m3" priority="2">
        <lane id="Sin_0" index="0" speed="11.11" length="250.00" shape="501.60,0.00 501.60,250.00"/>
    </edge>
    <edge id="Sout" from="0" to="3" priority="1">
        <lane id="Sout_0" index="0" speed="11.11" length="500.00" shape="498.40,492.10 498.40,0.00"/>
    </edge>
    <edge id="Win" from="1" to="m1" priority="2">
        <lane id="Win_0" index="0" speed="11.11" length="250.00" shape="0.00,498.40 248.50,498.40"/>
    </edge>
    <edge id="Wout" from="0" to="1" priority="1">
        <lane id="Wout_0" index="0" speed="11.11" length="500.00" shape="488.90,501.60 0.00,501.60"/>
    </edge>

    <tlLogic id="0" type="static" programID="0" offset="0">
        <phase duration="33" state="GGgrrrGGgrrr"/>
        <phase duration="3"  state="yygrrryygrrr"/>
        <phase duration="6"  state="rrGrrrrrGrrr"/>
        <phase duration="3"  state="rryrrrrryrrr"/>
        <phase duration="33" state="rrrGGgrrrGGg"/>
        <phase duration="3"  state="rrryygrrryyg"/>
        <phase duration="6"  state="rrrrrGrrrrrG"/>
        <phase duration="3"  state="rrrrryrrrrry"/>
    </tlLogic>

    <junction id="0" type="traffic_light" x="500.00" y="500.00" incLanes="4si_0 4si_1 4si_2 2si_0 2si_1 3si_0 1si_0 1si_1" intLanes="" shape="490.40,507.90 503.20,507.90 504.70,506.40 504.70,496.80 503.20,492.10 496.80,492.10 488.90,493.60 488.90,503.20">
        <request index="0"  response="000000000000" foes="000100010000"/>
        <request index="1"  response="000000000000" foes="111100110000"/>
        <request index="2"  response="000011000000" foes="110011110000"/>
        <request index="3"  response="000010000000" foes="100010000000"/>
        <request index="4"  response="000110000111" foes="100110000111"/>
        <request index="5"  response="011110000110" foes="011110000110"/>
        <request index="6"  response="000000000000" foes="010000000100"/>
        <request index="7"  response="000000000000" foes="110000111100"/>
        <request index="8"  response="000000000011" foes="110000110011"/>
        <request index="9"  response="000000000010" foes="000000100010"/>
        <request index="10" response="000111000110" foes="000111100110"/>
        <request index="11" response="000110011110" foes="000110011110"/>
    </junction>
    <junction id="1" type="priority" x="0.00" y="500.00" incLanes="Wout_0" intLanes="" shape="0.00,500.00 0.00,503.20 0.00,500.00">
        <request index="0" response="0" foes="0"/>
    </junction>
    <junction id="2" type="priority" x="1000.00" y="500.00" incLanes="Eout_0" intLanes="" shape="1000.00,500.00 1000.00,496.80 1000.00,500.00">
        <request index="0" response="0" foes="0"/>
    </junction>
    <junction id="3" type="priority" x="500.00" y="0.00" incLanes="Sout_0" intLanes="" shape="500.00,0.00 496.80,0.00 500.00,0.00">
        <request index="0" response="0" foes="0"/>
    </junction>
    <junction id="4" type="priority" x="500.00" y="1000.00" incLanes="Nout_0" intLanes="" shape="500.00,1000.00 503.20,1000.00 500.00,1000.00">
        <request index="0" response="0" foes="0"/>
    </junction>
    <junction id="m1" type="priority" x="250.00" y="500.00" incLanes="Win_0" intLanes="" shape="251.50,500.00 251.50,493.60 248.50,496.80 248.50,500.00">
        <request index="0" response="00" foes="00"/>
        <request index="1" response="00" foes="00"/>
    </junction>
    <junction id="m2" type="priority" x="750.00" y="500.00" incLanes="Ein_0" intLanes="" shape="751.50,503.20 751.50,500.00 748.50,500.00 748.50,506.40">
        <request index="0" response="00" foes="00"/>
        <request index="1" response="00" foes="00"/>
    </junction>
    <junction id="m3" type="priority" x="500.00" y="250.00" incLanes="Sin_0" intLanes="" shape="500.00,250.00 503.20,250.00 500.00,250.00">
        <request index="0" response="0" foes="0"/>
    </junction>
    <junction id="m4" type="priority" x="500.00" y="750.00" incLanes="Nin_0" intLanes="" shape="496.80,751.50 500.00,751.50 500.00,748.50 490.40,748.50">
        <request index="0" response="000" foes="000"/>
        <request index="1" response="000" foes="000"/>
        <request index="2" response="000" foes="000"/>
    </junction>

    <connection from="1si" to="Sout" fromLane="0" toLane="0" tl="0" linkIndex="9" dir="r" state="o"/>
    <connection from="1si" to="Eout" fromLane="1" toLane="0" tl="0" linkIndex="10" dir="s" state="o"/>
    <connection from="1si" to="Nout" fromLane="1" toLane="0" tl="0" linkIndex="11" dir="l" state="o"/>
    <connection from="2si" to="Nout" fromLane="0" toLane="0" tl="0" linkIndex="3" dir="r" state="o"/>
    <connection from="2si" to="Wout" fromLane="0" toLane="0" tl="0" linkIndex="4" dir="s" state="o"/>
    <connection from="2si" to="Sout" fromLane="1" toLane="0" tl="0" linkIndex="5" dir="l" state="o"/>
    <connection from="3si" to="Eout" fromLane="0" toLane="0" tl="0" linkIndex="6" dir="r" state="O"/>
    <connection from="3si" to="Nout" fromLane="0" toLane="0" tl="0" linkIndex="7" dir="s" state="O"/>
    <connection from="3si" to="Wout" fromLane="0" toLane="0" tl="0" linkIndex="8" dir="l" state="o"/>
    <connection from="4si" to="Wout" fromLane="0" toLane="0" tl="0" linkIndex="0" dir="r" state="O"/>
    <connection from="4si" to="Sout" fromLane="1" toLane="0" tl="0" linkIndex="1" dir="s" state="O"/>
    <connection from="4si" to="Eout" fromLane="2" toLane="0" tl="0" linkIndex="2" dir="l" state="o"/>
    <connection from="Ein" to="2si" fromLane="0" toLane="0" dir="s" state="M"/>
    <connection from="Ein" to="2si" fromLane="0" toLane="1" dir="s" state="M"/>
    <connection from="Eout" to="Ein" fromLane="0" toLane="0" dir="t" state="M"/>
    <connection from="Nin" to="4si" fromLane="0" toLane="0" dir="s" state="M"/>
    <connection from="Nin" to="4si" fromLane="0" toLane="1" dir="s" state="M"/>
    <connection from="Nin" to="4si" fromLane="0" toLane="2" dir="s" state="M"/>
    <connection from="Nout" to="Nin" fromLane="0" toLane="0" dir="t" state="M"/>
    <connection from="Sin" to="3si" fromLane="0" toLane="0" dir="s" state="M"/>
    <connection from="Sout" to="Sin" fromLane="0" toLane="0" dir="t" state="M"/>
    <connection from="Win" to="1si" fromLane="0" toLane="0" dir="s" state="M"/>
    <connection from="Win" to="1si" fromLane="0" toLane="1" dir="s" state="M"/>
    <connection from="Wout" to="Win" fromLane="0" toLane="0" dir="t" state="M"/>

</net>
