<?xml version="1.0" encoding="UTF-8"?>

<!-- generated on 2022-02-07 11:45:01 by Eclipse SUMO netedit Version v1_12_0+0293-22171d7ea39
-->

<additional xmlns:xsi="http://www.w3.org/2001/XMLSchema-instance" xsi:noNamespaceSchemaLocation="http://sumo.dlr.de/xsd/additional_file.xsd">
    <e2Detector id="E2_A" name="A" lane="gneE0_0" pos="5.00" length="5.00" freq="120.00" file="fileA.txt" vTypes="Type1 Type2 Type3">
        <param key="keyFinal1" value="value1"/>
        <param key="keyFinal2" value="value2"/>
        <param key="keyFinal3" value="value3"/>
    </e2Detector>
    <e2Detector id="E2_B" name="B" lane="gneE0_0" pos="15.00" length="5.00" freq="240.00" file="fileB.txt" vTypes="Type4 Type5 Type6" timeThreshold="3.49" speedThreshold="3.49" jamThreshold="3.49">
        <param key="keyFinal1" value="value1"/>
        <param key="keyFinal2" value="value2"/>
        <param key="keyFinal3" value="value3"/>
    </e2Detector>
</additional>
