<?xml version="1.0" encoding="UTF-8"?>

<!-- generated on 2022-10-20 13:28:11 by Eclipse SUMO netedit Version v1_14_1+1850-e79b6750563
-->

<routes xmlns:xsi="http://www.w3.org/2001/XMLSchema-instance" xsi:noNamespaceSchemaLocation="http://sumo.dlr.de/xsd/routes_file.xsd">
    <!-- Vehicles, persons and containers (sorted by depart) -->
    <container id="c_0" depart="0.00">
        <tranship from="gneE2" to="gneE5" departPos="0.00"/>
        <stop edge="gneE5" endPos="37.00" duration="60.00"/>
        <stop edge="gneE5" endPos="34.43" duration="60.00" until="0.00"/>
        <stop edge="gneE5" endPos="26.70" duration="60.00" until="30.20"/>
    </container>
</routes>
