<?xml version="1.0"?>

<!-- generated on 03/18/10 14:24:05 by SUMO duarouter Version dev-SVN-r8460
<configuration>

    <input>
        <net-file value="input_net.net.xml"/>
        <trip-defs value="input_trips.trips.xml"/>
    </input>

    <output>
        <output-file value="routes.rou.xml"/>
    </output>

</configuration>
-->

<routes>
   <vtype id="0" vclass="bus"/>
    <vehicle id="0" type="0" depart="0.00">
        <route edges="absBeg beg2left left left2end end absEnd"/>
    </vehicle>
</routes>
