<?xml version="1.0" encoding="UTF-8"?>

<!-- generated on 2023-06-29 14:40:43.867395 by routeSampler.py v1_17_0+1318-85f891f765f
<configuration>
    <route-files value="input_routes2.rou.xml"/>
    <turn-files value="input_turns.xml"/>
    <verbose value="True"/>
    <interval value="25"/>
    <total-count value="input"/>
</configuration>
-->

<routes xmlns:xsi="http://www.w3.org/2001/XMLSchema-instance" xsi:noNamespaceSchemaLocation="http://sumo.dlr.de/xsd/routes_file.xsd">
<!-- begin="0.0" end="25.0" -->
    <vehicle id="0_0" depart="0.86">
        <route edges="31.80.00 -31 -31.80.00 -23 -23.80.00 -11 -11.80.00 3 3.180.00 27 27.80.00 -27 -27.80.00"/>
    </vehicle>
    <vehicle id="0_1" depart="1.13">
        <route edges="144 144.121.42 -15 -15.180.00 3 3.180.00 -71 -55 -55.80.00"/>
    </vehicle>
    <vehicle id="0_2" depart="2.21">
        <route edges="144 144.121.42 -123 -123.121.42 -120 -120.180.00 120"/>
    </vehicle>
    <vehicle id="0_3" depart="3.05">
        <route edges="-11 -11.80.00 3 3.180.00 -3"/>
    </vehicle>
    <vehicle id="0_4" depart="4.62">
        <route edges="-43 -43.80.00 -27 -27.80.00 -3 -3.180.00 11 11.80.00 23 23.80.00 31 31.80.00 60 60.80.00 -60 -60.80.00"/>
    </vehicle>
    <vehicle id="0_5" depart="4.90">
        <route edges="-37 -37.80.00 31 31.80.00 64 64.80.00 -64"/>
    </vehicle>
    <vehicle id="0_6" depart="6.47">
        <route edges="23 23.80.00 31 31.80.00 60 60.80.00"/>
    </vehicle>
    <vehicle id="0_7" depart="6.78">
        <route edges="68 -45 -45.80.00 55 71"/>
    </vehicle>
    <vehicle id="0_8" depart="7.79">
        <route edges="15 15.180.00 -123 -123.121.42 -109 -109.80.00"/>
    </vehicle>
    <vehicle id="0_9" depart="8.13">
        <route edges="144 144.121.42 -123 -123.121.42 -120 -120.180.00 120"/>
    </vehicle>
    <vehicle id="0_10" depart="8.92">
        <route edges="15 15.180.00 -123 -123.121.42 -120 -120.180.00 -75 -75.121.42"/>
    </vehicle>
    <vehicle id="0_11" depart="9.72">
        <route edges="-131 -131.180.00 -109 -109.80.00 -11 -11.80.00 3 3.180.00 27 27.80.00 43 68 -45 -45.80.00"/>
    </vehicle>
    <vehicle id="0_12" depart="12.38">
        <route edges="-60 -60.80.00 -31 -31.80.00 -23 -23.80.00 -11 -11.80.00 3 3.180.00 -3 -3.180.00"/>
    </vehicle>
    <vehicle id="0_13" depart="13.00">
        <route edges="-11 -11.80.00 3 3.180.00 -3"/>
    </vehicle>
    <vehicle id="0_14" depart="13.67">
        <route edges="15 15.180.00 -123 -123.121.42 -109 -109.80.00"/>
    </vehicle>
    <vehicle id="0_15" depart="14.95">
        <route edges="131 131.180.00 144 144.121.42 -15 -15.180.00 3 3.180.00 -3 -3.180.00"/>
    </vehicle>
    <vehicle id="0_16" depart="16.56">
        <route edges="-37 -37.80.00 31 31.80.00 64 64.80.00 -64"/>
    </vehicle>
    <vehicle id="0_17" depart="19.38">
        <route edges="123 123.121.42 -123 -123.121.42 -109 -109.80.00 23 23.80.00 31 31.80.00 64 64.80.00"/>
    </vehicle>
    <vehicle id="0_18" depart="20.72">
        <route edges="31.80.00 -31 -31.80.00 -23 -23.80.00 -11 -11.80.00 3 3.180.00 27 27.80.00 -27 -27.80.00"/>
    </vehicle>
    <vehicle id="0_19" depart="22.37">
        <route edges="-123 -123.121.42 -109 -109.80.00 -11 -11.80.00 3 3.180.00 -71"/>
    </vehicle>
    <vehicle id="0_20" depart="22.73">
        <route edges="43 68 -45 -45.80.00 -27 -27.80.00 27 27.80.00 45"/>
    </vehicle>
    <vehicle id="0_21" depart="23.05">
        <route edges="15.180.00 -15 -15.180.00 3 3.180.00 27 27.80.00 -27"/>
    </vehicle>
    <vehicle id="0_22" depart="23.49">
        <route edges="15 15.180.00 -123 -123.121.42 -109 -109.80.00"/>
    </vehicle>
    <vehicle id="0_23" depart="24.24">
        <route edges="27 27.80.00 -27 -27.80.00 -3 -3.180.00 15 15.180.00 -144 -144.121.42 -131"/>
    </vehicle>
<!-- begin="25.0" end="50.0" -->
    <vehicle id="25_0" depart="25.79">
        <route edges="58 -37 -37.80.00 -23 -23.80.00 109 109.80.00 123"/>
    </vehicle>
    <vehicle id="25_1" depart="26.92">
        <route edges="-27 -27.80.00 27 27.80.00 43 68 -45"/>
    </vehicle>
    <vehicle id="25_2" depart="27.75">
        <route edges="23 23.80.00 31 31.80.00 60 60.80.00"/>
    </vehicle>
    <vehicle id="25_3" depart="29.03">
        <route edges="-131 -131.180.00 -109 -109.80.00 -11 -11.80.00 3 3.180.00 27"/>
    </vehicle>
    <vehicle id="25_4" depart="29.66">
        <route edges="-109.80.00 -11 -11.80.00 3 3.180.00 -3"/>
    </vehicle>
    <vehicle id="25_5" depart="30.70">
        <route edges="31.80.00 -31 -31.80.00 -23 -23.80.00 -11 -11.80.00 3 3.180.00 27 27.80.00 -27 -27.80.00"/>
    </vehicle>
    <vehicle id="25_6" depart="30.72">
        <route edges="144 144.121.42 -15 -15.180.00 3 3.180.00 -71 -55 -55.80.00"/>
    </vehicle>
    <vehicle id="25_7" depart="31.23">
        <route edges="15 15.180.00 -123 -123.121.42 -109 -109.80.00"/>
    </vehicle>
    <vehicle id="25_8" depart="32.24">
        <route edges="-37 -37.80.00 31 31.80.00 64 64.80.00 -64"/>
    </vehicle>
    <vehicle id="25_9" depart="32.86">
        <route edges="-27.80.00 -3 -3.180.00 11 11.80.00 23 23.80.00 31 31.80.00 60 60.80.00 75 75.121.42"/>
    </vehicle>
    <vehicle id="25_10" depart="32.95">
        <route edges="-27.80.00 -3 -3.180.00 11 11.80.00 23 23.80.00 31 31.80.00 60 60.80.00 75 75.121.42"/>
    </vehicle>
    <vehicle id="25_11" depart="35.26">
        <route edges="109.80.00 -109 -109.80.00 -11 -11.80.00 5"/>
    </vehicle>
    <vehicle id="25_12" depart="37.71">
        <route edges="-3.180.00 11 11.80.00 109 109.80.00 123"/>
    </vehicle>
    <vehicle id="25_13" depart="38.48">
        <route edges="-43 -43.80.00 -27 -27.80.00 -3 -3.180.00 11 11.80.00 23 23.80.00 31 31.80.00 60 60.80.00 -60 -60.80.00"/>
    </vehicle>
    <vehicle id="25_14" depart="40.84">
        <route edges="-27.80.00 -3 -3.180.00 11 11.80.00 23 23.80.00 31 31.80.00 60 60.80.00 75 75.121.42"/>
    </vehicle>
    <vehicle id="25_15" depart="40.91">
        <route edges="43 68 -45 -45.80.00 -27 -27.80.00 27 27.80.00 45"/>
    </vehicle>
    <vehicle id="25_16" depart="43.89">
        <route edges="-15 -15.180.00 11 11.80.00 23 23.80.00 31 31.80.00 60 60.80.00 75"/>
    </vehicle>
    <vehicle id="25_17" depart="45.09">
        <route edges="15 15.180.00 -123 -123.121.42 -109 -109.80.00"/>
    </vehicle>
    <vehicle id="25_18" depart="45.19">
        <route edges="45 -68 -43 -43.80.00 -27 -27.80.00 -3 -3.180.00 15 15.180.00"/>
    </vehicle>
    <vehicle id="25_19" depart="45.20">
        <route edges="-58 -58.121.42 -31 -31.80.00 -23 -23.80.00 -11 -11.80.00 3 3.180.00 27 27.80.00 43 68 -45 -45.80.00"/>
    </vehicle>
    <vehicle id="25_20" depart="46.79">
        <route edges="75 75.121.42 -64 -64.80.00 58 -37 -37.80.00"/>
    </vehicle>
    <vehicle id="25_21" depart="47.31">
        <route edges="43 68 -45 -45.80.00 -27 -27.80.00 27 27.80.00 45"/>
    </vehicle>
    <vehicle id="25_22" depart="47.40">
        <route edges="15 15.180.00 -123 -123.121.42 -109 -109.80.00"/>
    </vehicle>
    <vehicle id="25_23" depart="47.69">
        <route edges="58 -37 -37.80.00 -23 -23.80.00 109 109.80.00 123"/>
    </vehicle>
    <vehicle id="25_24" depart="48.24">
        <route edges="-58 -58.121.42 -31 -31.80.00 -23 -23.80.00 -11 -11.80.00 3 3.180.00 27 27.80.00 43 68 -45 -45.80.00"/>
    </vehicle>
</routes>
