<?xml version="1.0" encoding="UTF-8"?>

<!-- generated on Fri 08 Mar 2019 09:06:01 AM CET by Eclipse SUMO netedit Version v1_1_0+0435-678c69824b
<configuration xmlns:xsi="http://www.w3.org/2001/XMLSchema-instance" xsi:noNamespaceSchemaLocation="http://sumo.dlr.de/xsd/netconvertConfiguration.xsd">

    <input>
        <sumo-net-file value="net4.net.xml"/>
    </input>

    <output>
        <output-file value="net4.net.xml"/>
        <plain-output-prefix value="/home/kobo/dlr/debug/5254/input_plain"/>
    </output>

    <processing>
        <geometry.max-grade.fix value="false"/>
        <offset.disable-normalization value="true"/>
        <lefthand value="false"/>
    </processing>

    <junctions>
        <no-turnarounds value="true"/>
        <junctions.corner-detail value="5"/>
        <junctions.limit-turn-speed value="-1"/>
        <rectangular-lane-cut value="false"/>
    </junctions>

    <pedestrian>
        <walkingareas value="false"/>
    </pedestrian>

</configuration>
-->

<connections version="1.1" xmlns:xsi="http://www.w3.org/2001/XMLSchema-instance" xsi:noNamespaceSchemaLocation="http://sumo.dlr.de/xsd/connections_file.xsd">
    <connection from="CE" to="EC" fromLane="4" toLane="4"/>

    <connection from="CN" to="NC" fromLane="4" toLane="4"/>

    <connection from="CS" to="SC" fromLane="4" toLane="4"/>

    <connection from="CW" to="WC" fromLane="4" toLane="4"/>

    <connection from="EC" to="CN" fromLane="0" toLane="0"/>
    <connection from="EC" to="CN" fromLane="0" toLane="1"/>
    <connection from="EC" to="CN" fromLane="0" toLane="2"/>
    <connection from="EC" to="CW" fromLane="0" toLane="0"/>
    <connection from="EC" to="CW" fromLane="1" toLane="1"/>
    <connection from="EC" to="CW" fromLane="2" toLane="2"/>
    <connection from="EC" to="CW" fromLane="3" toLane="3"/>
    <connection from="EC" to="CS" fromLane="4" toLane="3"/>
    <connection from="EC" to="CE" fromLane="4" toLane="3"/>

    <connection from="NC" to="CW" fromLane="0" toLane="0"/>
    <connection from="NC" to="CW" fromLane="0" toLane="1"/>
    <connection from="NC" to="CW" fromLane="0" toLane="2"/>
    <connection from="NC" to="CS" fromLane="0" toLane="0"/>
    <connection from="NC" to="CS" fromLane="1" toLane="1"/>
    <connection from="NC" to="CS" fromLane="2" toLane="2"/>
    <connection from="NC" to="CS" fromLane="3" toLane="3"/>
    <connection from="NC" to="CE" fromLane="4" toLane="3"/>
    <connection from="NC" to="CN" fromLane="4" toLane="3"/>

    <connection from="SC" to="CE" fromLane="0" toLane="0"/>
    <connection from="SC" to="CE" fromLane="0" toLane="1"/>
    <connection from="SC" to="CE" fromLane="0" toLane="2"/>
    <connection from="SC" to="CN" fromLane="0" toLane="0"/>
    <connection from="SC" to="CN" fromLane="1" toLane="1"/>
    <connection from="SC" to="CN" fromLane="2" toLane="2"/>
    <connection from="SC" to="CN" fromLane="3" toLane="3"/>
    <connection from="SC" to="CW" fromLane="4" toLane="3"/>
    <connection from="SC" to="CS" fromLane="4" toLane="3"/>

    <connection from="WC" to="CS" fromLane="0" toLane="0"/>
    <connection from="WC" to="CS" fromLane="0" toLane="1"/>
    <connection from="WC" to="CS" fromLane="0" toLane="2"/>
    <connection from="WC" to="CE" fromLane="0" toLane="0"/>
    <connection from="WC" to="CE" fromLane="1" toLane="1"/>
    <connection from="WC" to="CE" fromLane="2" toLane="2"/>
    <connection from="WC" to="CE" fromLane="3" toLane="3"/>
    <connection from="WC" to="CN" fromLane="4" toLane="3"/>
    <connection from="WC" to="CW" fromLane="4" toLane="3"/>

</connections>
