<?xml version="1.0" encoding="iso-8859-1"?>

<configuration xmlns:xsi="http://www.w3.org/2001/XMLSchema-instance" xsi:noNamespaceSchemaLocation="http://sumo.sf.net/xsd/netconvertConfiguration.xsd">

    <input>
        <sumo-net-file value="" synonymes="s sumo-net"/>
        <node-files value="" synonymes="n nodes xml-node-files xml-nodes"/>
        <edge-files value="" synonymes="e edges xml-edge-files xml-edges"/>
        <connection-files value="" synonymes="connections x xml-connection-files xml-connections"/>
        <type-files value="" synonymes="t types xml-type-files xml-types"/>
        <shapefile-prefix value="" synonymes="arcview shapefile tiger"/>
        <dlr-navteq-prefix value="" synonymes="dlr-navteq elmar2"/>
        <osm-files value="" synonymes="osm"/>
        <opendrive-files value="" synonymes="opendrive"/>
        <visum-file value="" synonymes="visum"/>
        <vissim-file value="" synonymes="vissim"/>
        <robocup-dir value="" synonymes="robocup robocup-net"/>
        <matsim-files value="" synonymes="matsim"/>
    </input>

    <output>
        <output-file value="" synonymes="o output sumo-output"/>
        <plain-output-prefix value="" synonymes="plain-output"/>
        <map-output value="" synonymes="M"/>
        <matsim-output value=""/>
        <output.no-names value="false"/>
    </output>

    <projection>
        <simple-projection value="false" synonymes="proj.simple"/>
        <proj.scale value="0" synonymes="proj.shift"/>
        <proj.utm value="false"/>
        <proj.dhdn value="false"/>
        <proj value="!"/>
        <proj.inverse value="false"/>
    </projection>

    <tls_building>
        <tls.set value="" synonymes="explicite-tls"/>
        <tls.unset value="" synonymes="explicite-no-tls"/>
        <tls.guess value="false" synonymes="guess-tls"/>
        <tls.taz-nodes value="false" synonymes="tls-guess.district-nodes"/>
        <tls-guess.joining value="false"/>
        <tls.join value="false" synonymes="try-join-tls"/>
        <tls.green.time value="31" synonymes="traffic-light-green"/>
        <tls.yellow.min-decel value="3" synonymes="D min-decel"/>
        <tls.yellow.patch-small value="false" synonymes="patch-small-tyellow"/>
        <tls.yellow.time value="" synonymes="traffic-light-yellow"/>
        <tls.half-offset value="" synonymes="tl-logics.half-offset"/>
        <tls.quarter-offset value="" synonymes="tl-logics.quarter-offset"/>
    </tls_building>

    <ramp_guessing>
        <ramps.guess value="false" synonymes="guess-ramps"/>
        <ramps.max-ramp-speed value="-1" synonymes="ramp-guess.max-ramp-speed"/>
        <ramps.min-highway-speed value="21.9444" synonymes="ramp-guess.min-highway-speed"/>
        <ramps.ramp-length value="100" synonymes="ramp-guess.ramp-length"/>
        <ramps.set value="" synonymes="ramp-guess.explicite"/>
    </ramp_guessing>

    <edge_removal>
        <keep-edges.min-speed value="" synonymes="edges-min-speed"/>
        <remove-edges.explicit value="" synonymes="remove-edges"/>
        <keep-edges.explicit value="" synonymes="keep-edges"/>
        <keep-edges.input-file value=""/>
        <keep-edges.postload value="false"/>
        <keep-edges.in-boundary value=""/>
        <keep-edges.by-vclass value=""/>
        <remove-edges.by-vclass value=""/>
        <remove-edges.isolated value="false" synonymes="remove-isolated"/>
    </edge_removal>

    <unregulated_nodes>
        <keep-nodes-unregulated value="false" synonymes="keep-unregulated"/>
        <keep-nodes-unregulated.explicit value="" synonymes="keep-unregulated.explicit keep-unregulated.nodes"/>
        <keep-nodes-unregulated.district-nodes value="false" synonymes="keep-unregulated.district-nodes"/>
    </unregulated_nodes>

    <processing>
        <ignore-errors value="false" synonymes="dismiss-loading-errors"/>
        <lanes-from-capacity.norm value="1800" synonymes="capacity-norm"/>
        <speed-in-kmh value="false"/>
        <plain.keep-edge-shape value="false" synonymes="xml.keep-shape"/>
        <matsim.keep-length value="false"/>
        <matsim.lanes-from-capacity value="false"/>
        <shapefile.street-id value="" synonymes="arcview.street-id"/>
        <shapefile.from-id value="" synonymes="arcview.from-id"/>
        <shapefile.to-id value="" synonymes="arcview.to-id"/>
        <shapefile.type-id value="" synonymes="arcview.type-id"/>
        <shapefile.use-defaults-on-failure value="false" synonymes="arcview.use-defaults-on-failure"/>
        <shapefile.all-bidirectional value="false" synonymes="arcview.all-bidi shapefile.all-bidi"/>
        <shapefile.guess-projection value="false" synonymes="arcview.guess-projection"/>
        <vissim.join-distance value="5" synonymes="vissim.offset"/>
        <vissim.default-speed value="50"/>
        <vissim.speed-norm value="1"/>
        <vissim.report-unset-speeds value="false"/>
        <visum.use-type-priority value="false"/>
        <visum.use-type-laneno value="false"/>
        <visum.use-type-speed value="false"/>
        <visum.connector-speeds value="100"/>
        <visum.connectors-lane-number value="3" synonymes="visum.connector-laneno"/>
        <visum.no-connectors value="false"/>
        <visum.recompute-lane-number value="false" synonymes="visum.recompute-laneno"/>
        <visum.verbose-warnings value="false"/>
        <osm.skip-duplicates-check value="false"/>
        <no-internal-links value="false"/>
        <dismiss-vclasses value="false"/>
        <no-turnarounds value="false"/>
        <no-turnarounds.tls value="false" synonymes="no-tls-turnarounds"/>
        <geometry.split value="false" synonymes="split-geometry"/>
        <geometry.remove value="false" synonymes="R remove-geometry"/>
        <offset.disable-normalization value="false" synonymes="disable-normalize-node-positions"/>
        <offset.x value="0" synonymes="x-offset-to-apply"/>
        <offset.y value="0" synonymes="y-offset-to-apply"/>
        <flip-y-axis value="false" synonymes="flip-y"/>
        <roundabouts.guess value="false" synonymes="guess-roundabouts"/>
        <lefthand value="false"/>
        <junctions.join value="false"/>
        <junctions.join-dist value="15"/>
    </processing>

    <building_defaults>
        <default.lanenumber value="1" synonymes="L lanenumber"/>
        <default.speed value="13.9" synonymes="S speed"/>
        <default.priority value="-1" synonymes="P priority"/>
    </building_defaults>

    <report>
        <verbose value="false" synonymes="v"/>
        <print-options value="false" synonymes="p"/>
        <help value="false" synonymes="?"/>
        <version value="false" synonymes="V"/>
        <no-warnings value="false" synonymes="W suppress-warnings"/>
        <log value="" synonymes="l log-file"/>
        <message-log value=""/>
        <error-log value=""/>
    </report>

    <random_number>
        <random value="false" synonymes="abs-rand"/>
        <seed value="23423" synonymes="srand"/>
    </random_number>

</configuration>
