<?xml version="1.0" encoding="iso-8859-1"?>

<configuration xmlns:xsi="http://www.w3.org/2001/XMLSchema-instance" xsi:noNamespaceSchemaLocation="http://sumo.sf.net/xsd/netconvertConfiguration.xsd">

    <input>
        <sumo-net-file value="" synonymes="s sumo-net"/>
        <node-files value="" synonymes="n nodes xml-node-files xml-nodes"/>
        <edge-files value="" synonymes="e edges xml-edge-files xml-edges"/>
        <connection-files value="" synonymes="connections x xml-connection-files xml-connections"/>
        <type-files value="" synonymes="t types xml-type-files xml-types"/>
        <shapefile-prefix value="" synonymes="arcview shapefile tiger"/>
        <dlr-navteq-prefix value="" synonymes="dlr-navteq elmar2"/>
        <osm-files value="" synonymes="osm"/>
        <opendrive-files value="" synonymes="opendrive"/>
        <visum-file value="" synonymes="visum"/>
        <vissim-file value="" synonymes="vissim"/>
        <robocup-dir value="" synonymes="robocup robocup-net"/>
        <matsim-files value="" synonymes="matsim"/>
    </input>

    <output>
        <output-file value="net.net.xml" synonymes="o output"/>
        <plain-output value=""/>
        <map-output value="" synonymes="M"/>
        <output-format value="sumo"/>
    </output>

    <projection>
        <proj.simple value="false"/>
        <proj.shift value="0"/>
        <proj.utm value="false"/>
        <proj.dhdn value="false"/>
        <proj value="!"/>
        <proj.inverse value="false"/>
    </projection>

    <tls_building>
        <explicite-tls value=""/>
        <explicite-no-tls value=""/>
        <guess-tls value="false"/>
        <tls-guess.district-nodes value="false"/>
        <tls-guess.joining value="false"/>
        <try-join-tls value="false"/>
        <min-decel value="3" synonymes="D"/>
        <patch-small-tyellow value="false"/>
        <traffic-light-green value=""/>
        <traffic-light-yellow value=""/>
        <tl-logics.half-offset value=""/>
        <tl-logics.quarter-offset value=""/>
    </tls_building>

    <ramp_guessing>
        <guess-ramps value="false"/>
        <ramp-guess.max-ramp-speed value="-1"/>
        <ramp-guess.min-highway-speed value="21.9444"/>
        <ramp-guess.ramp-length value="100"/>
        <ramp-guess.explicite value=""/>
        <guess-obscure-ramps value="false"/>
        <obscure-ramps.add-ramp value="false"/>
        <obscure-ramps.min-highway-speed value="27.7778"/>
    </ramp_guessing>

    <edge_removal>
        <edges-min-speed value=""/>
        <remove-edges value=""/>
        <keep-edges value=""/>
        <keep-edges.input-file value=""/>
        <keep-edges.postload value="false"/>
        <keep-edges.in-boundary value=""/>
        <keep-edges.by-vclass value=""/>
        <remove-edges.by-vclass value=""/>
    </edge_removal>

    <unregulated_nodes>
        <keep-unregulated value="false"/>
        <keep-unregulated.nodes value=""/>
        <keep-unregulated.district-nodes value="false"/>
    </unregulated_nodes>

    <processing>
        <ignore-errors value="false" synonymes="dismiss-loading-errors"/>
        <lanes-from-capacity.norm value="1800" synonymes="capacity-norm"/>
        <speed-in-kmh value="false"/>
        <xml.keep-shape value="false"/>
        <matsim.keep-length value="false"/>
        <matsim.lanes-from-capacity value="false"/>
        <shapefile.street-id value="" synonymes="arcview.street-id"/>
        <shapefile.from-id value="" synonymes="arcview.from-id"/>
        <shapefile.to-id value="" synonymes="arcview.to-id"/>
        <shapefile.type-id value="" synonymes="arcview.type-id"/>
        <shapefile.use-defaults-on-failure value="false" synonymes="arcview.use-defaults-on-failure"/>
        <shapefile.all-bidirectional value="false" synonymes="arcview.all-bidi shapefile.all-bidi"/>
        <shapefile.guess-projection value="false" synonymes="arcview.guess-projection"/>
        <vissim.join-distance value="5" synonymes="vissim.offset"/>
        <vissim.default-speed value="50"/>
        <vissim.speed-norm value="1"/>
        <vissim.report-unset-speeds value="false"/>
        <visum.use-type-priority value="false"/>
        <visum.use-type-laneno value="false"/>
        <visum.use-type-speed value="false"/>
        <visum.connector-speeds value="100"/>
        <visum.connectors-lane-number value="3" synonymes="visum.connector-laneno"/>
        <visum.no-connectors value="false"/>
        <visum.recompute-lane-number value="false" synonymes="visum.recompute-laneno"/>
        <visum.verbose-warnings value="false"/>
        <osm.skip-duplicates-check value="false"/>
        <flip-y value="false"/>
        <dismiss-vclasses value="false"/>
        <remove-geometry value="false" synonymes="R"/>
        <remove-isolated value="false"/>
        <no-turnarounds value="false"/>
        <no-tls-turnarounds value="false"/>
        <no-internal-links value="false"/>
        <split-geometry value="false"/>
        <disable-normalize-node-positions value="false"/>
        <x-offset-to-apply value="0"/>
        <y-offset-to-apply value="0"/>
        <guess-roundabouts value="false"/>
        <lefthand value="false"/>
    </processing>

    <building_defaults>
        <type value="Unknown" synonymes="T"/>
        <lanenumber value="1" synonymes="L"/>
        <speed value="13.9" synonymes="S"/>
        <priority value="-1" synonymes="P"/>
    </building_defaults>

    <report>
        <verbose value="false" synonymes="v"/>
        <print-options value="false" synonymes="p"/>
        <help value="false" synonymes="?"/>
        <version value="false" synonymes="V"/>
        <suppress-warnings value="false" synonymes="W"/>
        <log-file value="" synonymes="l"/>
        <message-log value=""/>
        <error-log value=""/>
    </report>

    <random_number>
        <random value="false" synonymes="abs-rand"/>
        <seed value="23423" synonymes="srand"/>
    </random_number>

</configuration>
