<?xml version="1.0" encoding="UTF-8"?>

<!-- generated on 21.09.2017 12:58:42 by Netedit Version dev-SVN-r22743
<?xml version="1.0" encoding="UTF-8"?>

<configuration xmlns:xsi="http://www.w3.org/2001/XMLSchema-instance" xsi:noNamespaceSchemaLocation="http://sumo.dlr.de/xsd/netconvertConfiguration.xsd">

    <input>
        <sumo-net-file value="C:\Projects\SUMO_Trunk\tests\netedit\additionalElements\busstop\volatileRecomputing\input_net.net.xml"/>
    </input>

    <output>
        <output-file value="C:\Projects\SUMO_Trunk\tests\netedit\additionalElements\busstop\volatileRecomputing\input_net.net.xml"/>
        <plain-output-prefix value=""/>
    </output>

    <processing>
        <no-turnarounds value="true"/>
        <offset.disable-normalization value="true"/>
        <lefthand value="false"/>
        <junctions.corner-detail value="0"/>
        <rectangular-lane-cut value="false"/>
        <walkingareas value="false"/>
    </processing>

</configuration>
-->

<net version="0.27" xmlns:xsi="http://www.w3.org/2001/XMLSchema-instance" xsi:noNamespaceSchemaLocation="http://sumo.dlr.de/xsd/net_file.xsd">

    <location netOffset="25.00,0.00" convBoundary="0.00,0.00,50.00,20.00" origBoundary="-10000000000.00,-10000000000.00,10000000000.00,10000000000.00" projParameter="!"/>

    <edge id=":gneJ0_0" function="internal">
        <lane id=":gneJ0_0_0" index="0" speed="13.89" length="4.82" shape="0.00,1.65 -1.24,0.83 -1.65,0.00 -1.24,-0.83 0.00,-1.65"/>
    </edge>
    <edge id=":gneJ1_0" function="internal">
        <lane id=":gneJ1_0_0" index="0" speed="13.89" length="4.82" shape="50.00,-1.65 51.24,-0.83 51.65,0.00 51.24,0.83 50.00,1.65"/>
    </edge>

    <edge id="gneE0" from="gneJ0" to="gneJ1" priority="1">
        <lane id="gneE0_0" index="0" speed="13.89" length="50.00" shape="0.00,-1.65 50.00,-1.65"/>
    </edge>
    <edge id="gneE1" from="gneJ1" to="gneJ0" priority="1">
        <lane id="gneE1_0" index="0" speed="13.89" length="50.00" shape="50.00,1.65 0.00,1.65"/>
    </edge>
    <edge id="gneE2" from="gneJ2" to="gneJ3" priority="1">
        <lane id="gneE2_0" index="0" speed="13.89" length="50.00" shape="50.00,34.85 0.00,34.85"/>
        <lane id="gneE2_1" index="1" speed="13.89" length="50.00" shape="50.00,31.55 0.00,31.55"/>
        <lane id="gneE2_2" index="2" speed="13.89" length="50.00" shape="50.00,28.25 0.00,28.25"/>
        <lane id="gneE2_3" index="3" speed="13.89" length="50.00" shape="50.00,24.95 0.00,24.95"/>
        <lane id="gneE2_4" index="4" speed="13.89" length="50.00" shape="50.00,21.65 0.00,21.65"/>
    </edge>
    <edge id="gneE4" from="gneJ3" to="gneJ2" priority="1">
        <lane id="gneE4_0" index="0" speed="60.00" length="50.00" shape="0.00,18.35 50.00,18.35"/>
    </edge>

    <tlLogic id="gneJ0" type="static" programID="0" offset="0">
        <phase duration="87" state="G"/>
        <phase duration="3" state="y"/>
    </tlLogic>
    <tlLogic id="gneJ1" type="static" programID="0" offset="0">
        <phase duration="87" state="G"/>
        <phase duration="3" state="y"/>
    </tlLogic>

    <junction id="gneJ0" type="traffic_light" x="0.00" y="0.00" incLanes="gneE1_0" intLanes=":gneJ0_0_0" shape="0.00,-0.05 0.00,3.25 0.00,0.05">
        <request index="0" response="0" foes="0" cont="0"/>
    </junction>
    <junction id="gneJ1" type="traffic_light" x="50.00" y="0.00" incLanes="gneE0_0" intLanes=":gneJ1_0_0" shape="50.00,0.05 50.00,-3.25 50.00,-0.05">
        <request index="0" response="0" foes="0" cont="0"/>
    </junction>
    <junction id="gneJ2" type="dead_end" x="50.00" y="20.00" incLanes="gneE4_0" intLanes="" shape="50.00,20.05 50.00,16.75 50.00,19.95"/>
    <junction id="gneJ3" type="dead_end" x="0.00" y="20.00" incLanes="gneE2_0 gneE2_1 gneE2_2 gneE2_3 gneE2_4" intLanes="" shape="0.00,19.95 0.00,36.45 0.00,20.05"/>

    <connection from="gneE0" to="gneE1" fromLane="0" toLane="0" via=":gneJ1_0_0" tl="gneJ1" linkIndex="0" dir="t" state="o"/>
    <connection from="gneE1" to="gneE0" fromLane="0" toLane="0" via=":gneJ0_0_0" tl="gneJ0" linkIndex="0" dir="t" state="o"/>

    <connection from=":gneJ0_0" to="gneE0" fromLane="0" toLane="0" dir="s" state="M"/>
    <connection from=":gneJ1_0" to="gneE1" fromLane="0" toLane="0" dir="s" state="M"/>

</net>
