<?xml version="1.0" encoding="UTF-8"?>

<!-- generated on 2023-02-07 16:20:18 by Eclipse SUMO netedit Version v1_16_0+0024-1134bf4b789
-->

<additional xmlns:xsi="http://www.w3.org/2001/XMLSchema-instance" xsi:noNamespaceSchemaLocation="http://sumo.dlr.de/xsd/additional_file.xsd">
    <!-- StoppingPlaces -->
    <parkingArea id="pa_0" lane="center1_1" startPos="23.00" endPos="33.00">
        <space x="-2.00" y="-12.00"/>
    </parkingArea>
    <parkingArea id="pa_1" lane="center1_1" startPos="15.00" endPos="25.00">
        <space x="-18.00" y="-12.00"/>
    </parkingArea>
</additional>
