<net>

   <edges no="12">beg beg2left end fmax fmin left left2end middle1 middle2 rend tmax tmin</edges>
   <node_count>10</node_count>


   <edge id="beg" Length="502.75" Speed="27.80" Name="beg" NoLanes="2" XFrom="0.00" YFrom="20.00" XTo="500.00" YTo="20.00" From="absBeg" To="beg" Priority="1" Angle="270.00" Type="" function="normal">
      <lanes>
         <lane id="beg_0" depart="1" maxspeed="27.80" length="502.75" changeurge="0">-5.25,14.75 499.25,14.75</lane>
         <lane id="beg_1" depart="0" maxspeed="27.80" length="502.75" changeurge="0">-1.75,18.25 499.25,18.25</lane>
      </lanes>
      <cedge id="middle1" via=":beg">beg_0</cedge>
      <cedge id="beg2left" via=":beg">beg_1</cedge>
   </edge>

   <edge id="beg2left" Length="496.00" Speed="27.80" Name="beg2left" NoLanes="1" XFrom="500.00" YFrom="20.00" XTo="500.00" YTo="520.00" From="beg" To="begleft" Priority="1" Angle="180.00" Type="" function="normal">
      <lanes>
         <lane id="beg2left_0" depart="1" maxspeed="27.80" length="496.00" changeurge="0">501.75,20.75 501.75,516.75</lane>
      </lanes>
      <cedge id="left" via=":begleft">beg2left_0</cedge>
   </edge>

   <edge id="end" Length="498.25" Speed="27.80" Name="end" NoLanes="2" XFrom="1500.00" YFrom="20.00" XTo="2000.00" YTo="20.00" From="end" To="absEnd" Priority="1" Angle="270.00" Type="" function="normal">
      <lanes>
         <lane id="end_0" depart="1" maxspeed="27.80" length="498.25" changeurge="0">1500.75,14.75 1999.00,14.75</lane>
         <lane id="end_1" depart="0" maxspeed="27.80" length="498.25" changeurge="0">1500.75,18.25 1999.00,18.25</lane>
      </lanes>
      <cedge id="rend" via=":absEnd">end_0 end_1</cedge>
   </edge>

   <edge id="fmax" Length="20.25" Speed="13.90" Name="fmax" NoLanes="1" XFrom="1000.00" YFrom="40.00" XTo="1000.00" YTo="20.00" From="midmax" To="mid" Priority="1" Angle="0.00" Type="" function="normal">
      <lanes>
         <lane id="fmax_0" depart="1" maxspeed="13.90" length="20.25" changeurge="0">998.25,41.00 998.25,20.75</lane>
      </lanes>
      <cedge id="tmin" via=":mid">fmax_0</cedge>
      <cedge id="middle2" via=":mid">fmax_0</cedge>
   </edge>

   <edge id="fmin" Length="16.75" Speed="13.90" Name="fmin" NoLanes="1" XFrom="1000.00" YFrom="0.00" XTo="1000.00" YTo="20.00" From="midmin" To="mid" Priority="1" Angle="180.00" Type="" function="normal">
      <lanes>
         <lane id="fmin_0" depart="1" maxspeed="13.90" length="16.75" changeurge="0">1001.75,-1.00 1001.75,15.75</lane>
      </lanes>
      <cedge id="middle2" via=":mid">fmin_0</cedge>
      <cedge id="tmax" via=":mid">fmin_0</cedge>
   </edge>

   <edge id="left" Length="993.50" Speed="27.80" Name="left" NoLanes="1" XFrom="500.00" YFrom="520.00" XTo="1500.00" YTo="520.00" From="begleft" To="endleft" Priority="1" Angle="270.00" Type="" function="normal">
      <lanes>
         <lane id="left_0" depart="1" maxspeed="27.80" length="993.50" changeurge="0">503.25,518.25 1496.75,518.25</lane>
      </lanes>
      <cedge id="left2end" via=":endleft">left_0</cedge>
   </edge>

   <edge id="left2end" Length="496.00" Speed="27.80" Name="left2end" NoLanes="1" XFrom="1500.00" YFrom="520.00" XTo="1500.00" YTo="20.00" From="endleft" To="end" Priority="1" Angle="0.00" Type="" function="normal">
      <lanes>
         <lane id="left2end_0" depart="1" maxspeed="27.80" length="496.00" changeurge="0">1498.25,516.75 1498.25,20.75</lane>
      </lanes>
      <cedge id="end" via=":end">left2end_0</cedge>
   </edge>

   <edge id="middle1" Length="491.50" Speed="13.90" Name="middle1" NoLanes="1" XFrom="500.00" YFrom="20.00" XTo="1000.00" YTo="20.00" From="beg" To="mid" Priority="1" Angle="270.00" Type="" function="normal">
      <lanes>
         <lane id="middle1_0" depart="1" maxspeed="13.90" length="491.50" changeurge="0">504.25,18.25 995.75,18.25</lane>
      </lanes>
      <cedge id="tmin" via=":mid">middle1_0</cedge>
      <cedge id="middle2" via=":mid">middle1_0</cedge>
      <cedge id="tmax" via=":mid">middle1_0</cedge>
   </edge>

   <edge id="middle2" Length="491.50" Speed="13.90" Name="middle2" NoLanes="1" XFrom="1000.00" YFrom="20.00" XTo="1500.00" YTo="20.00" From="mid" To="end" Priority="1" Angle="270.00" Type="" function="normal">
      <lanes>
         <lane id="middle2_0" depart="1" maxspeed="13.90" length="491.50" changeurge="0">1004.25,18.25 1495.75,18.25</lane>
      </lanes>
      <cedge id="end" via=":end">middle2_0</cedge>
   </edge>

   <edge id="rend" Length="495.50" Speed="27.80" Name="rend" NoLanes="2" XFrom="2000.00" YFrom="20.00" XTo="2500.00" YTo="20.00" From="absEnd" To="rabsEnd" Priority="1" Angle="270.00" Type="" function="normal">
      <lanes>
         <lane id="rend_0" depart="1" maxspeed="27.80" length="495.50" changeurge="0">2001.00,14.75 2494.75,14.75</lane>
         <lane id="rend_1" depart="0" maxspeed="27.80" length="495.50" changeurge="0">2001.00,18.25 2498.25,18.25</lane>
      </lanes>
   </edge>

   <edge id="tmax" Length="20.25" Speed="13.90" Name="tmax" NoLanes="1" XFrom="1000.00" YFrom="20.00" XTo="1000.00" YTo="40.00" From="mid" To="midmax" Priority="1" Angle="180.00" Type="" function="normal">
      <lanes>
         <lane id="tmax_0" depart="1" maxspeed="13.90" length="20.25" changeurge="0">1001.75,20.75 1001.75,41.00</lane>
      </lanes>
   </edge>

   <edge id="tmin" Length="16.75" Speed="13.90" Name="tmin" NoLanes="1" XFrom="1000.00" YFrom="20.00" XTo="1000.00" YTo="0.00" From="mid" To="midmin" Priority="1" Angle="0.00" Type="" function="normal">
      <lanes>
         <lane id="tmin_0" depart="1" maxspeed="13.90" length="16.75" changeurge="0">998.25,15.75 998.25,-1.00</lane>
      </lanes>
   </edge>


   <row-logic>
      <key>absEnd</key>
      <requestsize>2</requestsize>
      <lanenumber>2</lanenumber>
      <logic>
         <logicitem request="0" response="00" foes="00"/>
         <logicitem request="1" response="00" foes="00"/>
      </logic>
   </row-logic>

   <row-logic>
      <key>beg</key>
      <requestsize>2</requestsize>
      <lanenumber>2</lanenumber>
      <logic>
         <logicitem request="0" response="00" foes="00"/>
         <logicitem request="1" response="00" foes="00"/>
      </logic>
   </row-logic>

   <row-logic>
      <key>begleft</key>
      <requestsize>1</requestsize>
      <lanenumber>1</lanenumber>
      <logic>
         <logicitem request="0" response="0" foes="0"/>
      </logic>
   </row-logic>

   <row-logic>
      <key>end</key>
      <requestsize>2</requestsize>
      <lanenumber>2</lanenumber>
      <logic>
         <logicitem request="0" response="00" foes="10"/>
         <logicitem request="1" response="00" foes="01"/>
      </logic>
   </row-logic>

   <row-logic>
      <key>endleft</key>
      <requestsize>1</requestsize>
      <lanenumber>1</lanenumber>
      <logic>
         <logicitem request="0" response="0" foes="0"/>
      </logic>
   </row-logic>

   <row-logic>
      <key>mid</key>
      <requestsize>7</requestsize>
      <lanenumber>3</lanenumber>
      <logic>
         <logicitem request="0" response="1110000" foes="1110000"/>
         <logicitem request="1" response="1100000" foes="1101100"/>
         <logicitem request="2" response="0000010" foes="0100010"/>
         <logicitem request="3" response="0000010" foes="1100010"/>
         <logicitem request="4" response="0000000" foes="0000001"/>
         <logicitem request="5" response="0001100" foes="0001111"/>
         <logicitem request="6" response="0001000" foes="0001011"/>
      </logic>
   </row-logic>

   <row-logic>
      <key>midmax</key>
      <requestsize>1</requestsize>
      <lanenumber>1</lanenumber>
      <logic>
         <logicitem request="0" response="1" foes="0"/>
      </logic>
   </row-logic>

   <row-logic>
      <key>midmin</key>
      <requestsize>1</requestsize>
      <lanenumber>1</lanenumber>
      <logic>
         <logicitem request="0" response="1" foes="0"/>
      </logic>
   </row-logic>


   <tl-logic type="static">
      <key>mid</key>
      <logicno>0</logicno>
      <phaseno>6</phaseno>
      <offset>0</offset>
      <inclanes>fmax_0 fmin_0 middle1_0</inclanes>
      <phase duration="20" phase="0001111" brake="1111100" yellow="0000000"/>
      <phase duration="4" phase="0000010" brake="1111101" yellow="0001101"/>
      <phase duration="3" phase="0000010" brake="1111101" yellow="0000000"/>
      <phase duration="4" phase="0000000" brake="1111111" yellow="0000010"/>
      <phase duration="20" phase="1110000" brake="0001111" yellow="0000000"/>
      <phase duration="4" phase="0000000" brake="1111111" yellow="1110000"/>
   </tl-logic>


   <junction id="absBeg" type="DEAD_END" x="0.00" y="20.00">
      <inclanes></inclanes>
      <shape>-0.25,19.75 -6.75,13.25</shape>
   </junction>

   <junction id="absEnd" type="priority" x="2000.00" y="20.00">
      <inclanes>end_0 end_1</inclanes>
      <shape>2001.00,13.25 2001.00,19.75 1999.00,19.75 1999.00,13.25 2001.00,13.25 2001.00,13.25</shape>
   </junction>

   <junction id="beg" type="priority" x="500.00" y="20.00">
      <inclanes>beg_0 beg_1</inclanes>
      <shape>499.25,13.25 504.25,16.75 504.25,19.75 503.25,20.75 500.25,20.75 499.25,19.75 499.25,13.25 499.25,13.25</shape>
   </junction>

   <junction id="begleft" type="priority" x="500.00" y="520.00">
      <inclanes>beg2left_0</inclanes>
      <shape>503.25,516.75 503.25,519.75 500.25,516.75 503.25,516.75 503.25,516.75</shape>
   </junction>

   <junction id="end" type="priority" x="1500.00" y="20.00">
      <inclanes>left2end_0 middle2_0</inclanes>
      <shape>1500.75,13.25 1500.75,19.75 1499.75,20.75 1496.75,20.75 1495.75,19.75 1495.75,16.75 1500.75,13.25 1500.75,13.25</shape>
   </junction>

   <junction id="endleft" type="priority" x="1500.00" y="520.00">
      <inclanes>left_0</inclanes>
      <shape>1499.75,516.75 1496.75,519.75 1496.75,516.75 1499.75,516.75 1499.75,516.75</shape>
   </junction>

   <junction id="mid" type="priority" x="1000.00" y="20.00">
      <inclanes>fmax_0 fmin_0 middle1_0</inclanes>
      <shape>1003.25,15.75 1004.25,16.75 1004.25,19.75 1003.25,20.75 996.75,20.75 995.75,19.75 995.75,16.75 996.75,15.75 1003.25,15.75 1003.25,15.75</shape>
   </junction>

   <junction id="midmax" type="priority" x="1000.00" y="40.00">
      <inclanes>tmax_0</inclanes>
      <shape>1003.25,41.00 1000.25,41.00 999.75,41.00 996.75,41.00</shape>
   </junction>

   <junction id="midmin" type="priority" x="1000.00" y="0.00">
      <inclanes>tmin_0</inclanes>
      <shape>996.75,-1.00 999.75,-1.00 1000.25,-1.00 1003.25,-1.00</shape>
   </junction>

   <junction id="rabsEnd" type="DEAD_END" x="2500.00" y="20.00">
      <inclanes>rend_0 rend_1</inclanes>
      <shape>2493.25,13.25 2499.75,19.75</shape>
   </junction>


   <succ edge="beg" lane="beg_0" junction="beg">
      <succlane lane="middle1_0" via=":beg_0_0" yield="0" dir="s" state="M"/>
   </succ>

   <succ edge="beg" lane="beg_1" junction="beg">
      <succlane lane="beg2left_0" via=":beg_1_0" yield="0" dir="l" state="M"/>
   </succ>

   <succ edge="beg2left" lane="beg2left_0" junction="begleft">
      <succlane lane="left_0" via=":begleft_0_0" yield="0" dir="r" state="M"/>
   </succ>

   <succ edge="end" lane="end_0" junction="absEnd">
      <succlane lane="rend_0" via=":absEnd_0_0" yield="0" dir="s" state="M"/>
   </succ>

   <succ edge="end" lane="end_1" junction="absEnd">
      <succlane lane="rend_1" via=":absEnd_1_0" yield="0" dir="s" state="M"/>
   </succ>

   <succ edge="fmax" lane="fmax_0" junction="mid">
      <succlane lane="tmin_0" via=":mid_0_0" tl="mid" linkno="0" yield="1" dir="s" state="t"/>
      <succlane lane="middle2_0" via=":mid_1_0" tl="mid" linkno="1" yield="1" dir="l" state="t"/>
   </succ>

   <succ edge="fmin" lane="fmin_0" junction="mid">
      <succlane lane="middle2_0" via=":mid_2_0" tl="mid" linkno="2" yield="1" dir="r" state="t"/>
      <succlane lane="tmax_0" via=":mid_3_0" tl="mid" linkno="3" yield="1" dir="s" state="t"/>
   </succ>

   <succ edge="left" lane="left_0" junction="endleft">
      <succlane lane="left2end_0" via=":endleft_0_0" yield="0" dir="r" state="M"/>
   </succ>

   <succ edge="left2end" lane="left2end_0" junction="end">
      <succlane lane="end_1" via=":end_0_0" yield="0" dir="l" state="M"/>
   </succ>

   <succ edge="middle1" lane="middle1_0" junction="mid">
      <succlane lane="tmin_0" via=":mid_4_0" tl="mid" linkno="4" yield="1" dir="r" state="t"/>
      <succlane lane="middle2_0" via=":mid_5_0" tl="mid" linkno="5" yield="1" dir="s" state="t"/>
      <succlane lane="tmax_0" via=":mid_6_0" tl="mid" linkno="6" yield="1" dir="l" state="t"/>
   </succ>

   <succ edge="middle2" lane="middle2_0" junction="end">
      <succlane lane="end_0" via=":end_1_0" yield="0" dir="s" state="M"/>
   </succ>

   <succ edge="rend" lane="rend_0" junction="rabsEnd">
      <succlane lane="SUMO_NO_DESTINATION" yield="1" dir="s" state="O"/>
   </succ>

   <succ edge="rend" lane="rend_1" junction="rabsEnd">
      <succlane lane="SUMO_NO_DESTINATION" yield="1" dir="s" state="O"/>
   </succ>

   <succ edge="tmax" lane="tmax_0" junction="midmax">
      <succlane lane="SUMO_NO_DESTINATION" yield="1" dir="s" state="O"/>
   </succ>

   <succ edge="tmin" lane="tmin_0" junction="midmin">
      <succlane lane="SUMO_NO_DESTINATION" yield="1" dir="s" state="O"/>
   </succ>


   <edgepos id="beg" from="absBeg" to="beg" lane="0" function="normal"/>
   <edgepos id="beg" from="absBeg" to="beg" lane="1" function="normal"/>
   <edgepos id="beg2left" from="beg" to="begleft" lane="0" function="normal"/>
   <edgepos id="end" from="end" to="absEnd" lane="0" function="normal"/>
   <edgepos id="end" from="end" to="absEnd" lane="1" function="normal"/>
   <edgepos id="fmax" from="midmax" to="mid" lane="0" function="normal"/>
   <edgepos id="fmin" from="midmin" to="mid" lane="0" function="normal"/>
   <edgepos id="left" from="begleft" to="endleft" lane="0" function="normal"/>
   <edgepos id="left2end" from="endleft" to="end" lane="0" function="normal"/>
   <edgepos id="middle1" from="beg" to="mid" lane="0" function="normal"/>
   <edgepos id="middle2" from="mid" to="end" lane="0" function="normal"/>
   <edgepos id="rend" from="absEnd" to="rabsEnd" lane="0" function="normal"/>
   <edgepos id="rend" from="absEnd" to="rabsEnd" lane="1" function="normal"/>
   <edgepos id="tmax" from="mid" to="midmax" lane="0" function="normal"/>
   <edgepos id="tmin" from="mid" to="midmin" lane="0" function="normal"/>

</net>
