<?xml version="1.0" encoding="UTF-8"?>

<!-- generated on 2022-03-21 10:33:48 by Eclipse SUMO netedit Version v1_12_0+1543-06f48ec75fb
-->

<routes xmlns:xsi="http://www.w3.org/2001/XMLSchema-instance" xsi:noNamespaceSchemaLocation="http://sumo.dlr.de/xsd/routes_file.xsd">
    <!-- Routes -->
    <route id="r_0" edges="gneE2 gneE4 gneE5"/>
    <!-- Vehicles, persons and containers (sorted by depart) -->
    <flow id="f_0" begin="0.00" route="r_0" end="3600.00" number="1800"/>
    <flow id="f_1" begin="0.00" route="r_0" end="20.50" number="1800"/>
    <flow id="f_2" begin="0.00" route="r_0" end="22.00" number="51"/>
</routes>
