<?xml version="1.0" encoding="UTF-8"?>

<!-- generated on 07.09.2020 11:47:17 by Eclipse SUMO netedit Version v1_6_0+1998-06f827c167
<configuration xmlns:xsi="http://www.w3.org/2001/XMLSchema-instance" xsi:noNamespaceSchemaLocation="http://sumo.dlr.de/xsd/netconvertConfiguration.xsd">

    <input>
        <sumo-net-file value="C:\Users\alva_pa\.texttest\tmp\netedit.gui.07Sep114526.9084\netedit.gui\demandElements\flow_embedded\create\vType\input_net.net.xml"/>
    </input>

    <output>
        <output-file value="C:\Users\alva_pa\.texttest\tmp\netedit.gui.07Sep114526.9084\netedit.gui\demandElements\flow_embedded\create\vType\net.net.xml"/>
    </output>

    <processing>
        <geometry.min-radius.fix.railways value="false"/>
        <geometry.max-grade.fix value="false"/>
        <offset.disable-normalization value="true"/>
        <lefthand value="false"/>
    </processing>

    <junctions>
        <no-turnarounds value="true"/>
        <junctions.corner-detail value="5"/>
        <junctions.limit-turn-speed value="5.5"/>
        <rectangular-lane-cut value="false"/>
    </junctions>

    <pedestrian>
        <walkingareas value="false"/>
    </pedestrian>

    <netedit>
        <additional-files value="C:\Users\alva_pa\.texttest\tmp\netedit.gui.07Sep114526.9084\netedit.gui\demandElements\flow_embedded\create\vType\additionals.xml"/>
        <additionals-output value="C:\Users\alva_pa\.texttest\tmp\netedit.gui.07Sep114526.9084\netedit.gui\demandElements\flow_embedded\create\vType\additionals.xml"/>
        <route-files value="C:\Users\alva_pa\.texttest\tmp\netedit.gui.07Sep114526.9084\netedit.gui\demandElements\flow_embedded\create\vType\routes.xml"/>
        <demandelements-output value="C:\Users\alva_pa\.texttest\tmp\netedit.gui.07Sep114526.9084\netedit.gui\demandElements\flow_embedded\create\vType\routes.xml"/>
        <data-files value="C:\Users\alva_pa\.texttest\tmp\netedit.gui.07Sep114526.9084\netedit.gui\demandElements\flow_embedded\create\vType\datas.xml"/>
        <dataelements-output value="C:\Users\alva_pa\.texttest\tmp\netedit.gui.07Sep114526.9084\netedit.gui\demandElements\flow_embedded\create\vType\datas.xml"/>
    </netedit>

    <visualisation>
        <gui-settings-file value="C:\Users\alva_pa\.texttest\tmp\netedit.gui.07Sep114526.9084\netedit.gui\demandElements\flow_embedded\create\vType\gui-settings.xml"/>
        <window-size value="700,500"/>
        <window-pos value="50,50"/>
        <gui-testing value="true"/>
        <gui-testing-debug value="true"/>
        <gui-testing-debug-gl value="true"/>
        <gui-testing.setting-output value="C:\Users\alva_pa\.texttest\tmp\netedit.gui.07Sep114526.9084\netedit.gui\demandElements\flow_embedded\create\vType\guisettingsoutput.xml"/>
    </visualisation>

    <report>
        <no-warnings value="true"/>
        <aggregate-warnings value="5"/>
        <error-log value="C:\Users\alva_pa\.texttest\tmp\netedit.gui.07Sep114526.9084\netedit.gui\demandElements\flow_embedded\create\vType\log.txt"/>
    </report>

</configuration>
-->

<routes xmlns:xsi="http://www.w3.org/2001/XMLSchema-instance" xsi:noNamespaceSchemaLocation="http://sumo.dlr.de/xsd/routes_file.xsd">
    <vType id="custom_vType" length="20.00" vClass="bus" width="5.00" height="12.00" color="cyan"/>
    <flow id="flow_0" type="custom_vType" begin="0.00" end="3600.00" number="1800">
        <route edges="gneE2 gneE4 gneE5" color="cyan"/>
    </flow>
</routes>
