<?xml version="1.0" encoding="UTF-8"?>

<!-- generated on 2022-01-21 13:45:40 by Eclipse SUMO netedit Version v1_11_0+1361-2e2855ec72d
<configuration xmlns:xsi="http://www.w3.org/2001/XMLSchema-instance" xsi:noNamespaceSchemaLocation="http://sumo.dlr.de/xsd/netconvertConfiguration.xsd">

    <input>
        <sumo-net-file value="C:\Users\palva\.texttest\tmp\netedit.gui.21Jan120011.13544\netedit.gui\additionalElements\e3detector\inspect_selection\vtypes\input_net.net.xml"/>
    </input>

    <output>
        <output-file value="C:\Users\palva\.texttest\tmp\netedit.gui.21Jan120011.13544\netedit.gui\additionalElements\e3detector\inspect_selection\vtypes\net.net.xml"/>
    </output>

    <processing>
        <geometry.min-radius.fix.railways value="false"/>
        <geometry.max-grade.fix value="false"/>
        <offset.disable-normalization value="true"/>
        <lefthand value="false"/>
    </processing>

    <junctions>
        <no-turnarounds value="true"/>
        <junctions.corner-detail value="5"/>
        <junctions.limit-turn-speed value="5.5"/>
        <rectangular-lane-cut value="false"/>
    </junctions>

    <pedestrian>
        <walkingareas value="false"/>
    </pedestrian>

    <netedit>
        <additional-files value="C:\Users\palva\.texttest\tmp\netedit.gui.21Jan120011.13544\netedit.gui\additionalElements\e3detector\inspect_selection\vtypes\additionals.xml"/>
        <additionals-output value="C:\Users\palva\.texttest\tmp\netedit.gui.21Jan120011.13544\netedit.gui\additionalElements\e3detector\inspect_selection\vtypes\additionals.xml"/>
        <route-files value="C:\Users\palva\.texttest\tmp\netedit.gui.21Jan120011.13544\netedit.gui\additionalElements\e3detector\inspect_selection\vtypes\routes.xml"/>
        <demandelements-output value="C:\Users\palva\.texttest\tmp\netedit.gui.21Jan120011.13544\netedit.gui\additionalElements\e3detector\inspect_selection\vtypes\routes.xml"/>
        <data-files value="C:\Users\palva\.texttest\tmp\netedit.gui.21Jan120011.13544\netedit.gui\additionalElements\e3detector\inspect_selection\vtypes\datas.xml"/>
        <dataelements-output value="C:\Users\palva\.texttest\tmp\netedit.gui.21Jan120011.13544\netedit.gui\additionalElements\e3detector\inspect_selection\vtypes\datas.xml"/>
    </netedit>

    <visualisation>
        <gui-settings-file value="C:\Users\palva\.texttest\tmp\netedit.gui.21Jan120011.13544\netedit.gui\additionalElements\e3detector\inspect_selection\vtypes\gui-settings.xml"/>
        <window-size value="936,697"/>
        <window-pos value="50,50"/>
        <gui-testing value="true"/>
        <gui-testing-debug value="true"/>
        <gui-testing.setting-output value="C:\Users\palva\.texttest\tmp\netedit.gui.21Jan120011.13544\netedit.gui\additionalElements\e3detector\inspect_selection\vtypes\guisettingsoutput.xml"/>
    </visualisation>

    <report>
        <no-warnings value="true"/>
        <aggregate-warnings value="5"/>
        <error-log value="C:\Users\palva\.texttest\tmp\netedit.gui.21Jan120011.13544\netedit.gui\additionalElements\e3detector\inspect_selection\vtypes\log.txt"/>
    </report>

</configuration>
-->

<additional xmlns:xsi="http://www.w3.org/2001/XMLSchema-instance" xsi:noNamespaceSchemaLocation="http://sumo.dlr.de/xsd/additional_file.xsd">
    <e3Detector id="e3Detector_A" name="A" pos="7.50,-2.00" freq="100.00" file="fileA.txt" vTypes="Type1 Type2 Type3">
        <detEntry lane="gneE1_0" pos="5.00"/>
        <detExit lane="gneE1_0" pos="25.00"/>
        <param key="KeyA1" value="valueA1"/>
        <param key="KeyA2" value="valueA3"/>
        <param key="KeyA3" value="valueA2"/>
    </e3Detector>
    <e3Detector id="e3Detector_B" name="B" pos="17.50,-2.00" freq="120.00" file="fileB.txt" vTypes="Type1 Type2 Type3" timeThreshold="2000" speedThreshold="3.39">
        <detEntry lane="gneE1_0" pos="10.00"/>
        <detExit lane="gneE1_0" pos="30.00"/>
        <param key="KeyB1" value="valueB1"/>
        <param key="KeyB2" value="valueB3"/>
        <param key="KeyB3" value="valueB2"/>
    </e3Detector>
</additional>
