<?xml version="1.0" encoding="UTF-8"?>

<!-- generated on Wed Sep 28 15:25:30 2016 by SUMO netconvert Version dev-SVN-r21562
<?xml version="1.0" encoding="UTF-8"?>

<configuration xmlns:xsi="http://www.w3.org/2001/XMLSchema-instance" xsi:noNamespaceSchemaLocation="http://sumo.dlr.de/xsd/netconvertConfiguration.xsd">

    <input>
        <node-files value="input_plain.nod.xml"/>
        <edge-files value="input_plain.edg.xml"/>
    </input>

    <output>
        <output-file value="net.net.xml"/>
    </output>

    <processing>
        <no-internal-links value="true"/>
        <no-turnarounds value="true"/>
    </processing>

    <report>
        <xml-validation value="never"/>
    </report>

</configuration>
-->

<net version="0.27" xmlns:xsi="http://www.w3.org/2001/XMLSchema-instance" xsi:noNamespaceSchemaLocation="http://sumo.dlr.de/xsd/net_file.xsd">

    <location netOffset="3.02,-43.28" convBoundary="0.00,0.00,78.54,1.23" origBoundary="-10000000000.00,-10000000000.00,10000000000.00,10000000000.00" projParameter="!"/>

    <edge id="gneE0" from="gneJ0" to="gneJ1" priority="1">
        <lane id="gneE0_0" index="0" allow="pedestrian" speed="13.89" length="38.59" shape="-0.05,-7.02 38.35,-7.26"/>
        <lane id="gneE0_1" index="1" speed="13.89" length="38.59" shape="-0.03,-3.72 38.37,-3.96"/>
        <lane id="gneE0_2" index="2" speed="13.89" length="38.59" shape="-0.01,-0.42 38.39,-0.66"/>
    </edge>
    <edge id="gneE1" from="gneJ1" to="gneJ2" priority="1">
        <lane id="gneE1_0" index="0" speed="13.89" length="39.96" shape="38.57,-7.26 78.34,-8.25"/>
        <lane id="gneE1_1" index="1" speed="13.89" length="39.96" shape="38.65,-3.96 78.42,-4.95"/>
        <lane id="gneE1_2" index="2" speed="13.89" length="39.96" shape="38.74,-0.66 78.50,-1.65"/>
    </edge>

    <junction id="gneJ0" type="unregulated" x="0.00" y="1.23" incLanes="" intLanes="" shape="-0.00,1.18 -0.06,-8.62"/>
    <junction id="gneJ1" type="priority" x="38.59" y="0.99" incLanes="gneE0_0 gneE0_1 gneE0_2" intLanes="" shape="38.78,0.94 38.53,-8.86 38.34,-8.86 38.40,0.94">
        <request index="0" response="000" foes="000"/>
        <request index="1" response="000" foes="000"/>
        <request index="2" response="000" foes="000"/>
    </junction>
    <junction id="gneJ2" type="unregulated" x="78.54" y="0.00" incLanes="gneE1_0 gneE1_1 gneE1_2" intLanes="" shape="78.30,-9.85 78.54,-0.05"/>

    <connection from="gneE0" to="gneE1" fromLane="1" toLane="0" dir="s" state="M"/>
    <connection from="gneE0" to="gneE1" fromLane="1" toLane="1" dir="s" state="M"/>
    <connection from="gneE0" to="gneE1" fromLane="2" toLane="2" dir="s" state="M"/>

</net>
