<?xml version="1.0" encoding="UTF-8"?>

<!-- generated on 2024-06-11 17:04:13 by Eclipse SUMO netedit Version v1_20_0+0459-30b40d5d475
-->

<routes xmlns:xsi="http://www.w3.org/2001/XMLSchema-instance" xsi:noNamespaceSchemaLocation="http://sumo.dlr.de/xsd/routes_file.xsd">
    <!-- Vehicles, persons and containers (sorted by depart) -->
    <trip id="trip_0" depart="0.00" from="Edge0" to="Edge2"/>
    <trip id="trip_1" depart="0.00" from="Edge0" to="Edge2"/>
    <trip id="trip_2" depart="0.00" from="Edge0" to="Edge2"/>
    <trip id="trip_3" depart="0.00" from="Edge0" to="Edge2">
        <stop containerStop="containerStopA" speed="10.00"/>
    </trip>
    <trip id="trip_4" depart="0.00" from="Edge0" to="Edge2"/>
    <trip id="trip_5" depart="0.00" from="Edge0" to="Edge2">
        <stop containerStop="containerStopA" triggered="container" speed="10.00"/>
    </trip>
</routes>
