<?xml version="1.0" encoding="UTF-8"?>

<!-- generated on 2022-03-04 10:35:40 by Eclipse SUMO netedit Version v1_12_0+1137-e9106068858
-->

<additional xmlns:xsi="http://www.w3.org/2001/XMLSchema-instance" xsi:noNamespaceSchemaLocation="http://sumo.dlr.de/xsd/additional_file.xsd">
    <!-- RouteProbes -->
    <routeProbe id="routeProbe_0" begin="0.00" freq="100.00" edge="gneE1" file="routeProbe_0.txt"/>
    <routeProbe id="routeProbe_1" begin="0.00" freq="100.00" edge="gneE1" file="routeProbe_1.txt"/>
</additional>
