<?xml version="1.0" encoding="UTF-8"?>

<!-- generated on 2022-06-03 16:11:40 by Eclipse SUMO netedit Version v1_13_0+0610-e5b7f68bfcb
-->

<additional xmlns:xsi="http://www.w3.org/2001/XMLSchema-instance" xsi:noNamespaceSchemaLocation="http://sumo.dlr.de/xsd/additional_file.xsd">
    <!-- RouteProbes -->
    <routeProbe id="routeProbe_0" begin="0.00" period="100.00" edge="center1" file="routeProbe_0.txt"/>
    <routeProbe id="routeProbe_1" begin="0.00" period="100.00" edge="center1" file="routeProbe_1.txt"/>
</additional>
