<?xml version="1.0" encoding="UTF-8"?>

<!-- generated on 03/22/17 15:56:26 by SUMO Version dev-SVN-r23592
This data file and the accompanying materials
are made available under the terms of the Eclipse Public License v2.0
which accompanies this distribution, and is available at
http://www.eclipse.org/legal/epl-v20.html
SPDX-License-Identifier: EPL-2.0
<configuration xmlns:xsi="http://www.w3.org/2001/XMLSchema-instance" xsi:noNamespaceSchemaLocation="http://sumo.dlr.de/xsd/sumoConfiguration.xsd">

    <input>
        <net-file value="net.net.xml"/>
        <additional-files value="input_additional.add.xml,input_additional2.add.xml"/>
    </input>

    <time>
        <begin value="0"/>
        <end value="200"/>
    </time>

    <report>
        <xml-validation value="never"/>
        <duration-log.disable value="true"/>
        <no-step-log value="true"/>
    </report>

    <traci_server>
        <remote-port value="53858"/>
    </traci_server>

</configuration>
-->

<tlsStates xmlns:xsi="http://www.w3.org/2001/XMLSchema-instance" xsi:noNamespaceSchemaLocation="http://sumo.dlr.de/xsd/tlsstates_file.xsd">
    <tlsState time="0.00" id="1/1" programID="prog1" phase="0" state="GGGGGGGGGGGGGGGG"/>
    <tlsState time="1.00" id="1/1" programID="0" phase="0" state="rrrrGGggrrrrGGgg"/>
    <tlsState time="2.00" id="1/1" programID="prog1" phase="0" state="GGGGGGGGGGGGGGGG"/>
    <tlsState time="3.00" id="1/1" programID="prog1" phase="0" state="GGGGGGGGGGGGGGGG"/>
    <tlsState time="4.00" id="1/1" programID="prog1" phase="0" state="GGGGGGGGGGGGGGGG"/>
</tlsStates>
