<edges xmlns:xsi="http://www.w3.org/2001/XMLSchema-instance" xsi:noNamespaceSchemaLocation="http://sumo-sim.org/xsd/edges_file.xsd">

	<edge spreadType="center" id="1" from="0" to="1" numLanes="3" speed="28.">
		<split lanes="2" pos="50"/>
	</edge>

</edges>




