<?xml version="1.0" encoding="UTF-8"?>

<!-- generated on Mon Jan 13 22:51:23 2020 by Eclipse SUMO duarouter Version v1_4_0+0484-712cfd90a4
This data file and the accompanying materials
are made available under the terms of the Eclipse Public License v2.0
which accompanies this distribution, and is available at
http://www.eclipse.org/legal/epl-v20.html
SPDX-License-Identifier: EPL-2.0
<configuration xmlns:xsi="http://www.w3.org/2001/XMLSchema-instance" xsi:noNamespaceSchemaLocation="http://sumo.dlr.de/xsd/duarouterConfiguration.xsd">

    <input>
        <net-file value="input_net.net.xml"/>
        <route-files value="input_routes.rou.xml"/>
        <junction-taz value="true"/>
    </input>

    <output>
        <write-license value="true"/>
        <output-file value="routes.rou.xml"/>
        <alternatives-output value="routes.rou.alt.xml"/>
    </output>

    <report>
        <xml-validation value="never"/>
        <no-step-log value="true"/>
    </report>

</configuration>
-->

<routes xmlns:xsi="http://www.w3.org/2001/XMLSchema-instance" xsi:noNamespaceSchemaLocation="http://sumo.dlr.de/xsd/routes_file.xsd">
    <vType id="DEFAULT_VEHTYPE" sigma="0"/>
    <vehicle id="0" depart="0.00">
        <routeDistribution last="0">
            <route cost="55.35" probability="1.00000000" edges="A0toA1 A1toB1 B1toC1 C1toB1 B1toB0 B0toC0 C0toD0"/>
        </routeDistribution>
    </vehicle>
</routes>
