<?xml version="1.0" encoding="UTF-8"?>

<!-- generated on 2023-03-02 14:34:42 by Eclipse SUMO netedit Version v1_16_0+0941-f077dec25f3
-->

<additional xmlns:xsi="http://www.w3.org/2001/XMLSchema-instance" xsi:noNamespaceSchemaLocation="http://sumo.dlr.de/xsd/additional_file.xsd">
    <!-- StoppingPlaces -->
    <busStop id="bs_0" lane="center0_1" startPos="20.00" endPos="30.00">
        <access lane="E0_0" pos="2.00"/>
        <access lane="E1_0" pos="2.00"/>
        <access lane="E4_0" pos="2.00"/>
        <access lane="E5_0" pos="2.00"/>
    </busStop>
    <busStop id="bs_1" lane="center1_1" startPos="20.00" endPos="30.00">
        <access lane="E0_0" pos="2.00"/>
        <access lane="E1_0" pos="2.00"/>
        <access lane="E4_0" pos="2.00"/>
        <access lane="E5_0" pos="2.00"/>
    </busStop>
    <busStop id="bs_2" lane="center1_0" startPos="20.00" endPos="30.00">
        <access lane="E0_0" pos="2.00"/>
        <access lane="E1_0" pos="2.00"/>
        <access lane="E4_0" pos="2.00"/>
        <access lane="E5_0" pos="2.00"/>
    </busStop>
    <busStop id="bs_3" lane="center0_0" startPos="20.00" endPos="30.00">
        <access lane="E0_0" pos="2.00"/>
        <access lane="E1_0" pos="2.00"/>
        <access lane="E5_0" pos="2.00"/>
        <access lane="E4_0" pos="2.00"/>
    </busStop>
</additional>
