<?xml version="1.0" encoding="UTF-8"?>

<!-- generated on 03/12/2020 11:00:06 by Eclipse SUMO netedit Version v1_8_0+0036-3d5ef85437
<configuration xmlns:xsi="http://www.w3.org/2001/XMLSchema-instance" xsi:noNamespaceSchemaLocation="http://sumo.dlr.de/xsd/netconvertConfiguration.xsd">

    <input>
        <sumo-net-file value="C:\Users\palva\.texttest\tmp\netedit.gui.03Dec104214.24840\netedit.gui\additionalElements\access\volatileRecomputing\input_net.net.xml"/>
    </input>

    <output>
        <output-file value="C:\Users\palva\.texttest\tmp\netedit.gui.03Dec104214.24840\netedit.gui\additionalElements\access\volatileRecomputing\net.net.xml"/>
    </output>

    <processing>
        <geometry.min-radius.fix.railways value="false"/>
        <geometry.max-grade.fix value="false"/>
        <offset.disable-normalization value="true"/>
        <lefthand value="false"/>
    </processing>

    <junctions>
        <no-turnarounds value="true"/>
        <junctions.corner-detail value="5"/>
        <junctions.limit-turn-speed value="5.5"/>
        <rectangular-lane-cut value="false"/>
    </junctions>

    <pedestrian>
        <sidewalks.guess value="true"/>
        <crossings.guess value="true"/>
        <walkingareas value="false"/>
    </pedestrian>

    <netedit>
        <additional-files value="C:\Users\palva\.texttest\tmp\netedit.gui.03Dec104214.24840\netedit.gui\additionalElements\access\volatileRecomputing\additionals.xml"/>
        <additionals-output value="C:\Users\palva\.texttest\tmp\netedit.gui.03Dec104214.24840\netedit.gui\additionalElements\access\volatileRecomputing\additionals.xml"/>
        <route-files value="C:\Users\palva\.texttest\tmp\netedit.gui.03Dec104214.24840\netedit.gui\additionalElements\access\volatileRecomputing\routes.xml"/>
        <demandelements-output value="C:\Users\palva\.texttest\tmp\netedit.gui.03Dec104214.24840\netedit.gui\additionalElements\access\volatileRecomputing\routes.xml"/>
        <data-files value="C:\Users\palva\.texttest\tmp\netedit.gui.03Dec104214.24840\netedit.gui\additionalElements\access\volatileRecomputing\datas.xml"/>
        <dataelements-output value="C:\Users\palva\.texttest\tmp\netedit.gui.03Dec104214.24840\netedit.gui\additionalElements\access\volatileRecomputing\datas.xml"/>
    </netedit>

    <visualisation>
        <gui-settings-file value="C:\Users\palva\.texttest\tmp\netedit.gui.03Dec104214.24840\netedit.gui\additionalElements\access\volatileRecomputing\gui-settings.xml"/>
        <window-size value="700,500"/>
        <window-pos value="50,50"/>
        <gui-testing value="true"/>
        <gui-testing-debug value="true"/>
        <gui-testing-debug-gl value="true"/>
        <gui-testing.setting-output value="C:\Users\palva\.texttest\tmp\netedit.gui.03Dec104214.24840\netedit.gui\additionalElements\access\volatileRecomputing\guisettingsoutput.xml"/>
    </visualisation>

    <report>
        <no-warnings value="true"/>
        <aggregate-warnings value="5"/>
        <error-log value="C:\Users\palva\.texttest\tmp\netedit.gui.03Dec104214.24840\netedit.gui\additionalElements\access\volatileRecomputing\log.txt"/>
    </report>

</configuration>
-->

<additional xmlns:xsi="http://www.w3.org/2001/XMLSchema-instance" xsi:noNamespaceSchemaLocation="http://sumo.dlr.de/xsd/additional_file.xsd">
    <busStop id="busStop_gneE1_0_2" lane="gneE1_0" startPos="25.63" endPos="35.63">
        <access lane="gneE2_0" pos="32.43"/>
        <access lane="gneE4_0" pos="10.67"/>
        <access lane="gneE1_0" pos="41.37"/>
        <access lane="gneE0_0" pos="11.06"/>
    </busStop>
    <busStop id="busStop_gneE2_0_5" lane="gneE2_0" startPos="18.11" endPos="28.11">
        <access lane="gneE2_2" pos="15.52"/>
        <access lane="gneE4_0" pos="35.45"/>
        <access lane="gneE1_0" pos="18.15"/>
        <access lane="gneE0_0" pos="26.61"/>
    </busStop>
    <busStop id="busStop_gneE4_0_0" lane="gneE4_0" startPos="21.38" endPos="31.38">
        <access lane="gneE2_2" pos="40.88"/>
        <access lane="gneE4_0" pos="14.75"/>
        <access lane="gneE1_0" pos="13.00"/>
        <access lane="gneE0_0" pos="18.83"/>
    </busStop>
</additional>
