<?xml version="1.0" encoding="UTF-8"?>

<!-- generated on Tue Feb 19 09:09:34 2019 by Eclipse SUMO netconvert Version v1_1_0+0919-80296dbfce
<configuration xmlns:xsi="http://www.w3.org/2001/XMLSchema-instance" xsi:noNamespaceSchemaLocation="http://sumo.dlr.de/xsd/netconvertConfiguration.xsd">

    <input>
        <node-files value=".\netedit\additionalElements\access\volatileRecomputing\input_net.nod.xml"/>
        <edge-files value=".\netedit\additionalElements\access\volatileRecomputing\input_net.edg.xml"/>
        <connection-files value=".\netedit\additionalElements\access\volatileRecomputing\input_net.con.xml"/>
        <tllogic-files value=".\netedit\additionalElements\access\volatileRecomputing\input_net.tll.xml"/>
    </input>

    <output>
        <output-file value=".\netedit\additionalElements\access\volatileRecomputing\input_net.net.xml"/>
    </output>

    <report>
        <verbose value="true"/>
    </report>

</configuration>
-->

<net version="1.1" junctionCornerDetail="5" limitTurnSpeed="5.50" xmlns:xsi="http://www.w3.org/2001/XMLSchema-instance" xsi:noNamespaceSchemaLocation="http://sumo.dlr.de/xsd/net_file.xsd">

    <location netOffset="25.00,0.00" convBoundary="0.00,0.00,50.00,20.00" origBoundary="-10000000000.00,-10000000000.00,10000000000.00,10000000000.00" projParameter="!"/>

    <edge id=":gneJ0_0" function="internal">
        <lane id=":gneJ0_0_0" index="0" speed="3.65" length="4.67" shape="0.00,1.60 -1.20,0.80 -1.60,0.00 -1.20,-0.80 0.00,-1.60"/>
    </edge>
    <edge id=":gneJ1_0" function="internal">
        <lane id=":gneJ1_0_0" index="0" speed="3.65" length="4.67" shape="50.00,-1.60 51.20,-0.80 51.60,0.00 51.20,0.80 50.00,1.60"/>
    </edge>
    <edge id=":gneJ2_0" function="internal">
        <lane id=":gneJ2_0_0" index="0" speed="3.65" length="4.67" shape="50.00,18.40 51.20,19.20 51.60,20.00 51.20,20.80 50.00,21.60"/>
    </edge>
    <edge id=":gneJ3_0" function="internal">
        <lane id=":gneJ3_0_0" index="0" speed="3.65" length="4.67" shape="0.00,21.60 -1.20,20.80 -1.60,20.00 -1.20,19.20 0.00,18.40"/>
    </edge>

    <edge id="gneE0" from="gneJ0" to="gneJ1" priority="1">
        <lane id="gneE0_0" index="0" speed="13.89" length="50.00" shape="0.00,-1.60 50.00,-1.60"/>
    </edge>
    <edge id="gneE1" from="gneJ1" to="gneJ0" priority="1">
        <lane id="gneE1_0" index="0" speed="13.89" length="50.00" shape="50.00,1.60 0.00,1.60"/>
    </edge>
    <edge id="gneE2" from="gneJ2" to="gneJ3" priority="1">
        <lane id="gneE2_0" index="0" speed="13.89" length="50.00" shape="50.00,34.40 0.00,34.40"/>
        <lane id="gneE2_1" index="1" speed="13.89" length="50.00" shape="50.00,31.20 0.00,31.20"/>
        <lane id="gneE2_2" index="2" speed="13.89" length="50.00" shape="50.00,28.00 0.00,28.00"/>
        <lane id="gneE2_3" index="3" speed="13.89" length="50.00" shape="50.00,24.80 0.00,24.80"/>
        <lane id="gneE2_4" index="4" speed="13.89" length="50.00" shape="50.00,21.60 0.00,21.60"/>
    </edge>
    <edge id="gneE4" from="gneJ3" to="gneJ2" priority="1">
        <lane id="gneE4_0" index="0" speed="60.00" length="50.00" shape="0.00,18.40 50.00,18.40"/>
    </edge>

    <tlLogic id="gneJ0" type="static" programID="0" offset="0">
        <phase duration="87" state="G"/>
        <phase duration="3"  state="y"/>
    </tlLogic>
    <tlLogic id="gneJ1" type="static" programID="0" offset="0">
        <phase duration="87" state="G"/>
        <phase duration="3"  state="y"/>
    </tlLogic>

    <junction id="gneJ0" type="traffic_light" x="0.00" y="0.00" incLanes="gneE1_0" intLanes=":gneJ0_0_0" shape="0.00,0.00 0.00,3.20 0.00,0.00">
        <request index="0" response="0" foes="0" cont="0"/>
    </junction>
    <junction id="gneJ1" type="traffic_light" x="50.00" y="0.00" incLanes="gneE0_0" intLanes=":gneJ1_0_0" shape="50.00,0.00 50.00,-3.20 50.00,0.00">
        <request index="0" response="0" foes="0" cont="0"/>
    </junction>
    <junction id="gneJ2" type="priority" x="50.00" y="20.00" incLanes="gneE4_0" intLanes=":gneJ2_0_0" shape="50.00,20.00 50.00,16.80 50.00,20.00">
        <request index="0" response="0" foes="0" cont="0"/>
    </junction>
    <junction id="gneJ3" type="priority" x="0.00" y="20.00" incLanes="gneE2_0 gneE2_1 gneE2_2 gneE2_3 gneE2_4" intLanes=":gneJ3_0_0" shape="0.00,20.00 0.00,36.00 0.00,20.00">
        <request index="0" response="0" foes="0" cont="0"/>
    </junction>

    <connection from="gneE0" to="gneE1" fromLane="0" toLane="0" via=":gneJ1_0_0" tl="gneJ1" linkIndex="0" dir="t" state="O"/>
    <connection from="gneE1" to="gneE0" fromLane="0" toLane="0" via=":gneJ0_0_0" tl="gneJ0" linkIndex="0" dir="t" state="O"/>
    <connection from="gneE2" to="gneE4" fromLane="4" toLane="0" via=":gneJ3_0_0" dir="t" state="M"/>
    <connection from="gneE4" to="gneE2" fromLane="0" toLane="4" via=":gneJ2_0_0" dir="t" state="M"/>

    <connection from=":gneJ0_0" to="gneE0" fromLane="0" toLane="0" dir="t" state="M"/>
    <connection from=":gneJ1_0" to="gneE1" fromLane="0" toLane="0" dir="t" state="M"/>
    <connection from=":gneJ2_0" to="gneE2" fromLane="0" toLane="4" dir="t" state="M"/>
    <connection from=":gneJ3_0" to="gneE4" fromLane="0" toLane="0" dir="t" state="M"/>

</net>
