<?xml version="1.0" encoding="UTF-8"?>
<!-- generated on 2021-02-26 12:34:04.117819 by $Id$ v1_8_0+1397-23ddab0
  options: -n net.net.xml -a input_additional.add.xml -r input_routes.rou.xml -o out.add.xml -v <doubleminus>debug-stop stop_b
-->
<additional xmlns:xsi="http://www.w3.org/2001/XMLSchema-instance" xsi:noNamespaceSchemaLocation="http://sumo.dlr.de/xsd/additional_file.xsd">
    <railSignalConstraints id="A">
        <predecessor tripId="t0" tl="B" foes="t1"/>   <!-- (foeInsertion)  -->
    </railSignalConstraints>
</additional>
