<routes>
    <vehicle id="v0" depart="0" departLane="0" arrivalLane="1">
        <route edges="1si"/>
    </vehicle>
</routes>
