<?xml version="1.0" encoding="UTF-8"?>

<!-- generated on 2021-06-15 14:59:59 by Eclipse SUMO netedit Version v1_9_2+0562-734b028973
<configuration xmlns:xsi="http://www.w3.org/2001/XMLSchema-instance" xsi:noNamespaceSchemaLocation="http://sumo.dlr.de/xsd/netconvertConfiguration.xsd">

    <input>
        <sumo-net-file value="C:\Users\SUMO-Test\.texttest\tmp\netedit.gui.15Jun141421.868\netedit.gui\additionalElements\e3detector\load\position\input_net.net.xml"/>
    </input>

    <output>
        <output-file value="C:\Users\SUMO-Test\.texttest\tmp\netedit.gui.15Jun141421.868\netedit.gui\additionalElements\e3detector\load\position\net.net.xml"/>
    </output>

    <processing>
        <geometry.min-radius.fix.railways value="false"/>
        <geometry.max-grade.fix value="false"/>
        <offset.disable-normalization value="true"/>
        <lefthand value="false"/>
    </processing>

    <junctions>
        <no-turnarounds value="true"/>
        <junctions.corner-detail value="5"/>
        <junctions.limit-turn-speed value="5.5"/>
        <rectangular-lane-cut value="false"/>
    </junctions>

    <pedestrian>
        <walkingareas value="false"/>
    </pedestrian>

    <netedit>
        <additional-files value="C:\Users\SUMO-Test\.texttest\tmp\netedit.gui.15Jun141421.868\netedit.gui\additionalElements\e3detector\load\position\additionals.xml"/>
        <additionals-output value="C:\Users\SUMO-Test\.texttest\tmp\netedit.gui.15Jun141421.868\netedit.gui\additionalElements\e3detector\load\position\additionals.xml"/>
        <route-files value="C:\Users\SUMO-Test\.texttest\tmp\netedit.gui.15Jun141421.868\netedit.gui\additionalElements\e3detector\load\position\routes.xml"/>
        <demandelements-output value="C:\Users\SUMO-Test\.texttest\tmp\netedit.gui.15Jun141421.868\netedit.gui\additionalElements\e3detector\load\position\routes.xml"/>
        <data-files value="C:\Users\SUMO-Test\.texttest\tmp\netedit.gui.15Jun141421.868\netedit.gui\additionalElements\e3detector\load\position\datas.xml"/>
        <dataelements-output value="C:\Users\SUMO-Test\.texttest\tmp\netedit.gui.15Jun141421.868\netedit.gui\additionalElements\e3detector\load\position\datas.xml"/>
    </netedit>

    <visualisation>
        <gui-settings-file value="C:\Users\SUMO-Test\.texttest\tmp\netedit.gui.15Jun141421.868\netedit.gui\additionalElements\e3detector\load\position\gui-settings.xml"/>
        <window-size value="936,697"/>
        <window-pos value="50,50"/>
        <gui-testing value="true"/>
        <gui-testing-debug value="true"/>
        <gui-testing-debug-gl value="true"/>
        <gui-testing.setting-output value="C:\Users\SUMO-Test\.texttest\tmp\netedit.gui.15Jun141421.868\netedit.gui\additionalElements\e3detector\load\position\guisettingsoutput.xml"/>
    </visualisation>

    <report>
        <no-warnings value="true"/>
        <aggregate-warnings value="5"/>
        <error-log value="C:\Users\SUMO-Test\.texttest\tmp\netedit.gui.15Jun141421.868\netedit.gui\additionalElements\e3detector\load\position\log.txt"/>
    </report>

</configuration>
-->

<additional xmlns:xsi="http://www.w3.org/2001/XMLSchema-instance" xsi:noNamespaceSchemaLocation="http://sumo.dlr.de/xsd/additional_file.xsd">
    <e3Detector id="e3Detector_4" pos="38.00,10.00" freq="100.00" file="fileA.txt">
        <detEntry lane="gneE1_0" pos="46.00"/>
        <detExit lane="gneE0_0" pos="46.00"/>
    </e3Detector>
</additional>
