<?xml version="1.0" encoding="UTF-8"?>

<!-- generated on 14.09.2018 15:30:39 by Eclipse SUMO GUI Version UNKNOWN
<configuration xmlns:xsi="http://www.w3.org/2001/XMLSchema-instance" xsi:noNamespaceSchemaLocation="http://sumo.dlr.de/xsd/sumoConfiguration.xsd">

    <input>
        <net-file value="C:\Projects\sumo\tests\netedit\additionalElements\e3detector\load\load_position\net.netedit"/>
        <additional-files value="C:\Projects\sumo\tests\netedit\additionalElements\e3detector\load\load_position\additionals.netedit"/>
    </input>

</configuration>
-->

<e3Detector xmlns:xsi="http://www.w3.org/2001/XMLSchema-instance" xsi:noNamespaceSchemaLocation="http://sumo.dlr.de/xsd/det_e3_file.xsd">
</e3Detector>
