<add>
    <busStop id="busstop1" lane="2fi_0" startPos="20" endPos="30" lines="foo"/>
    <parkingArea id="parkingArea1" lane="2fi_0" startPos="40" endPos="50" roadsideCapacity="2"/>
    <route id="withStop" edges="2fi 2si 1o 1fi 1si 3o 3fi 3si 4o 4fi 4si">
        <stop busStop="busstop1" duration="3"/>
    </route>

    <route id="failRoute" edges="3fi disconnected"/>

    <vType id="electric">
        <param key="has.battery.device" value="true"/>
		<param key="maximumBatteryCapacity" value="35000"/>
		<param key="maximumPower" value="100000"/>
		<param key="vehicleMass" value="1600"/>
		<param key="internalMomentOfInertia" value="30"/>
		<param key="frontSurfaceArea" value="2.2"/>
		<param key="airDragCoefficient" value="0.33"/>
		<param key="radialDragCoefficient" value="0"/>
		<param key="rollDragCoefficient" value="0.1"/>
		<param key="constantPowerIntake" value="40"/>
		<param key="propulsionEfficiency" value="0.8"/>
		<param key="recuperationEfficiency" value="0.8"/>
		<param key="stoppingTreshold" value="0.5"/>
    </vType>
</add>
