<routes xmlns:xsi="http://www.w3.org/2001/XMLSchema-instance" xsi:noNamespaceSchemaLocation="http://sumo.dlr.de/xsd/routes_file.xsd">
    <vType id="t" vClass="rail"/>
    <trip id="0" type="t" depart="0" from="9" to="13"/>
</routes>
