<?xml version="1.0" encoding="UTF-8"?>

<!-- generated on 2022-06-07 14:35:15 by Eclipse SUMO netedit Version v1_13_0+0625-0d8acbf8aa7
-->

<routes xmlns:xsi="http://www.w3.org/2001/XMLSchema-instance" xsi:noNamespaceSchemaLocation="http://sumo.dlr.de/xsd/routes_file.xsd">
    <!-- VTypes -->
    <vType id="custom_vType" length="20.00" vClass="ignoring" width="5.00" height="12.00" color="cyan"/>
    <!-- Vehicles, persons and containers (sorted by depart) -->
    <container id="c_0" type="custom_vType" depart="0.00">
        <transport from="gneE2" to="gneE5" lines="ANY"/>
    </container>
</routes>
