<?xml version="1.0"?>

<!-- generated on 02/18/11 22:49:37 by SUMO sumo Version dev-SVN-r9773
<?xml version="1.0" encoding="iso-8859-1"?>

<configuration xmlns:xsi="http://www.w3.org/2001/XMLSchema-instance" xsi:noNamespaceSchemaLocation="http://sumo.sf.net/xsd/sumoConfiguration.xsd">

    <input>
        <net-file value="net.net.xml"/>
        <route-files value="input_routes.rou.xml"/>
        <additional-files value="input_additional.add.xml,input_additional2.add.xml"/>
    </input>

    <time>
        <begin value="0"/>
        <end value="1000"/>
    </time>

    <report>
        <no-duration-log value="true"/>
        <no-step-log value="true"/>
    </report>

</configuration>
-->

<netstats>
    <interval begin="0.00" end="25.00" id="dump_25">
        <edge id="beg" sampledSeconds="125.00" traveltime="34.33" density="10.03" occupancy="5.01" waitingTime="0.00" speed="14.52" departed="10" arrived="0" entered="0" left="0" laneChangedFrom="0" laneChangedTo="0"/>
    </interval>
    <interval begin="25.00" end="50.00" id="dump_25">
        <edge id="beg" sampledSeconds="311.94" traveltime="32.82" density="25.03" occupancy="12.51" waitingTime="0.00" speed="15.19" departed="10" arrived="0" entered="0" left="6" laneChangedFrom="0" laneChangedTo="0"/>
        <edge id="middle" sampledSeconds="48.90" traveltime="471.69" density="1.97" occupancy="0.99" waitingTime="0.00" speed="2.10" departed="0" arrived="0" entered="5" left="0" laneChangedFrom="0" laneChangedTo="0"/>
    </interval>
    <interval begin="50.00" end="75.00" id="dump_25">
        <edge id="beg" sampledSeconds="400.29" traveltime="43.56" density="32.12" occupancy="16.06" waitingTime="1.00" speed="11.44" departed="9" arrived="0" entered="0" left="5" laneChangedFrom="0" laneChangedTo="0"/>
        <edge id="middle" sampledSeconds="196.09" traveltime="486.60" density="7.92" occupancy="3.96" waitingTime="0.00" speed="2.04" departed="0" arrived="0" entered="6" left="0" laneChangedFrom="0" laneChangedTo="0"/>
    </interval>
    <interval begin="75.00" end="100.00" id="dump_25">
        <edge id="beg" sampledSeconds="483.02" traveltime="55.65" density="38.75" occupancy="19.38" waitingTime="1.00" speed="8.96" departed="10" arrived="0" entered="0" left="6" laneChangedFrom="0" laneChangedTo="0"/>
        <edge id="middle" sampledSeconds="342.35" traveltime="478.69" density="13.83" occupancy="6.91" waitingTime="0.00" speed="2.07" departed="0" arrived="0" entered="6" left="0" laneChangedFrom="0" laneChangedTo="0"/>
    </interval>
    <interval begin="100.00" end="125.00" id="dump_25">
        <edge id="beg" sampledSeconds="557.01" traveltime="66.99" density="44.69" occupancy="22.35" waitingTime="2.00" speed="7.44" departed="9" arrived="0" entered="0" left="7" laneChangedFrom="0" laneChangedTo="0"/>
        <edge id="middle" sampledSeconds="497.02" traveltime="114.97" density="20.07" occupancy="10.04" waitingTime="0.00" speed="8.62" departed="0" arrived="0" entered="6" left="0" laneChangedFrom="0" laneChangedTo="0"/>
    </interval>
    <interval begin="125.00" end="150.00" id="dump_25">
        <edge id="beg" sampledSeconds="626.86" traveltime="71.51" density="50.29" occupancy="25.15" waitingTime="0.00" speed="6.97" departed="10" arrived="0" entered="0" left="8" laneChangedFrom="0" laneChangedTo="0"/>
        <edge id="end" sampledSeconds="24.21" traveltime="34.28" density="1.94" occupancy="0.97" waitingTime="0.00" speed="14.55" departed="0" arrived="0" entered="4" left="0" laneChangedFrom="0" laneChangedTo="0"/>
        <edge id="middle" sampledSeconds="644.30" traveltime="49.56" density="26.02" occupancy="13.01" waitingTime="0.00" speed="19.99" departed="0" arrived="0" entered="9" left="4" laneChangedFrom="0" laneChangedTo="0"/>
    </interval>
    <interval begin="150.00" end="175.00" id="dump_25">
        <edge id="beg" sampledSeconds="591.75" traveltime="63.17" density="47.48" occupancy="23.74" waitingTime="0.00" speed="7.89" departed="9" arrived="0" entered="0" left="13" laneChangedFrom="0" laneChangedTo="0"/>
        <edge id="end" sampledSeconds="172.65" traveltime="23.24" density="13.85" occupancy="6.93" waitingTime="0.00" speed="21.45" departed="0" arrived="0" entered="9" left="5" laneChangedFrom="0" laneChangedTo="0"/>
        <edge id="middle" sampledSeconds="738.46" traveltime="56.36" density="29.82" occupancy="14.91" waitingTime="0.00" speed="17.58" departed="0" arrived="0" entered="13" left="9" laneChangedFrom="0" laneChangedTo="0"/>
        <edge id="rend" sampledSeconds="2.90" traveltime="18.20" density="0.23" occupancy="0.12" waitingTime="0.00" speed="27.47" departed="0" arrived="5" entered="5" left="0" laneChangedFrom="0" laneChangedTo="0"/>
    </interval>
    <interval begin="175.00" end="200.00" id="dump_25">
        <edge id="beg" sampledSeconds="488.85" traveltime="47.13" density="39.22" occupancy="19.61" waitingTime="0.00" speed="10.58" departed="10" arrived="0" entered="0" left="14" laneChangedFrom="0" laneChangedTo="0"/>
        <edge id="end" sampledSeconds="192.79" traveltime="22.93" density="15.47" occupancy="7.73" waitingTime="0.00" speed="21.74" departed="0" arrived="0" entered="8" left="8" laneChangedFrom="0" laneChangedTo="0"/>
        <edge id="middle" sampledSeconds="867.62" traveltime="69.22" density="35.04" occupancy="17.52" waitingTime="0.00" speed="14.31" departed="0" arrived="0" entered="14" left="8" laneChangedFrom="0" laneChangedTo="0"/>
        <edge id="rend" sampledSeconds="4.21" traveltime="18.29" density="0.34" occupancy="0.17" waitingTime="0.00" speed="27.34" departed="0" arrived="8" entered="8" left="0" laneChangedFrom="0" laneChangedTo="0"/>
    </interval>
    <interval begin="200.00" end="225.00" id="dump_25">
        <edge id="beg" sampledSeconds="382.02" traveltime="34.15" density="30.65" occupancy="15.33" waitingTime="0.00" speed="14.60" departed="9" arrived="0" entered="0" left="14" laneChangedFrom="0" laneChangedTo="0"/>
        <edge id="end" sampledSeconds="197.41" traveltime="23.09" density="15.84" occupancy="7.92" waitingTime="0.00" speed="21.59" departed="0" arrived="0" entered="9" left="9" laneChangedFrom="0" laneChangedTo="0"/>
        <edge id="middle" sampledSeconds="999.85" traveltime="83.10" density="40.38" occupancy="20.19" waitingTime="0.00" speed="11.92" departed="0" arrived="0" entered="14" left="9" laneChangedFrom="0" laneChangedTo="0"/>
        <edge id="rend" sampledSeconds="4.98" traveltime="18.33" density="0.40" occupancy="0.20" waitingTime="0.00" speed="27.28" departed="0" arrived="9" entered="9" left="0" laneChangedFrom="0" laneChangedTo="0"/>
    </interval>
    <interval begin="225.00" end="250.00" id="dump_25">
        <edge id="beg" sampledSeconds="282.75" traveltime="27.77" density="22.69" occupancy="11.34" waitingTime="1.00" speed="17.95" departed="10" arrived="0" entered="0" left="12" laneChangedFrom="0" laneChangedTo="0"/>
        <edge id="end" sampledSeconds="199.46" traveltime="22.88" density="16.00" occupancy="8.00" waitingTime="0.00" speed="21.79" departed="0" arrived="0" entered="8" left="8" laneChangedFrom="0" laneChangedTo="0"/>
        <edge id="middle" sampledSeconds="1119.09" traveltime="97.43" density="45.19" occupancy="22.60" waitingTime="0.00" speed="10.17" departed="0" arrived="0" entered="12" left="9" laneChangedFrom="0" laneChangedTo="0"/>
        <edge id="rend" sampledSeconds="4.54" traveltime="18.26" density="0.36" occupancy="0.18" waitingTime="0.00" speed="27.38" departed="0" arrived="8" entered="8" left="0" laneChangedFrom="0" laneChangedTo="0"/>
    </interval>
    <interval begin="250.00" end="275.00" id="dump_25">
        <edge id="beg" sampledSeconds="235.35" traveltime="25.11" density="18.88" occupancy="9.44" waitingTime="0.00" speed="19.85" departed="5" arrived="0" entered="0" left="10" laneChangedFrom="0" laneChangedTo="0"/>
        <edge id="end" sampledSeconds="204.15" traveltime="22.92" density="16.38" occupancy="8.19" waitingTime="0.00" speed="21.75" departed="0" arrived="0" entered="9" left="9" laneChangedFrom="0" laneChangedTo="0"/>
        <edge id="middle" sampledSeconds="1165.57" traveltime="111.36" density="47.07" occupancy="23.54" waitingTime="0.00" speed="8.89" departed="0" arrived="0" entered="10" left="9" laneChangedFrom="0" laneChangedTo="0"/>
        <edge id="rend" sampledSeconds="4.11" traveltime="18.23" density="0.33" occupancy="0.16" waitingTime="0.00" speed="27.42" departed="0" arrived="9" entered="9" left="0" laneChangedFrom="0" laneChangedTo="0"/>
    </interval>
    <interval begin="275.00" end="300.00" id="dump_25">
        <edge id="beg" sampledSeconds="48.65" traveltime="20.06" density="3.90" occupancy="1.95" waitingTime="0.00" speed="24.85" departed="0" arrived="0" entered="0" left="6" laneChangedFrom="0" laneChangedTo="0"/>
        <edge id="end" sampledSeconds="194.74" traveltime="22.94" density="15.62" occupancy="7.81" waitingTime="0.00" speed="21.73" departed="0" arrived="0" entered="9" left="9" laneChangedFrom="0" laneChangedTo="0"/>
        <edge id="middle" sampledSeconds="1178.39" traveltime="125.32" density="47.59" occupancy="23.79" waitingTime="0.00" speed="7.90" departed="0" arrived="0" entered="6" left="8" laneChangedFrom="0" laneChangedTo="0"/>
        <edge id="rend" sampledSeconds="3.46" traveltime="18.25" density="0.28" occupancy="0.14" waitingTime="0.00" speed="27.39" departed="0" arrived="9" entered="9" left="0" laneChangedFrom="0" laneChangedTo="0"/>
    </interval>
    <interval begin="300.00" end="325.00" id="dump_25">
        <edge id="end" sampledSeconds="197.65" traveltime="22.77" density="15.86" occupancy="7.93" waitingTime="0.00" speed="21.89" departed="0" arrived="0" entered="8" left="9" laneChangedFrom="0" laneChangedTo="0"/>
        <edge id="middle" sampledSeconds="1012.59" traveltime="197.59" density="40.89" occupancy="20.45" waitingTime="0.00" speed="5.01" departed="0" arrived="0" entered="0" left="9" laneChangedFrom="0" laneChangedTo="0"/>
        <edge id="rend" sampledSeconds="5.22" traveltime="18.21" density="0.42" occupancy="0.21" waitingTime="0.00" speed="27.45" departed="0" arrived="9" entered="9" left="0" laneChangedFrom="0" laneChangedTo="0"/>
    </interval>
    <interval begin="325.00" end="350.00" id="dump_25">
        <edge id="end" sampledSeconds="197.40" traveltime="22.89" density="15.84" occupancy="7.92" waitingTime="0.00" speed="21.78" departed="0" arrived="0" entered="9" left="8" laneChangedFrom="0" laneChangedTo="0"/>
        <edge id="middle" sampledSeconds="798.28" traveltime="227.49" density="32.24" occupancy="16.12" waitingTime="0.00" speed="4.35" departed="0" arrived="0" entered="0" left="8" laneChangedFrom="0" laneChangedTo="0"/>
        <edge id="rend" sampledSeconds="4.77" traveltime="18.28" density="0.38" occupancy="0.19" waitingTime="0.00" speed="27.35" departed="0" arrived="8" entered="8" left="0" laneChangedFrom="0" laneChangedTo="0"/>
    </interval>
    <interval begin="350.00" end="375.00" id="dump_25">
        <edge id="end" sampledSeconds="191.90" traveltime="22.86" density="15.40" occupancy="7.70" waitingTime="0.00" speed="21.81" departed="0" arrived="0" entered="8" left="9" laneChangedFrom="0" laneChangedTo="0"/>
        <edge id="middle" sampledSeconds="587.10" traveltime="234.88" density="23.71" occupancy="11.85" waitingTime="0.00" speed="4.22" departed="0" arrived="0" entered="0" left="9" laneChangedFrom="0" laneChangedTo="0"/>
        <edge id="rend" sampledSeconds="4.97" traveltime="18.29" density="0.40" occupancy="0.20" waitingTime="0.00" speed="27.33" departed="0" arrived="9" entered="9" left="0" laneChangedFrom="0" laneChangedTo="0"/>
    </interval>
    <interval begin="375.00" end="400.00" id="dump_25">
        <edge id="end" sampledSeconds="198.17" traveltime="22.86" density="15.90" occupancy="7.95" waitingTime="0.00" speed="21.81" departed="0" arrived="0" entered="9" left="9" laneChangedFrom="0" laneChangedTo="0"/>
        <edge id="middle" sampledSeconds="370.87" traveltime="232.69" density="14.98" occupancy="7.49" waitingTime="0.00" speed="4.26" departed="0" arrived="0" entered="0" left="9" laneChangedFrom="0" laneChangedTo="0"/>
        <edge id="rend" sampledSeconds="3.30" traveltime="18.23" density="0.26" occupancy="0.13" waitingTime="0.00" speed="27.42" departed="0" arrived="9" entered="9" left="0" laneChangedFrom="0" laneChangedTo="0"/>
    </interval>
    <interval begin="400.00" end="425.00" id="dump_25">
        <edge id="end" sampledSeconds="206.69" traveltime="22.88" density="16.58" occupancy="8.29" waitingTime="0.00" speed="21.79" departed="0" arrived="0" entered="9" left="8" laneChangedFrom="0" laneChangedTo="0"/>
        <edge id="middle" sampledSeconds="145.16" traveltime="210.28" density="5.86" occupancy="2.93" waitingTime="0.00" speed="4.71" departed="0" arrived="0" entered="0" left="9" laneChangedFrom="0" laneChangedTo="0"/>
        <edge id="rend" sampledSeconds="3.02" traveltime="18.29" density="0.24" occupancy="0.12" waitingTime="0.00" speed="27.33" departed="0" arrived="8" entered="8" left="0" laneChangedFrom="0" laneChangedTo="0"/>
    </interval>
    <interval begin="425.00" end="450.00" id="dump_25">
        <edge id="end" sampledSeconds="130.61" traveltime="20.75" density="10.48" occupancy="5.24" waitingTime="0.00" speed="24.02" departed="0" arrived="0" entered="2" left="9" laneChangedFrom="0" laneChangedTo="0"/>
        <edge id="middle" sampledSeconds="2.57" traveltime="238.19" density="0.10" occupancy="0.05" waitingTime="0.00" speed="4.16" departed="0" arrived="0" entered="0" left="1" laneChangedFrom="0" laneChangedTo="0"/>
        <edge id="rend" sampledSeconds="6.03" traveltime="18.17" density="0.48" occupancy="0.24" waitingTime="0.00" speed="27.51" departed="0" arrived="9" entered="9" left="0" laneChangedFrom="0" laneChangedTo="0"/>
    </interval>
    <interval begin="450.00" end="475.00" id="dump_25">
        <edge id="end" sampledSeconds="1.88" traveltime="18.06" density="0.15" occupancy="0.08" waitingTime="0.00" speed="27.61" departed="0" arrived="0" entered="0" left="1" laneChangedFrom="0" laneChangedTo="0"/>
        <edge id="rend" sampledSeconds="0.12" traveltime="17.99" density="0.01" occupancy="0.00" waitingTime="0.00" speed="27.79" departed="0" arrived="1" entered="1" left="0" laneChangedFrom="0" laneChangedTo="0"/>
    </interval>
    <interval begin="475.00" end="500.00" id="dump_25">
    </interval>
    <interval begin="500.00" end="525.00" id="dump_25">
    </interval>
    <interval begin="525.00" end="550.00" id="dump_25">
    </interval>
    <interval begin="550.00" end="575.00" id="dump_25">
    </interval>
    <interval begin="575.00" end="600.00" id="dump_25">
    </interval>
    <interval begin="600.00" end="625.00" id="dump_25">
    </interval>
    <interval begin="625.00" end="650.00" id="dump_25">
    </interval>
    <interval begin="650.00" end="675.00" id="dump_25">
    </interval>
    <interval begin="675.00" end="700.00" id="dump_25">
    </interval>
    <interval begin="700.00" end="725.00" id="dump_25">
    </interval>
    <interval begin="725.00" end="750.00" id="dump_25">
    </interval>
    <interval begin="750.00" end="775.00" id="dump_25">
    </interval>
    <interval begin="775.00" end="800.00" id="dump_25">
    </interval>
    <interval begin="800.00" end="825.00" id="dump_25">
    </interval>
    <interval begin="825.00" end="850.00" id="dump_25">
    </interval>
    <interval begin="850.00" end="875.00" id="dump_25">
    </interval>
    <interval begin="875.00" end="900.00" id="dump_25">
    </interval>
    <interval begin="900.00" end="925.00" id="dump_25">
    </interval>
    <interval begin="925.00" end="950.00" id="dump_25">
    </interval>
    <interval begin="950.00" end="975.00" id="dump_25">
    </interval>
    <interval begin="975.00" end="1000.00" id="dump_25">
    </interval>
</netstats>
