<?xml version="1.0" encoding="UTF-8"?>

<!-- generated on 2022-06-03 15:50:23 by Eclipse SUMO netedit Version v1_13_0+0610-e5b7f68bfcb
-->

<additional xmlns:xsi="http://www.w3.org/2001/XMLSchema-instance" xsi:noNamespaceSchemaLocation="http://sumo.dlr.de/xsd/additional_file.xsd">
    <!-- RouteProbes -->
    <routeProbe id="rp_0" begin="0.00" period="3600.00" edge="gneE0" name="customName" file="rp_0.xml"/>
</additional>
