<?xml version="1.0" encoding="UTF-8"?>

<!-- generated on 2026-01-15T09:14:23.271314+01:00 by Eclipse SUMO netconvert v1_25_0+0969-fda50631639
This data file and the accompanying materials
are made available under the terms of the Eclipse Public License v2.0
which accompanies this distribution, and is available at
http://www.eclipse.org/legal/epl-v20.html
This file may also be made available under the following Secondary
Licenses when the conditions for such availability set forth in the Eclipse
Public License 2.0 are satisfied: GNU General Public License, version 2
or later which is available at
https://www.gnu.org/licenses/old-licenses/gpl-2.0-standalone.html
SPDX-License-Identifier: EPL-2.0 OR GPL-2.0-or-later
<netconvertConfiguration xmlns:xsi="http://www.w3.org/2001/XMLSchema-instance" xsi:noNamespaceSchemaLocation="http://sumo.dlr.de/xsd/netconvertConfiguration.xsd">

    <input>
        <node-files value="input_nodes.nod.xml"/>
        <edge-files value="input_edges.edg.xml"/>
    </input>

    <output>
        <write-license value="true"/>
        <output-file value="net.net.xml"/>
    </output>

    <processing>
        <geometry.remove value="true"/>
    </processing>

    <junctions>
        <no-internal-links value="true"/>
    </junctions>

    <report>
        <xml-validation value="never"/>
    </report>

</netconvertConfiguration>
-->

<net version="1.20" junctionCornerDetail="5" limitTurnSpeed="5.50" xmlns:xsi="http://www.w3.org/2001/XMLSchema-instance" xsi:noNamespaceSchemaLocation="http://sumo.dlr.de/xsd/net_file.xsd">

    <location netOffset="100.00,0.00" convBoundary="0.00,0.00,300.00,0.00" origBoundary="-100.00,0.00,200.00,0.00" projParameter="!"/>

    <edge id="a" from="a" to="b" priority="-1" shape="0.00,0.00 100.00,0.00 200.00,0.00 300.00,0.00">
        <lane id="a_0" index="0" speed="13.89" length="300.00" shape="0.00,-1.60 100.00,-1.60 200.00,-1.60 300.00,-1.60"/>
    </edge>

    <junction id="a" type="dead_end" x="0.00" y="0.00" incLanes="" intLanes="" shape="0.00,0.00 0.00,-3.20"/>
    <junction id="b" type="dead_end" x="300.00" y="0.00" incLanes="a_0" intLanes="" shape="300.00,-3.20 300.00,0.00"/>

</net>
