<?xml version="1.0" encoding="UTF-8"?>

<!-- generated on 06.01.2021 14:48:26 by Eclipse SUMO netedit Version v1_8_0+0394-23c493d0d1
<configuration xmlns:xsi="http://www.w3.org/2001/XMLSchema-instance" xsi:noNamespaceSchemaLocation="http://sumo.dlr.de/xsd/netconvertConfiguration.xsd">

    <input>
        <sumo-net-file value="C:\Users\alva_pa\.texttest\tmp\netedit.gui.06Jan144409.6664\netedit.gui\demandElements\route\inspect_selection\cycletime\input_net.net.xml"/>
    </input>

    <output>
        <output-file value="C:\Users\alva_pa\.texttest\tmp\netedit.gui.06Jan144409.6664\netedit.gui\demandElements\route\inspect_selection\cycletime\net.net.xml"/>
    </output>

    <processing>
        <geometry.min-radius.fix.railways value="false"/>
        <geometry.max-grade.fix value="false"/>
        <offset.disable-normalization value="true"/>
        <lefthand value="false"/>
    </processing>

    <junctions>
        <no-turnarounds value="true"/>
        <junctions.corner-detail value="5"/>
        <junctions.limit-turn-speed value="5.5"/>
        <rectangular-lane-cut value="false"/>
    </junctions>

    <pedestrian>
        <walkingareas value="false"/>
    </pedestrian>

    <netedit>
        <additional-files value="C:\Users\alva_pa\.texttest\tmp\netedit.gui.06Jan144409.6664\netedit.gui\demandElements\route\inspect_selection\cycletime\additionals.xml"/>
        <additionals-output value="C:\Users\alva_pa\.texttest\tmp\netedit.gui.06Jan144409.6664\netedit.gui\demandElements\route\inspect_selection\cycletime\additionals.xml"/>
        <route-files value="C:\Users\alva_pa\.texttest\tmp\netedit.gui.06Jan144409.6664\netedit.gui\demandElements\route\inspect_selection\cycletime\routes.xml"/>
        <demandelements-output value="C:\Users\alva_pa\.texttest\tmp\netedit.gui.06Jan144409.6664\netedit.gui\demandElements\route\inspect_selection\cycletime\routes.xml"/>
        <data-files value="C:\Users\alva_pa\.texttest\tmp\netedit.gui.06Jan144409.6664\netedit.gui\demandElements\route\inspect_selection\cycletime\datas.xml"/>
        <dataelements-output value="C:\Users\alva_pa\.texttest\tmp\netedit.gui.06Jan144409.6664\netedit.gui\demandElements\route\inspect_selection\cycletime\datas.xml"/>
    </netedit>

    <visualisation>
        <gui-settings-file value="C:\Users\alva_pa\.texttest\tmp\netedit.gui.06Jan144409.6664\netedit.gui\demandElements\route\inspect_selection\cycletime\gui-settings.xml"/>
        <window-size value="700,500"/>
        <window-pos value="50,50"/>
        <gui-testing value="true"/>
        <gui-testing-debug value="true"/>
        <gui-testing-debug-gl value="true"/>
        <gui-testing.setting-output value="C:\Users\alva_pa\.texttest\tmp\netedit.gui.06Jan144409.6664\netedit.gui\demandElements\route\inspect_selection\cycletime\guisettingsoutput.xml"/>
    </visualisation>

    <report>
        <no-warnings value="true"/>
        <aggregate-warnings value="5"/>
        <error-log value="C:\Users\alva_pa\.texttest\tmp\netedit.gui.06Jan144409.6664\netedit.gui\demandElements\route\inspect_selection\cycletime\log.txt"/>
    </report>

</configuration>
-->

<routes xmlns:xsi="http://www.w3.org/2001/XMLSchema-instance" xsi:noNamespaceSchemaLocation="http://sumo.dlr.de/xsd/routes_file.xsd">
    <route edges="gneE2 gneE4" color="yellow" cycleTime="56120" id="route_0"/>
    <route edges="gneE7" color="yellow" cycleTime="56120" id="route_1"/>
</routes>
