<?xml version="1.0" encoding="UTF-8"?>

<!-- generated on 2022-02-14 10:50:15 by Eclipse SUMO netedit Version v1_12_0+0538-6866f356735
-->

<routes xmlns:xsi="http://www.w3.org/2001/XMLSchema-instance" xsi:noNamespaceSchemaLocation="http://sumo.dlr.de/xsd/routes_file.xsd">
    <vehicle id="vehicle_0" depart="0.00">
        <route edges="gneE0 gneE1" color="yellow"/>
        <stop parkingArea="parkingAreaB" duration="60.00" parking="1"/>
        <stop parkingArea="parkingAreaB" duration="0.00" parking="1"/>
        <stop parkingArea="parkingAreaB" parking="1"/>
        <stop parkingArea="parkingAreaB" duration="22.33" parking="1"/>
    </vehicle>
</routes>
