<?xml version="1.0" encoding="UTF-8"?>

<!-- generated on 19.10.2017 13:41:14 by Netedit Version dev-SVN-r22737
<?xml version="1.0" encoding="UTF-8"?>

<configuration xmlns:xsi="http://www.w3.org/2001/XMLSchema-instance" xsi:noNamespaceSchemaLocation="http://sumo.dlr.de/xsd/netconvertConfiguration.xsd">

    <input>
        <new value="true"/>
    </input>

    <output>
        <additionals-output value="C:/Users/alva_pa/.texttest/tmp/netedit.gui.19Oct133808.4976/netedit.gui/netElements/junctions/create\additionals.xml"/>
        <shapes-output value="C:/Users/alva_pa/.texttest/tmp/netedit.gui.19Oct133808.4976/netedit.gui/netElements/junctions/create\shapes.xml"/>
        <output-file value="C:/Users/alva_pa/.texttest/tmp/netedit.gui.19Oct133808.4976/netedit.gui/netElements/junctions/create\net.net.xml"/>
    </output>

    <processing>
        <no-turnarounds value="true"/>
        <offset.disable-normalization value="true"/>
    </processing>

    <visualisation>
        <gui-settings-file value="C:/Users/alva_pa/.texttest/tmp/netedit.gui.19Oct133808.4976/netedit.gui/netElements/junctions/create\gui-settings.xml"/>
        <window-size value="700,500"/>
        <window-pos value="50,50"/>
        <gui-testing value="true"/>
        <gui-testing-debug value="true"/>
    </visualisation>

    <report>
        <no-warnings value="true"/>
        <error-log value="C:/Users/alva_pa/.texttest/tmp/netedit.gui.19Oct133808.4976/netedit.gui/netElements/junctions/create\log.txt"/>
    </report>

</configuration>
-->

<net version="0.27" xmlns:xsi="http://www.w3.org/2001/XMLSchema-instance" xsi:noNamespaceSchemaLocation="http://sumo.dlr.de/xsd/net_file.xsd">

    <location netOffset="0.00,0.00" convBoundary="-3.00,25.00,97.00,85.00" origBoundary="10000000000.00,10000000000.00,-10000000000.00,-10000000000.00" projParameter="!"/>

    <edge id=":gneJ11_0" function="internal">
        <lane id=":gneJ11_0_0" index="0" speed="13.89" length="9.50" shape="71.75,66.65 62.25,66.65"/>
    </edge>
    <edge id=":gneJ11_1" function="internal">
        <lane id=":gneJ11_1_0" index="0" speed="13.89" length="5.28" shape="71.75,66.65 68.95,66.25 66.95,65.05 66.89,64.95"/>
    </edge>
    <edge id=":gneJ11_6" function="internal">
        <lane id=":gneJ11_6_0" index="0" speed="13.89" length="5.04" shape="66.89,64.95 65.75,63.05 65.35,60.25"/>
    </edge>
    <edge id=":gneJ11_2" function="internal">
        <lane id=":gneJ11_2_0" index="0" speed="13.89" length="5.00" shape="68.65,60.25 68.84,61.61 69.43,62.57 70.39,63.16 71.75,63.35"/>
    </edge>
    <edge id=":gneJ11_3" function="internal">
        <lane id=":gneJ11_3_0" index="0" speed="13.89" length="10.32" shape="68.65,60.25 68.25,63.05 67.05,65.05 65.05,66.25 62.25,66.65"/>
    </edge>
    <edge id=":gneJ11_4" function="internal">
        <lane id=":gneJ11_4_0" index="0" speed="13.89" length="5.00" shape="62.25,63.35 63.61,63.16 64.57,62.58 65.16,61.61 65.35,60.25"/>
    </edge>
    <edge id=":gneJ11_5" function="internal">
        <lane id=":gneJ11_5_0" index="0" speed="13.89" length="9.50" shape="62.25,63.35 71.75,63.35"/>
    </edge>
    <edge id=":gneJ12_0" function="internal">
        <lane id=":gneJ12_0_0" index="0" speed="13.89" length="7.90" shape="88.65,61.75 88.34,63.89 87.43,65.43 85.89,66.34 83.75,66.65"/>
    </edge>
    <edge id=":gneJ12_1" function="internal">
        <lane id=":gneJ12_1_0" index="0" speed="13.89" length="2.58" shape="83.75,63.35 84.45,63.25 84.95,62.95 85.25,62.45 85.35,61.75"/>
    </edge>
    <edge id=":gneJ13_0" function="internal">
        <lane id=":gneJ13_0_0" index="0" speed="13.89" length="5.00" shape="85.35,49.75 85.16,48.39 84.57,47.43 83.61,46.84 82.25,46.65"/>
    </edge>
    <edge id=":gneJ13_1" function="internal">
        <lane id=":gneJ13_1_0" index="0" speed="13.89" length="9.50" shape="85.35,49.75 85.35,40.25"/>
    </edge>
    <edge id=":gneJ13_2" function="internal">
        <lane id=":gneJ13_2_0" index="0" speed="13.89" length="9.50" shape="88.65,40.25 88.65,49.75"/>
    </edge>
    <edge id=":gneJ13_3" function="internal">
        <lane id=":gneJ13_3_0" index="0" speed="13.89" length="5.28" shape="88.65,40.25 88.25,43.05 87.05,45.05 86.95,45.11"/>
    </edge>
    <edge id=":gneJ13_6" function="internal">
        <lane id=":gneJ13_6_0" index="0" speed="13.89" length="5.04" shape="86.95,45.11 85.05,46.25 82.25,46.65"/>
    </edge>
    <edge id=":gneJ13_4" function="internal">
        <lane id=":gneJ13_4_0" index="0" speed="13.89" length="5.00" shape="82.25,43.35 83.61,43.16 84.57,42.58 85.16,41.61 85.35,40.25"/>
    </edge>
    <edge id=":gneJ13_5" function="internal">
        <lane id=":gneJ13_5_0" index="0" speed="13.89" length="10.32" shape="82.25,43.35 85.05,43.75 87.05,44.95 88.25,46.95 88.65,49.75"/>
    </edge>
    <edge id=":gneJ14_0" function="internal">
        <lane id=":gneJ14_0_0" index="0" speed="13.89" length="2.58" shape="85.35,28.25 85.25,27.55 84.95,27.05 84.45,26.75 83.75,26.65"/>
    </edge>
    <edge id=":gneJ14_1" function="internal">
        <lane id=":gneJ14_1_0" index="0" speed="13.89" length="7.90" shape="83.75,23.35 85.89,23.66 87.43,24.58 88.34,26.11 88.65,28.25"/>
    </edge>
    <edge id=":gneJ15_0" function="internal">
        <lane id=":gneJ15_0_0" index="0" speed="13.89" length="5.00" shape="65.35,29.75 65.16,28.39 64.57,27.43 63.61,26.84 62.25,26.65"/>
    </edge>
    <edge id=":gneJ15_1" function="internal">
        <lane id=":gneJ15_1_0" index="0" speed="13.89" length="10.32" shape="65.35,29.75 65.75,26.95 66.95,24.95 68.95,23.75 71.75,23.35"/>
    </edge>
    <edge id=":gneJ15_2" function="internal">
        <lane id=":gneJ15_2_0" index="0" speed="13.89" length="5.00" shape="71.75,26.65 70.39,26.84 69.43,27.42 68.84,28.39 68.65,29.75"/>
    </edge>
    <edge id=":gneJ15_3" function="internal">
        <lane id=":gneJ15_3_0" index="0" speed="13.89" length="9.50" shape="71.75,26.65 62.25,26.65"/>
    </edge>
    <edge id=":gneJ15_4" function="internal">
        <lane id=":gneJ15_4_0" index="0" speed="13.89" length="9.50" shape="62.25,23.35 71.75,23.35"/>
    </edge>
    <edge id=":gneJ15_5" function="internal">
        <lane id=":gneJ15_5_0" index="0" speed="13.89" length="5.28" shape="62.25,23.35 65.05,23.75 67.05,24.95 67.11,25.05"/>
    </edge>
    <edge id=":gneJ15_6" function="internal">
        <lane id=":gneJ15_6_0" index="0" speed="13.89" length="5.04" shape="67.11,25.05 68.25,26.95 68.65,29.75"/>
    </edge>
    <edge id=":gneJ16_0" function="internal">
        <lane id=":gneJ16_0_0" index="0" speed="13.89" length="7.90" shape="45.35,28.25 45.66,26.11 46.58,24.57 48.11,23.66 50.25,23.35"/>
    </edge>
    <edge id=":gneJ16_1" function="internal">
        <lane id=":gneJ16_1_0" index="0" speed="13.89" length="2.58" shape="50.25,26.65 49.55,26.75 49.05,27.05 48.75,27.55 48.65,28.25"/>
    </edge>
    <edge id=":gneJ17_0" function="internal">
        <lane id=":gneJ17_0_0" index="0" speed="13.89" length="9.50" shape="45.35,49.75 45.35,40.25"/>
    </edge>
    <edge id=":gneJ17_1" function="internal">
        <lane id=":gneJ17_1_0" index="0" speed="13.89" length="5.28" shape="45.35,49.75 45.75,46.95 46.95,44.95 47.05,44.89"/>
    </edge>
    <edge id=":gneJ17_6" function="internal">
        <lane id=":gneJ17_6_0" index="0" speed="13.89" length="5.04" shape="47.05,44.89 48.95,43.75 51.75,43.35"/>
    </edge>
    <edge id=":gneJ17_2" function="internal">
        <lane id=":gneJ17_2_0" index="0" speed="13.89" length="5.00" shape="51.75,46.65 50.39,46.84 49.43,47.42 48.84,48.39 48.65,49.75"/>
    </edge>
    <edge id=":gneJ17_3" function="internal">
        <lane id=":gneJ17_3_0" index="0" speed="13.89" length="10.32" shape="51.75,46.65 48.95,46.25 46.95,45.05 45.75,43.05 45.35,40.25"/>
    </edge>
    <edge id=":gneJ17_4" function="internal">
        <lane id=":gneJ17_4_0" index="0" speed="13.89" length="5.00" shape="48.65,40.25 48.84,41.61 49.42,42.57 50.39,43.16 51.75,43.35"/>
    </edge>
    <edge id=":gneJ17_5" function="internal">
        <lane id=":gneJ17_5_0" index="0" speed="13.89" length="9.50" shape="48.65,40.25 48.65,49.75"/>
    </edge>
    <edge id=":gneJ18_0" function="internal">
        <lane id=":gneJ18_0_0" index="0" speed="13.89" length="7.90" shape="50.25,66.65 48.11,66.34 46.57,65.43 45.66,63.89 45.35,61.75"/>
    </edge>
    <edge id=":gneJ18_1" function="internal">
        <lane id=":gneJ18_1_0" index="0" speed="13.89" length="2.58" shape="48.65,61.75 48.75,62.45 49.05,62.95 49.55,63.25 50.25,63.35"/>
    </edge>
    <edge id=":gneJ19_0" function="internal">
        <lane id=":gneJ19_0_0" index="0" speed="13.89" length="5.00" shape="65.35,49.75 65.16,48.39 64.57,47.43 63.61,46.84 62.25,46.65"/>
    </edge>
    <edge id=":gneJ19_1" function="internal">
        <lane id=":gneJ19_1_0" index="0" speed="13.89" length="9.50" shape="65.35,49.75 65.35,40.25"/>
    </edge>
    <edge id=":gneJ19_2" function="internal">
        <lane id=":gneJ19_2_0" index="0" speed="13.89" length="5.28" shape="65.35,49.75 65.75,46.95 66.95,44.95 67.05,44.89"/>
    </edge>
    <edge id=":gneJ19_12" function="internal">
        <lane id=":gneJ19_12_0" index="0" speed="13.89" length="5.04" shape="67.05,44.89 68.95,43.75 71.75,43.35"/>
    </edge>
    <edge id=":gneJ19_3" function="internal">
        <lane id=":gneJ19_3_0" index="0" speed="13.89" length="5.00" shape="71.75,46.65 70.39,46.84 69.43,47.42 68.84,48.39 68.65,49.75"/>
    </edge>
    <edge id=":gneJ19_4" function="internal">
        <lane id=":gneJ19_4_0" index="0" speed="13.89" length="9.50" shape="71.75,46.65 62.25,46.65"/>
    </edge>
    <edge id=":gneJ19_5" function="internal">
        <lane id=":gneJ19_5_0" index="0" speed="13.89" length="10.32" shape="71.75,46.65 68.95,46.25 66.95,45.05 65.75,43.05 65.35,40.25"/>
    </edge>
    <edge id=":gneJ19_6" function="internal">
        <lane id=":gneJ19_6_0" index="0" speed="13.89" length="5.00" shape="68.65,40.25 68.84,41.61 69.43,42.57 70.39,43.16 71.75,43.35"/>
    </edge>
    <edge id=":gneJ19_7" function="internal">
        <lane id=":gneJ19_7_0" index="0" speed="13.89" length="9.50" shape="68.65,40.25 68.65,49.75"/>
    </edge>
    <edge id=":gneJ19_8" function="internal">
        <lane id=":gneJ19_8_0" index="0" speed="13.89" length="5.28" shape="68.65,40.25 68.25,43.05 67.05,45.05 66.95,45.11"/>
    </edge>
    <edge id=":gneJ19_13" function="internal">
        <lane id=":gneJ19_13_0" index="0" speed="13.89" length="5.04" shape="66.95,45.11 65.05,46.25 62.25,46.65"/>
    </edge>
    <edge id=":gneJ19_9" function="internal">
        <lane id=":gneJ19_9_0" index="0" speed="13.89" length="5.00" shape="62.25,43.35 63.61,43.16 64.57,42.58 65.16,41.61 65.35,40.25"/>
    </edge>
    <edge id=":gneJ19_10" function="internal">
        <lane id=":gneJ19_10_0" index="0" speed="13.89" length="9.50" shape="62.25,43.35 71.75,43.35"/>
    </edge>
    <edge id=":gneJ19_11" function="internal">
        <lane id=":gneJ19_11_0" index="0" speed="13.89" length="10.32" shape="62.25,43.35 65.05,43.75 67.05,44.95 68.25,46.95 68.65,49.75"/>
    </edge>
    <edge id=":gneJ6_0" function="internal">
        <lane id=":gneJ6_0_0" index="0" speed="13.89" length="7.90" shape="0.25,66.65 -1.89,66.34 -3.43,65.43 -4.34,63.89 -4.65,61.75"/>
    </edge>
    <edge id=":gneJ6_1" function="internal">
        <lane id=":gneJ6_1_0" index="0" speed="13.89" length="2.58" shape="-1.35,61.75 -1.25,62.45 -0.95,62.95 -0.45,63.25 0.25,63.35"/>
    </edge>
    <edge id=":gneJ7_0" function="internal">
        <lane id=":gneJ7_0_0" index="0" speed="13.89" length="7.90" shape="18.65,61.75 18.34,63.89 17.42,65.43 15.89,66.34 13.75,66.65"/>
    </edge>
    <edge id=":gneJ7_1" function="internal">
        <lane id=":gneJ7_1_0" index="0" speed="13.89" length="2.58" shape="13.75,63.35 14.45,63.25 14.95,62.95 15.25,62.45 15.35,61.75"/>
    </edge>
    <edge id=":gneJ8_0" function="internal">
        <lane id=":gneJ8_0_0" index="0" speed="13.89" length="2.58" shape="15.35,48.25 15.25,47.55 14.95,47.05 14.45,46.75 13.75,46.65"/>
    </edge>
    <edge id=":gneJ8_1" function="internal">
        <lane id=":gneJ8_1_0" index="0" speed="13.89" length="7.90" shape="13.75,43.35 15.89,43.66 17.43,44.58 18.34,46.11 18.65,48.25"/>
    </edge>
    <edge id=":gneJ9_0" function="internal">
        <lane id=":gneJ9_0_0" index="0" speed="13.89" length="7.90" shape="-4.65,48.25 -4.34,46.11 -3.43,44.57 -1.89,43.66 0.25,43.35"/>
    </edge>
    <edge id=":gneJ9_1" function="internal">
        <lane id=":gneJ9_1_0" index="0" speed="13.89" length="2.58" shape="0.25,46.65 -0.45,46.75 -0.95,47.05 -1.25,47.55 -1.35,48.25"/>
    </edge>

    <edge id="-gneE10" from="gneJ14" to="gneJ13" priority="1">
        <lane id="-gneE10_0" index="0" speed="13.89" length="12.00" shape="88.65,28.25 88.65,40.25"/>
    </edge>
    <edge id="-gneE11" from="gneJ15" to="gneJ14" priority="1">
        <lane id="-gneE11_0" index="0" speed="13.89" length="12.00" shape="71.75,23.35 83.75,23.35"/>
    </edge>
    <edge id="-gneE12" from="gneJ16" to="gneJ15" priority="1">
        <lane id="-gneE12_0" index="0" speed="13.89" length="12.00" shape="50.25,23.35 62.25,23.35"/>
    </edge>
    <edge id="-gneE13" from="gneJ17" to="gneJ16" priority="1">
        <lane id="-gneE13_0" index="0" speed="13.89" length="12.00" shape="45.35,40.25 45.35,28.25"/>
    </edge>
    <edge id="-gneE14" from="gneJ18" to="gneJ17" priority="1">
        <lane id="-gneE14_0" index="0" speed="13.89" length="12.00" shape="45.35,61.75 45.35,49.75"/>
    </edge>
    <edge id="-gneE15" from="gneJ11" to="gneJ18" priority="1">
        <lane id="-gneE15_0" index="0" speed="13.89" length="12.00" shape="62.25,66.65 50.25,66.65"/>
    </edge>
    <edge id="-gneE16" from="gneJ11" to="gneJ19" priority="1">
        <lane id="-gneE16_0" index="0" speed="13.89" length="10.50" shape="65.35,60.25 65.35,49.75"/>
    </edge>
    <edge id="-gneE17" from="gneJ13" to="gneJ19" priority="1">
        <lane id="-gneE17_0" index="0" speed="13.89" length="10.50" shape="82.25,46.65 71.75,46.65"/>
    </edge>
    <edge id="-gneE18" from="gneJ15" to="gneJ19" priority="1">
        <lane id="-gneE18_0" index="0" speed="13.89" length="10.50" shape="68.65,29.75 68.65,40.25"/>
    </edge>
    <edge id="-gneE19" from="gneJ17" to="gneJ19" priority="1">
        <lane id="-gneE19_0" index="0" speed="13.89" length="10.50" shape="51.75,43.35 62.25,43.35"/>
    </edge>
    <edge id="-gneE3" from="gneJ5" to="gneJ4" priority="1">
        <lane id="-gneE3_0" index="0" speed="13.89" length="20.00" shape="97.00,86.65 77.00,86.65"/>
    </edge>
    <edge id="-gneE4" from="gneJ7" to="gneJ6" priority="1">
        <lane id="-gneE4_0" index="0" speed="13.89" length="13.50" shape="13.75,66.65 0.25,66.65"/>
    </edge>
    <edge id="-gneE5" from="gneJ8" to="gneJ7" priority="1">
        <lane id="-gneE5_0" index="0" speed="13.89" length="13.50" shape="18.65,48.25 18.65,61.75"/>
    </edge>
    <edge id="-gneE6" from="gneJ9" to="gneJ8" priority="1">
        <lane id="-gneE6_0" index="0" speed="13.89" length="13.50" shape="0.25,43.35 13.75,43.35"/>
    </edge>
    <edge id="-gneE7" from="gneJ6" to="gneJ9" priority="1">
        <lane id="-gneE7_0" index="0" speed="13.89" length="13.50" shape="-4.65,61.75 -4.65,48.25"/>
    </edge>
    <edge id="-gneE8" from="gneJ12" to="gneJ11" priority="1">
        <lane id="-gneE8_0" index="0" speed="13.89" length="12.00" shape="83.75,66.65 71.75,66.65"/>
    </edge>
    <edge id="-gneE9" from="gneJ13" to="gneJ12" priority="1">
        <lane id="-gneE9_0" index="0" speed="13.89" length="12.00" shape="88.65,49.75 88.65,61.75"/>
    </edge>
    <edge id="gneE0" from="gneJ0" to="gneJ1" priority="1">
        <lane id="gneE0_0" index="0" speed="13.89" length="20.00" shape="-3.00,83.35 17.00,83.35"/>
    </edge>
    <edge id="gneE1" from="gneJ2" to="gneJ3" priority="1">
        <lane id="gneE1_0" index="0" speed="13.89" length="20.00" shape="37.00,83.35 57.00,83.35"/>
    </edge>
    <edge id="gneE10" from="gneJ13" to="gneJ14" priority="1">
        <lane id="gneE10_0" index="0" speed="13.89" length="12.00" shape="85.35,40.25 85.35,28.25"/>
    </edge>
    <edge id="gneE11" from="gneJ14" to="gneJ15" priority="1">
        <lane id="gneE11_0" index="0" speed="13.89" length="12.00" shape="83.75,26.65 71.75,26.65"/>
    </edge>
    <edge id="gneE12" from="gneJ15" to="gneJ16" priority="1">
        <lane id="gneE12_0" index="0" speed="13.89" length="12.00" shape="62.25,26.65 50.25,26.65"/>
    </edge>
    <edge id="gneE13" from="gneJ16" to="gneJ17" priority="1">
        <lane id="gneE13_0" index="0" speed="13.89" length="12.00" shape="48.65,28.25 48.65,40.25"/>
    </edge>
    <edge id="gneE14" from="gneJ17" to="gneJ18" priority="1">
        <lane id="gneE14_0" index="0" speed="13.89" length="12.00" shape="48.65,49.75 48.65,61.75"/>
    </edge>
    <edge id="gneE15" from="gneJ18" to="gneJ11" priority="1">
        <lane id="gneE15_0" index="0" speed="13.89" length="12.00" shape="50.25,63.35 62.25,63.35"/>
    </edge>
    <edge id="gneE16" from="gneJ19" to="gneJ11" priority="1">
        <lane id="gneE16_0" index="0" speed="13.89" length="10.50" shape="68.65,49.75 68.65,60.25"/>
    </edge>
    <edge id="gneE17" from="gneJ19" to="gneJ13" priority="1">
        <lane id="gneE17_0" index="0" speed="13.89" length="10.50" shape="71.75,43.35 82.25,43.35"/>
    </edge>
    <edge id="gneE18" from="gneJ19" to="gneJ15" priority="1">
        <lane id="gneE18_0" index="0" speed="13.89" length="10.50" shape="65.35,40.25 65.35,29.75"/>
    </edge>
    <edge id="gneE19" from="gneJ19" to="gneJ17" priority="1">
        <lane id="gneE19_0" index="0" speed="13.89" length="10.50" shape="62.25,46.65 51.75,46.65"/>
    </edge>
    <edge id="gneE2" from="gneJ3" to="gneJ2" priority="1">
        <lane id="gneE2_0" index="0" speed="13.89" length="20.00" shape="57.00,86.65 37.00,86.65"/>
    </edge>
    <edge id="gneE3" from="gneJ4" to="gneJ5" priority="1">
        <lane id="gneE3_0" index="0" speed="13.89" length="20.00" shape="77.00,83.35 97.00,83.35"/>
    </edge>
    <edge id="gneE4" from="gneJ6" to="gneJ7" priority="1">
        <lane id="gneE4_0" index="0" speed="13.89" length="13.50" shape="0.25,63.35 13.75,63.35"/>
    </edge>
    <edge id="gneE5" from="gneJ7" to="gneJ8" priority="1">
        <lane id="gneE5_0" index="0" speed="13.89" length="13.50" shape="15.35,61.75 15.35,48.25"/>
    </edge>
    <edge id="gneE6" from="gneJ8" to="gneJ9" priority="1">
        <lane id="gneE6_0" index="0" speed="13.89" length="13.50" shape="13.75,46.65 0.25,46.65"/>
    </edge>
    <edge id="gneE7" from="gneJ9" to="gneJ6" priority="1">
        <lane id="gneE7_0" index="0" speed="13.89" length="13.50" shape="-1.35,48.25 -1.35,61.75"/>
    </edge>
    <edge id="gneE8" from="gneJ11" to="gneJ12" priority="1">
        <lane id="gneE8_0" index="0" speed="13.89" length="12.00" shape="71.75,63.35 83.75,63.35"/>
    </edge>
    <edge id="gneE9" from="gneJ12" to="gneJ13" priority="1">
        <lane id="gneE9_0" index="0" speed="13.89" length="12.00" shape="85.35,61.75 85.35,49.75"/>
    </edge>

    <junction id="gneJ0" type="dead_end" x="-3.00" y="85.00" incLanes="" intLanes="" shape="-3.00,84.95 -3.00,81.75"/>
    <junction id="gneJ1" type="dead_end" x="17.00" y="85.00" incLanes="gneE0_0" intLanes="" shape="17.00,81.75 17.00,84.95"/>
    <junction id="gneJ11" type="priority" x="67.00" y="65.00" incLanes="-gneE8_0 gneE16_0 gneE15_0" intLanes=":gneJ11_0_0 :gneJ11_6_0 :gneJ11_2_0 :gneJ11_3_0 :gneJ11_4_0 :gneJ11_5_0" shape="71.75,68.25 71.75,61.75 70.25,60.25 63.75,60.25 62.25,61.75 62.25,68.25">
        <request index="0" response="000000" foes="001000" cont="0"/>
        <request index="1" response="110000" foes="111000" cont="1"/>
        <request index="2" response="100000" foes="100000" cont="0"/>
        <request index="3" response="100011" foes="100011" cont="0"/>
        <request index="4" response="000000" foes="000010" cont="0"/>
        <request index="5" response="000000" foes="001110" cont="0"/>
    </junction>
    <junction id="gneJ12" type="priority" x="87.00" y="65.00" incLanes="-gneE9_0 gneE8_0" intLanes=":gneJ12_0_0 :gneJ12_1_0" shape="90.25,61.75 83.75,61.75 83.75,68.25">
        <request index="0" response="00" foes="00" cont="0"/>
        <request index="1" response="00" foes="00" cont="0"/>
    </junction>
    <junction id="gneJ13" type="priority" x="87.00" y="45.00" incLanes="gneE9_0 -gneE10_0 gneE17_0" intLanes=":gneJ13_0_0 :gneJ13_1_0 :gneJ13_2_0 :gneJ13_6_0 :gneJ13_4_0 :gneJ13_5_0" shape="83.75,49.75 90.25,49.75 90.25,40.25 83.75,40.25 82.25,41.75 82.25,48.25">
        <request index="0" response="000000" foes="001000" cont="0"/>
        <request index="1" response="000000" foes="111000" cont="0"/>
        <request index="2" response="000000" foes="100000" cont="0"/>
        <request index="3" response="000011" foes="100011" cont="1"/>
        <request index="4" response="000010" foes="000010" cont="0"/>
        <request index="5" response="001110" foes="001110" cont="0"/>
    </junction>
    <junction id="gneJ14" type="priority" x="87.00" y="25.00" incLanes="gneE10_0 -gneE11_0" intLanes=":gneJ14_0_0 :gneJ14_1_0" shape="83.75,28.25 90.25,28.25 83.75,21.75">
        <request index="0" response="00" foes="00" cont="0"/>
        <request index="1" response="00" foes="00" cont="0"/>
    </junction>
    <junction id="gneJ15" type="priority" x="67.00" y="25.00" incLanes="gneE18_0 gneE11_0 -gneE12_0" intLanes=":gneJ15_0_0 :gneJ15_1_0 :gneJ15_2_0 :gneJ15_3_0 :gneJ15_4_0 :gneJ15_6_0" shape="63.75,29.75 70.25,29.75 71.75,28.25 71.75,21.75 62.25,21.75 62.25,28.25">
        <request index="0" response="001000" foes="001000" cont="0"/>
        <request index="1" response="111000" foes="111000" cont="0"/>
        <request index="2" response="000000" foes="100000" cont="0"/>
        <request index="3" response="000000" foes="100011" cont="0"/>
        <request index="4" response="000000" foes="000010" cont="0"/>
        <request index="5" response="001100" foes="001110" cont="1"/>
    </junction>
    <junction id="gneJ16" type="priority" x="47.00" y="25.00" incLanes="-gneE13_0 gneE12_0" intLanes=":gneJ16_0_0 :gneJ16_1_0" shape="43.75,28.25 50.25,28.25 50.25,21.75">
        <request index="0" response="00" foes="00" cont="0"/>
        <request index="1" response="00" foes="00" cont="0"/>
    </junction>
    <junction id="gneJ17" type="priority" x="47.00" y="45.00" incLanes="-gneE14_0 gneE19_0 gneE13_0" intLanes=":gneJ17_0_0 :gneJ17_6_0 :gneJ17_2_0 :gneJ17_3_0 :gneJ17_4_0 :gneJ17_5_0" shape="43.75,49.75 50.25,49.75 51.75,48.25 51.75,41.75 50.25,40.25 43.75,40.25">
        <request index="0" response="000000" foes="001000" cont="0"/>
        <request index="1" response="110000" foes="111000" cont="1"/>
        <request index="2" response="100000" foes="100000" cont="0"/>
        <request index="3" response="100011" foes="100011" cont="0"/>
        <request index="4" response="000000" foes="000010" cont="0"/>
        <request index="5" response="000000" foes="001110" cont="0"/>
    </junction>
    <junction id="gneJ18" type="priority" x="47.00" y="65.00" incLanes="-gneE15_0 gneE14_0" intLanes=":gneJ18_0_0 :gneJ18_1_0" shape="50.25,68.25 50.25,61.75 43.75,61.75">
        <request index="0" response="00" foes="00" cont="0"/>
        <request index="1" response="00" foes="00" cont="0"/>
    </junction>
    <junction id="gneJ19" type="priority" x="67.00" y="45.00" incLanes="-gneE16_0 -gneE17_0 -gneE18_0 -gneE19_0" intLanes=":gneJ19_0_0 :gneJ19_1_0 :gneJ19_12_0 :gneJ19_3_0 :gneJ19_4_0 :gneJ19_5_0 :gneJ19_6_0 :gneJ19_7_0 :gneJ19_13_0 :gneJ19_9_0 :gneJ19_10_0 :gneJ19_11_0" shape="63.75,49.75 70.25,49.75 71.75,48.25 71.75,41.75 70.25,40.25 63.75,40.25 62.25,41.75 62.25,48.25">
        <request index="0" response="000000000000" foes="000100010000" cont="0"/>
        <request index="1" response="000000000000" foes="111100110000" cont="0"/>
        <request index="2" response="000011000000" foes="110011110000" cont="1"/>
        <request index="3" response="000010000000" foes="100010000000" cont="0"/>
        <request index="4" response="000110000111" foes="100110000111" cont="0"/>
        <request index="5" response="011110000110" foes="011110000110" cont="0"/>
        <request index="6" response="000000000000" foes="010000000100" cont="0"/>
        <request index="7" response="000000000000" foes="110000111100" cont="0"/>
        <request index="8" response="000000000011" foes="110000110011" cont="1"/>
        <request index="9" response="000000000010" foes="000000100010" cont="0"/>
        <request index="10" response="000111000110" foes="000111100110" cont="0"/>
        <request index="11" response="000110011110" foes="000110011110" cont="0"/>
    </junction>
    <junction id="gneJ2" type="dead_end" x="37.00" y="85.00" incLanes="gneE2_0" intLanes="" shape="37.00,84.95 37.00,88.25 37.00,85.05"/>
    <junction id="gneJ3" type="dead_end" x="57.00" y="85.00" incLanes="gneE1_0" intLanes="" shape="57.00,85.05 57.00,81.75 57.00,84.95"/>
    <junction id="gneJ4" type="dead_end" x="77.00" y="85.00" incLanes="-gneE3_0" intLanes="" shape="77.00,84.95 77.00,88.25 77.00,85.05"/>
    <junction id="gneJ5" type="dead_end" x="97.00" y="85.00" incLanes="gneE3_0" intLanes="" shape="97.00,85.05 97.00,81.75 97.00,84.95"/>
    <junction id="gneJ6" type="priority" x="-3.00" y="65.00" incLanes="-gneE4_0 gneE7_0" intLanes=":gneJ6_0_0 :gneJ6_1_0" shape="0.25,68.25 0.25,61.75 -6.25,61.75">
        <request index="0" response="00" foes="00" cont="0"/>
        <request index="1" response="00" foes="00" cont="0"/>
    </junction>
    <junction id="gneJ7" type="priority" x="17.00" y="65.00" incLanes="-gneE5_0 gneE4_0" intLanes=":gneJ7_0_0 :gneJ7_1_0" shape="20.25,61.75 13.75,61.75 13.75,68.25">
        <request index="0" response="00" foes="00" cont="0"/>
        <request index="1" response="00" foes="00" cont="0"/>
    </junction>
    <junction id="gneJ8" type="priority" x="17.00" y="45.00" incLanes="gneE5_0 -gneE6_0" intLanes=":gneJ8_0_0 :gneJ8_1_0" shape="13.75,48.25 20.25,48.25 13.75,41.75">
        <request index="0" response="00" foes="00" cont="0"/>
        <request index="1" response="00" foes="00" cont="0"/>
    </junction>
    <junction id="gneJ9" type="priority" x="-3.00" y="45.00" incLanes="-gneE7_0 gneE6_0" intLanes=":gneJ9_0_0 :gneJ9_1_0" shape="-6.25,48.25 0.25,48.25 0.25,41.75">
        <request index="0" response="00" foes="00" cont="0"/>
        <request index="1" response="00" foes="00" cont="0"/>
    </junction>

    <junction id=":gneJ11_6_0" type="internal" x="66.89" y="64.95" incLanes=":gneJ11_1_0 gneE15_0" intLanes=":gneJ11_3_0 :gneJ11_4_0 :gneJ11_5_0"/>
    <junction id=":gneJ13_6_0" type="internal" x="86.95" y="45.11" incLanes=":gneJ13_3_0 gneE9_0" intLanes=":gneJ13_0_0 :gneJ13_1_0 :gneJ13_5_0"/>
    <junction id=":gneJ15_6_0" type="internal" x="67.11" y="25.05" incLanes=":gneJ15_5_0 gneE11_0" intLanes=":gneJ15_1_0 :gneJ15_2_0 :gneJ15_3_0"/>
    <junction id=":gneJ17_6_0" type="internal" x="47.05" y="44.89" incLanes=":gneJ17_1_0 gneE13_0" intLanes=":gneJ17_3_0 :gneJ17_4_0 :gneJ17_5_0"/>
    <junction id=":gneJ19_12_0" type="internal" x="67.05" y="44.89" incLanes=":gneJ19_2_0 -gneE18_0" intLanes=":gneJ19_4_0 :gneJ19_5_0 :gneJ19_6_0 :gneJ19_7_0 :gneJ19_10_0 :gneJ19_11_0"/>
    <junction id=":gneJ19_13_0" type="internal" x="66.95" y="45.11" incLanes=":gneJ19_8_0 -gneE16_0" intLanes=":gneJ19_0_0 :gneJ19_1_0 :gneJ19_4_0 :gneJ19_5_0 :gneJ19_10_0 :gneJ19_11_0"/>

    <connection from="-gneE10" to="-gneE9" fromLane="0" toLane="0" via=":gneJ13_2_0" dir="s" state="M"/>
    <connection from="-gneE10" to="-gneE17" fromLane="0" toLane="0" via=":gneJ13_3_0" dir="l" state="m"/>
    <connection from="-gneE11" to="-gneE10" fromLane="0" toLane="0" via=":gneJ14_1_0" dir="l" state="M"/>
    <connection from="-gneE12" to="-gneE11" fromLane="0" toLane="0" via=":gneJ15_4_0" dir="s" state="M"/>
    <connection from="-gneE12" to="-gneE18" fromLane="0" toLane="0" via=":gneJ15_5_0" dir="l" state="m"/>
    <connection from="-gneE13" to="-gneE12" fromLane="0" toLane="0" via=":gneJ16_0_0" dir="l" state="M"/>
    <connection from="-gneE14" to="-gneE13" fromLane="0" toLane="0" via=":gneJ17_0_0" dir="s" state="M"/>
    <connection from="-gneE14" to="-gneE19" fromLane="0" toLane="0" via=":gneJ17_1_0" dir="l" state="m"/>
    <connection from="-gneE15" to="-gneE14" fromLane="0" toLane="0" via=":gneJ18_0_0" dir="l" state="M"/>
    <connection from="-gneE16" to="gneE19" fromLane="0" toLane="0" via=":gneJ19_0_0" dir="r" state="M"/>
    <connection from="-gneE16" to="gneE18" fromLane="0" toLane="0" via=":gneJ19_1_0" dir="s" state="M"/>
    <connection from="-gneE16" to="gneE17" fromLane="0" toLane="0" via=":gneJ19_2_0" dir="l" state="m"/>
    <connection from="-gneE17" to="gneE16" fromLane="0" toLane="0" via=":gneJ19_3_0" dir="r" state="m"/>
    <connection from="-gneE17" to="gneE19" fromLane="0" toLane="0" via=":gneJ19_4_0" dir="s" state="m"/>
    <connection from="-gneE17" to="gneE18" fromLane="0" toLane="0" via=":gneJ19_5_0" dir="l" state="m"/>
    <connection from="-gneE18" to="gneE17" fromLane="0" toLane="0" via=":gneJ19_6_0" dir="r" state="M"/>
    <connection from="-gneE18" to="gneE16" fromLane="0" toLane="0" via=":gneJ19_7_0" dir="s" state="M"/>
    <connection from="-gneE18" to="gneE19" fromLane="0" toLane="0" via=":gneJ19_8_0" dir="l" state="m"/>
    <connection from="-gneE19" to="gneE18" fromLane="0" toLane="0" via=":gneJ19_9_0" dir="r" state="m"/>
    <connection from="-gneE19" to="gneE17" fromLane="0" toLane="0" via=":gneJ19_10_0" dir="s" state="m"/>
    <connection from="-gneE19" to="gneE16" fromLane="0" toLane="0" via=":gneJ19_11_0" dir="l" state="m"/>
    <connection from="-gneE4" to="-gneE7" fromLane="0" toLane="0" via=":gneJ6_0_0" dir="l" state="M"/>
    <connection from="-gneE5" to="-gneE4" fromLane="0" toLane="0" via=":gneJ7_0_0" dir="l" state="M"/>