<?xml version="1.0" encoding="UTF-8"?>

<!-- generated on 2024-05-10 19:47:09 by Eclipse SUMO sumo Version v1_14_1+12899-7f5df916f58
This data file and the accompanying materials
are made available under the terms of the Eclipse Public License v2.0
which accompanies this distribution, and is available at
http://www.eclipse.org/legal/epl-v20.html
This file may also be made available under the following Secondary
Licenses when the conditions for such availability set forth in the Eclipse
Public License 2.0 are satisfied: GNU General Public License, version 2
or later which is available at
https://www.gnu.org/licenses/old-licenses/gpl-2.0-standalone.html
SPDX-License-Identifier: EPL-2.0 OR GPL-2.0-or-later
<configuration xmlns:xsi="http://www.w3.org/2001/XMLSchema-instance" xsi:noNamespaceSchemaLocation="http://sumo.dlr.de/xsd/sumoConfiguration.xsd">

    <input>
        <net-file value="net.net.xml"/>
        <route-files value="input_routes.rou.xml"/>
        <additional-files value="input_additional.add.xml"/>
    </input>

    <output>
        <write-license value="true"/>
        <battery-output value="battery.xml"/>
        <battery-output.precision value="4"/>
        <chargingstations-output value="chargingstations.xml"/>
        <tripinfo-output value="tripinfos.xml"/>
    </output>

    <processing>
        <default.speeddev value="0"/>
    </processing>

    <report>
        <xml-validation value="never"/>
        <duration-log.disable value="true"/>
        <no-step-log value="true"/>
    </report>

    <battery>
        <device.stationfinder.probability value="1"/>
        <device.stationfinder.emptyThreshold value="0"/>
    </battery>

</configuration>
-->

<battery-export xmlns:xsi="http://www.w3.org/2001/XMLSchema-instance" xsi:noNamespaceSchemaLocation="http://sumo.dlr.de/xsd/battery_file.xsd">
    <timestep time="0.00">
        <vehicle id="veh0" energyConsumed="0.0000" totalEnergyConsumed="0.0000" totalEnergyRegenerated="0.0000" actualBatteryCapacity="60.0000" maximumBatteryCapacity="6000.0000" chargingStationId="NULL" energyCharged="0.0000" energyChargedInTransit="0.0000" energyChargedStopped="0.0000" speed="0.0000" acceleration="0.0000" x="-981.9000" y="995.0500" lane="D2_0" posOnLane="18.1000" timeStopped="0"/>
    </timestep>
    <timestep time="1.00">
        <vehicle id="veh0" energyConsumed="0.3125" totalEnergyConsumed="0.3125" totalEnergyRegenerated="0.0000" actualBatteryCapacity="59.6875" maximumBatteryCapacity="6000.0000" chargingStationId="NULL" energyCharged="0.0000" energyChargedInTransit="0.0000" energyChargedStopped="0.0000" speed="1.0000" acceleration="1.0000" x="-980.9000" y="995.0500" lane="D2_0" posOnLane="19.1000" timeStopped="0"/>
    </timestep>
    <timestep time="2.00">
        <vehicle id="veh0" energyConsumed="0.8649" totalEnergyConsumed="1.1774" totalEnergyRegenerated="0.0000" actualBatteryCapacity="58.8226" maximumBatteryCapacity="6000.0000" chargingStationId="NULL" energyCharged="0.0000" energyChargedInTransit="0.0000" energyChargedStopped="0.0000" speed="2.0000" acceleration="1.0000" x="-978.9000" y="995.0500" lane="D2_0" posOnLane="21.1000" timeStopped="0"/>
    </timestep>
    <timestep time="3.00">
        <vehicle id="veh0" energyConsumed="1.4190" totalEnergyConsumed="2.5963" totalEnergyRegenerated="0.0000" actualBatteryCapacity="57.4037" maximumBatteryCapacity="6000.0000" chargingStationId="NULL" energyCharged="0.0000" energyChargedInTransit="0.0000" energyChargedStopped="0.0000" speed="3.0000" acceleration="1.0000" x="-975.9000" y="995.0500" lane="D2_0" posOnLane="24.1000" timeStopped="0"/>
    </timestep>
    <timestep time="4.00">
        <vehicle id="veh0" energyConsumed="1.9755" totalEnergyConsumed="4.5718" totalEnergyRegenerated="0.0000" actualBatteryCapacity="55.4282" maximumBatteryCapacity="6000.0000" chargingStationId="NULL" energyCharged="0.0000" energyChargedInTransit="0.0000" energyChargedStopped="0.0000" speed="4.0000" acceleration="1.0000" x="-971.9000" y="995.0500" lane="D2_0" posOnLane="28.1000" timeStopped="0"/>
    </timestep>
    <timestep time="5.00">
        <vehicle id="veh0" energyConsumed="2.5352" totalEnergyConsumed="7.1071" totalEnergyRegenerated="0.0000" actualBatteryCapacity="52.8929" maximumBatteryCapacity="6000.0000" chargingStationId="NULL" energyCharged="0.0000" energyChargedInTransit="0.0000" energyChargedStopped="0.0000" speed="5.0000" acceleration="1.0000" x="-966.9000" y="995.0500" lane="D2_0" posOnLane="33.1000" timeStopped="0"/>
    </timestep>
    <timestep time="6.00">
        <vehicle id="veh0" energyConsumed="3.0990" totalEnergyConsumed="10.2061" totalEnergyRegenerated="0.0000" actualBatteryCapacity="49.7939" maximumBatteryCapacity="6000.0000" chargingStationId="NULL" energyCharged="0.0000" energyChargedInTransit="0.0000" energyChargedStopped="0.0000" speed="6.0000" acceleration="1.0000" x="-960.9000" y="995.0500" lane="D2_0" posOnLane="39.1000" timeStopped="0"/>
    </timestep>
    <timestep time="7.00">
        <vehicle id="veh0" energyConsumed="3.6677" totalEnergyConsumed="13.8738" totalEnergyRegenerated="0.0000" actualBatteryCapacity="46.1262" maximumBatteryCapacity="6000.0000" chargingStationId="NULL" energyCharged="0.0000" energyChargedInTransit="0.0000" energyChargedStopped="0.0000" speed="7.0000" acceleration="1.0000" x="-953.9000" y="995.0500" lane="D2_0" posOnLane="46.1000" timeStopped="0"/>
    </timestep>
    <timestep time="8.00">
        <vehicle id="veh0" energyConsumed="4.2420" totalEnergyConsumed="18.1158" totalEnergyRegenerated="0.0000" actualBatteryCapacity="41.8842" maximumBatteryCapacity="6000.0000" chargingStationId="NULL" energyCharged="0.0000" energyChargedInTransit="0.0000" energyChargedStopped="0.0000" speed="8.0000" acceleration="1.0000" x="-945.9000" y="995.0500" lane="D2_0" posOnLane="54.1000" timeStopped="0"/>
    </timestep>
    <timestep time="9.00">
        <vehicle id="veh0" energyConsumed="4.8228" totalEnergyConsumed="22.9385" totalEnergyRegenerated="0.0000" actualBatteryCapacity="37.0615" maximumBatteryCapacity="6000.0000" chargingStationId="NULL" energyCharged="0.0000" energyChargedInTransit="0.0000" energyChargedStopped="0.0000" speed="9.0000" acceleration="1.0000" x="-936.9000" y="995.0500" lane="D2_0" posOnLane="63.1000" timeStopped="0"/>
    </timestep>
    <timestep time="10.00">
        <vehicle id="veh0" energyConsumed="-9.0241" totalEnergyConsumed="22.9385" totalEnergyRegenerated="9.0241" actualBatteryCapacity="46.0855" maximumBatteryCapacity="6000.0000" chargingStationId="NULL" energyCharged="0.0000" energyChargedInTransit="0.0000" energyChargedStopped="0.0000" speed="5.9500" acceleration="-3.0500" x="-930.9500" y="995.0500" lane="D2_0" posOnLane="69.0500" timeStopped="0"/>
    </timestep>
    <timestep time="11.00">
        <vehicle id="veh0" energyConsumed="-6.9820" totalEnergyConsumed="22.9385" totalEnergyRegenerated="16.0061" actualBatteryCapacity="53.0675" maximumBatteryCapacity="6000.0000" chargingStationId="NULL" energyCharged="0.0000" energyChargedInTransit="0.0000" energyChargedStopped="0.0000" speed="0.9500" acceleration="-5.0000" x="-930.0000" y="995.0500" lane="D2_0" posOnLane="70.0000" timeStopped="0"/>
    </timestep>
    <timestep time="12.00">
        <vehicle id="veh0" energyConsumed="-0.1739" totalEnergyConsumed="22.9385" totalEnergyRegenerated="16.1800" actualBatteryCapacity="55.8803" maximumBatteryCapacity="6000.0000" chargingStationId="CS1" energyCharged="2.6389" energyChargedInTransit="0.0000" energyChargedStopped="2.6389" speed="0.0000" acceleration="-0.9500" x="-930.0000" y="995.0500" lane="D2_0" posOnLane="70.0000" timeStopped="1"/>
    </timestep>
    <timestep time="13.00">
        <vehicle id="veh0" energyConsumed="0.0123" totalEnergyConsumed="22.9509" totalEnergyRegenerated="16.1800" actualBatteryCapacity="58.5069" maximumBatteryCapacity="6000.0000" chargingStationId="CS1" energyCharged="2.6389" energyChargedInTransit="0.0000" energyChargedStopped="2.6389" speed="0.0000" acceleration="0.0000" x="-930.0000" y="995.0500" lane="D2_0" posOnLane="70.0000" timeStopped="2"/>
    </timestep>
    <timestep time="14.00">
        <vehicle id="veh0" energyConsumed="0.0123" totalEnergyConsumed="22.9632" totalEnergyRegenerated="16.1800" actualBatteryCapacity="61.1334" maximumBatteryCapacity="6000.0000" chargingStationId="CS1" energyCharged="2.6389" energyChargedInTransit="0.0000" energyChargedStopped="2.6389" speed="0.0000" acceleration="0.0000" x="-930.0000" y="995.0500" lane="D2_0" posOnLane="70.0000" timeStopped="3"/>
    </timestep>
    <timestep time="15.00">
        <vehicle id="veh0" energyConsumed="0.0123" totalEnergyConsumed="22.9756" totalEnergyRegenerated="16.1800" actualBatteryCapacity="63.7599" maximumBatteryCapacity="6000.0000" chargingStationId="CS1" energyCharged="2.6389" energyChargedInTransit="0.0000" energyChargedStopped="2.6389" speed="0.0000" acceleration="0.0000" x="-930.0000" y="995.0500" lane="D2_0" posOnLane="70.0000" timeStopped="4"/>
    </timestep>
    <timestep time="16.00">
        <vehicle id="veh0" energyConsumed="0.0123" totalEnergyConsumed="22.9879" totalEnergyRegenerated="16.1800" actualBatteryCapacity="66.3865" maximumBatteryCapacity="6000.0000" chargingStationId="CS1" energyCharged="2.6389" energyChargedInTransit="0.0000" energyChargedStopped="2.6389" speed="0.0000" acceleration="0.0000" x="-930.0000" y="995.0500" lane="D2_0" posOnLane="70.0000" timeStopped="5"/>
    </timestep>
    <timestep time="17.00">
        <vehicle id="veh0" energyConsumed="0.0123" totalEnergyConsumed="23.0003" totalEnergyRegenerated="16.1800" actualBatteryCapacity="69.0130" maximumBatteryCapacity="6000.0000" chargingStationId="CS1" energyCharged="2.6389" energyChargedInTransit="0.0000" energyChargedStopped="2.6389" speed="0.0000" acceleration="0.0000" x="-930.0000" y="995.0500" lane="D2_0" posOnLane="70.0000" timeStopped="6"/>
    </timestep>
    <timestep time="18.00">
        <vehicle id="veh0" energyConsumed="0.0123" totalEnergyConsumed="23.0126" totalEnergyRegenerated="16.1800" actualBatteryCapacity="71.6396" maximumBatteryCapacity="6000.0000" chargingStationId="CS1" energyCharged="2.6389" energyChargedInTransit="0.0000" energyChargedStopped="2.6389" speed="0.0000" acceleration="0.0000" x="-930.0000" y="995.0500" lane="D2_0" posOnLane="70.0000" timeStopped="7"/>
    </timestep>
    <timestep time="19.00">
        <vehicle id="veh0" energyConsumed="0.0123" totalEnergyConsumed="23.0250" totalEnergyRegenerated="16.1800" actualBatteryCapacity="74.2661" maximumBatteryCapacity="6000.0000" chargingStationId="CS1" energyCharged="2.6389" energyChargedInTransit="0.0000" energyChargedStopped="2.6389" speed="0.0000" acceleration="0.0000" x="-930.0000" y="995.0500" lane="D2_0" posOnLane="70.0000" timeStopped="8"/>
    </timestep>
    <timestep time="20.00">
        <vehicle id="veh0" energyConsumed="0.0123" totalEnergyConsumed="23.0373" totalEnergyRegenerated="16.1800" actualBatteryCapacity="76.8927" maximumBatteryCapacity="6000.0000" chargingStationId="CS1" energyCharged="2.6389" energyChargedInTransit="0.0000" energyChargedStopped="2.6389" speed="0.0000" acceleration="0.0000" x="-930.0000" y="995.0500" lane="D2_0" posOnLane="70.0000" timeStopped="9"/>
        <vehicle id="veh1" energyConsumed="0.0000" totalEnergyConsumed="0.0000" totalEnergyRegenerated="0.0000" actualBatteryCapacity="90.0000" maximumBatteryCapacity="6000.0000" chargingStationId="NULL" energyCharged="0.0000" energyChargedInTransit="0.0000" energyChargedStopped="0.0000" speed="0.0000" acceleration="0.0000" x="-981.9000" y="995.0500" lane="D2_0" posOnLane="18.1000" timeStopped="0"/>
    </timestep>
    <timestep time="21.00">
        <vehicle id="veh0" energyConsumed="0.0123" totalEnergyConsumed="23.0497" totalEnergyRegenerated="16.1800" actualBatteryCapacity="79.5192" maximumBatteryCapacity="6000.0000" chargingStationId="CS1" energyCharged="2.6389" energyChargedInTransit="0.0000" energyChargedStopped="2.6389" speed="0.0000" acceleration="0.0000" x="-930.0000" y="995.0500" lane="D2_0" posOnLane="70.0000" timeStopped="10"/>
        <vehicle id="veh1" energyConsumed="0.3125" totalEnergyConsumed="0.3125" totalEnergyRegenerated="0.0000" actualBatteryCapacity="89.6875" maximumBatteryCapacity="6000.0000" chargingStationId="NULL" energyCharged="0.0000" energyChargedInTransit="0.0000" energyChargedStopped="0.0000" speed="1.0000" acceleration="1.0000" x="-980.9000" y="998.3500" lane="D2_1" posOnLane="19.1000" timeStopped="0"/>
    </timestep>
    <timestep time="22.00">
        <vehicle id="veh0" energyConsumed="0.0123" totalEnergyConsumed="23.0620" totalEnergyRegenerated="16.1800" actualBatteryCapacity="82.1457" maximumBatteryCapacity="6000.0000" chargingStationId="CS1" energyCharged="2.6389" energyChargedInTransit="0.0000" energyChargedStopped="2.6389" speed="0.0000" acceleration="0.0000" x="-930.0000" y="995.0500" lane="D2_0" posOnLane="70.0000" timeStopped="11"/>
        <vehicle id="veh1" energyConsumed="0.8649" totalEnergyConsumed="1.1774" totalEnergyRegenerated="0.0000" actualBatteryCapacity="88.8226" maximumBatteryCapacity="6000.0000" chargingStationId="NULL" energyCharged="0.0000" energyChargedInTransit="0.0000" energyChargedStopped="0.0000" speed="2.0000" acceleration="1.0000" x="-978.9000" y="998.3500" lane="D2_1" posOnLane="21.1000" timeStopped="0"/>
    </timestep>
    <timestep time="23.00">
        <vehicle id="veh0" energyConsumed="0.0123" totalEnergyConsumed="23.0743" totalEnergyRegenerated="16.1800" actualBatteryCapacity="84.7723" maximumBatteryCapacity="6000.0000" chargingStationId="CS1" energyCharged="2.6389" energyChargedInTransit="0.0000" energyChargedStopped="2.6389" speed="0.0000" acceleration="0.0000" x="-930.0000" y="995.0500" lane="D2_0" posOnLane="70.0000" timeStopped="12"/>
        <vehicle id="veh1" energyConsumed="1.4190" totalEnergyConsumed="2.5963" totalEnergyRegenerated="0.0000" actualBatteryCapacity="87.4037" maximumBatteryCapacity="6000.0000" chargingStationId="NULL" energyCharged="0.0000" energyChargedInTransit="0.0000" energyChargedStopped="0.0000" speed="3.0000" acceleration="1.0000" x="-975.9000" y="998.3500" lane="D2_1" posOnLane="24.1000" timeStopped="0"/>
    </timestep>
    <timestep time="24.00">
        <vehicle id="veh0" energyConsumed="0.0123" totalEnergyConsumed="23.0867" totalEnergyRegenerated="16.1800" actualBatteryCapacity="87.3988" maximumBatteryCapacity="6000.0000" chargingStationId="CS1" energyCharged="2.6389" energyChargedInTransit="0.0000" energyChargedStopped="2.6389" speed="0.0000" acceleration="0.0000" x="-930.0000" y="995.0500" lane="D2_0" posOnLane="70.0000" timeStopped="13"/>
        <vehicle id="veh1" energyConsumed="1.9755" totalEnergyConsumed="4.5718" totalEnergyRegenerated="0.0000" actualBatteryCapacity="85.4282" maximumBatteryCapacity="6000.0000" chargingStationId="NULL" energyCharged="0.0000" energyChargedInTransit="0.0000" energyChargedStopped="0.0000" speed="4.0000" acceleration="1.0000" x="-971.9000" y="998.3500" lane="D2_1" posOnLane="28.1000" timeStopped="0"/>
    </timestep>
    <timestep time="25.00">
        <vehicle id="veh0" energyConsumed="0.0123" totalEnergyConsumed="23.0990" totalEnergyRegenerated="16.1800" actualBatteryCapacity="90.0254" maximumBatteryCapacity="6000.0000" chargingStationId="CS1" energyCharged="2.6389" energyChargedInTransit="0.0000" energyChargedStopped="2.6389" speed="0.0000" acceleration="0.0000" x="-930.0000" y="995.0500" lane="D2_0" posOnLane="70.0000" timeStopped="14"/>
        <vehicle id="veh1" energyConsumed="2.5352" totalEnergyConsumed="7.1071" totalEnergyRegenerated="0.0000" actualBatteryCapacity="82.8929" maximumBatteryCapacity="6000.0000" chargingStationId="NULL" energyCharged="0.0000" energyChargedInTransit="0.0000" energyChargedStopped="0.0000" speed="5.0000" acceleration="1.0000" x="-966.9000" y="998.3500" lane="D2_1" posOnLane="33.1000" timeStopped="0"/>
    </timestep>
    <timestep time="26.00">
        <vehicle id="veh0" energyConsumed="0.0123" totalEnergyConsumed="23.1114" totalEnergyRegenerated="16.1800" actualBatteryCapacity="92.6519" maximumBatteryCapacity="6000.0000" chargingStationId="CS1" energyCharged="2.6389" energyChargedInTransit="0.0000" energyChargedStopped="2.6389" speed="0.0000" acceleration="0.0000" x="-930.0000" y="995.0500" lane="D2_0" posOnLane="70.0000" timeStopped="15"/>
        <vehicle id="veh1" energyConsumed="3.0990" totalEnergyConsumed="10.2061" totalEnergyRegenerated="0.0000" actualBatteryCapacity="79.7939" maximumBatteryCapacity="6000.0000" chargingStationId="NULL" energyCharged="0.0000" energyChargedInTransit="0.0000" energyChargedStopped="0.0000" speed="6.0000" acceleration="1.0000" x="-960.9000" y="998.3500" lane="D2_1" posOnLane="39.1000" timeStopped="0"/>
    </timestep>
    <timestep time="27.00">
        <vehicle id="veh0" energyConsumed="0.0123" totalEnergyConsumed="23.1237" totalEnergyRegenerated="16.1800" actualBatteryCapacity="95.2785" maximumBatteryCapacity="6000.0000" chargingStationId="CS1" energyCharged="2.6389" energyChargedInTransit="0.0000" energyChargedStopped="2.6389" speed="0.0000" acceleration="0.0000" x="-930.0000" y="995.0500" lane="D2_0" posOnLane="70.0000" timeStopped="16"/>
        <vehicle id="veh1" energyConsumed="3.6677" totalEnergyConsumed="13.8738" totalEnergyRegenerated="0.0000" actualBatteryCapacity="76.1262" maximumBatteryCapacity="6000.0000" chargingStationId="NULL" energyCharged="0.0000" energyChargedInTransit="0.0000" energyChargedStopped="0.0000" speed="7.0000" acceleration="1.0000" x="-953.9000" y="998.3500" lane="D2_1" posOnLane="46.1000" timeStopped="0"/>
    </timestep>
    <timestep time="28.00">
        <vehicle id="veh0" energyConsumed="0.0123" totalEnergyConsumed="23.1361" totalEnergyRegenerated="16.1800" actualBatteryCapacity="97.9050" maximumBatteryCapacity="6000.0000" chargingStationId="CS1" energyCharged="2.6389" energyChargedInTransit="0.0000" energyChargedStopped="2.6389" speed="0.0000" acceleration="0.0000" x="-930.0000" y="995.0500" lane="D2_0" posOnLane="70.0000" timeStopped="17"/>
        <vehicle id="veh1" energyConsumed="4.2420" totalEnergyConsumed="18.1158" totalEnergyRegenerated="0.0000" actualBatteryCapacity="71.8842" maximumBatteryCapacity="6000.0000" chargingStationId="NULL" energyCharged="0.0000" energyChargedInTransit="0.0000" energyChargedStopped="0.0000" speed="8.0000" acceleration="1.0000" x="-945.9000" y="998.3500" lane="D2_1" posOnLane="54.1000" timeStopped="0"/>
    </timestep>
    <timestep time="29.00">
        <vehicle id="veh0" energyConsumed="0.0123" totalEnergyConsumed="23.1484" totalEnergyRegenerated="16.1800" actualBatteryCapacity="100.5316" maximumBatteryCapacity="6000.0000" chargingStationId="CS1" energyCharged="2.6389" energyChargedInTransit="0.0000" energyChargedStopped="2.6389" speed="0.0000" acceleration="0.0000" x="-930.0000" y="995.0500" lane="D2_0" posOnLane="70.0000" timeStopped="18"/>
        <vehicle id="veh1" energyConsumed="4.8228" totalEnergyConsumed="22.9385" totalEnergyRegenerated="0.0000" actualBatteryCapacity="67.0615" maximumBatteryCapacity="6000.0000" chargingStationId="NULL" energyCharged="0.0000" energyChargedInTransit="0.0000" energyChargedStopped="0.0000" speed="9.0000" acceleration="1.0000" x="-936.9000" y="998.3500" lane="D2_1" posOnLane="63.1000" timeStopped="0"/>
    </timestep>
    <timestep time="30.00">
        <vehicle id="veh0" energyConsumed="0.0123" totalEnergyConsumed="23.1608" totalEnergyRegenerated="16.1800" actualBatteryCapacity="103.1581" maximumBatteryCapacity="6000.0000" chargingStationId="CS1" energyCharged="2.6389" energyChargedInTransit="0.0000" energyChargedStopped="2.6389" speed="0.0000" acceleration="0.0000" x="-930.0000" y="995.0500" lane="D2_0" posOnLane="70.0000" timeStopped="19"/>
        <vehicle id="veh1" energyConsumed="5.4108" totalEnergyConsumed="28.3494" totalEnergyRegenerated="0.0000" actualBatteryCapacity="61.6506" maximumBatteryCapacity="6000.0000" chargingStationId="NULL" energyCharged="0.0000" energyChargedInTransit="0.0000" energyChargedStopped="0.0000" speed="10.0000" acceleration="1.0000" x="-926.9000" y="998.3500" lane="D2_1" posOnLane="73.1000" timeStopped="0"/>
    </timestep>
    <timestep time="31.00">
        <vehicle id="veh0" energyConsumed="0.0123" totalEnergyConsumed="23.1731" totalEnergyRegenerated="16.1800" actualBatteryCapacity="105.7846" maximumBatteryCapacity="6000.0000" chargingStationId="CS1" energyCharged="2.6389" energyChargedInTransit="0.0000" energyChargedStopped="2.6389" speed="0.0000" acceleration="0.0000" x="-930.0000" y="995.0500" lane="D2_0" posOnLane="70.0000" timeStopped="20"/>
        <vehicle id="veh1" energyConsumed="6.0070" totalEnergyConsumed="34.3564" totalEnergyRegenerated="0.0000" actualBatteryCapacity="55.6436" maximumBatteryCapacity="6000.0000" chargingStationId="NULL" energyCharged="0.0000" energyChargedInTransit="0.0000" energyChargedStopped="0.0000" speed="11.0000" acceleration="1.0000" x="-915.9000" y="998.3500" lane="D2_1" posOnLane="84.1000" timeStopped="0"/>
    </timestep>
    <timestep time="32.00">
        <vehicle id="veh0" energyConsumed="0.0123" totalEnergyConsumed="23.1855" totalEnergyRegenerated="16.1800" actualBatteryCapacity="108.4112" maximumBatteryCapacity="6000.0000" chargingStationId="CS1" energyCharged="2.6389" energyChargedInTransit="0.0000" energyChargedStopped="2.6389" speed="0.0000" acceleration="0.0000" x="-930.0000" y="995.0500" lane="D2_0" posOnLane="70.0000" timeStopped="21"/>
        <vehicle id="veh1" energyConsumed="6.6121" totalEnergyConsumed="40.9685" totalEnergyRegenerated="0.0000" actualBatteryCapacity="49.0315" maximumBatteryCapacity="6000.0000" chargingStationId="NULL" energyCharged="0.0000" energyChargedInTransit="0.0000" energyChargedStopped="0.0000" speed="12.0000" acceleration="1.0000" x="-903.9000" y="998.3500" lane="D2_1" posOnLane="96.1000" timeStopped="0"/>
    </timestep>
    <timestep time="33.00">
        <vehicle id="veh0" energyConsumed="0.0123" totalEnergyConsumed="23.1978" totalEnergyRegenerated="16.1800" actualBatteryCapacity="111.0377" maximumBatteryCapacity="6000.0000" chargingStationId="CS1" energyCharged="2.6389" energyChargedInTransit="0.0000" energyChargedStopped="2.6389" speed="0.0000" acceleration="0.0000" x="-930.0000" y="995.0500" lane="D2_0" posOnLane="70.0000" timeStopped="22"/>
        <vehicle id="veh1" energyConsumed="7.0053" totalEnergyConsumed="47.9738" totalEnergyRegenerated="0.0000" actualBatteryCapacity="44.5262" maximumBatteryCapacity="6000.0000" chargingStationId="CS2" energyCharged="2.5000" energyChargedInTransit="2.5000" energyChargedStopped="0.0000" speed="12.9667" acceleration="0.9667" x="-890.9333" y="998.3500" lane="D2_1" posOnLane="109.0667" timeStopped="0"/>
    </timestep>
    <timestep time="34.00">
        <vehicle id="veh0" energyConsumed="0.0123" totalEnergyConsumed="23.2102" totalEnergyRegenerated="16.1800" actualBatteryCapacity="113.6643" maximumBatteryCapacity="6000.0000" chargingStationId="CS1" energyCharged="2.6389" energyChargedInTransit="0.0000" energyChargedStopped="2.6389" speed="0.0000" acceleration="0.0000" x="-930.0000" y="995.0500" lane="D2_0" posOnLane="70.0000" timeStopped="23"/>
        <vehicle id="veh1" energyConsumed="-20.9481" totalEnergyConsumed="47.9738" totalEnergyRegenerated="20.9481" actualBatteryCapacity="67.9743" maximumBatteryCapacity="6000.0000" chargingStationId="CS2" energyCharged="2.5000" energyChargedInTransit="2.5000" energyChargedStopped="0.0000" speed="7.9667" acceleration="-5.0000" x="-882.9667" y="998.3500" lane="D2_1" posOnLane="117.0333" timeStopped="0"/>
    </timestep>
    <timestep time="35.00">
        <vehicle id="veh0" energyConsumed="0.0123" totalEnergyConsumed="23.2225" totalEnergyRegenerated="16.1800" actualBatteryCapacity="116.2908" maximumBatteryCapacity="6000.0000" chargingStationId="CS1" energyCharged="2.6389" energyChargedInTransit="0.0000" energyChargedStopped="2.6389" speed="0.0000" acceleration="0.0000" x="-930.0000" y="995.0500" lane="D2_0" posOnLane="70.0000" timeStopped="24"/>
        <vehicle id="veh1" energyConsumed="-11.0091" totalEnergyConsumed="47.9738" totalEnergyRegenerated="31.9572" actualBatteryCapacity="81.4834" maximumBatteryCapacity="6000.0000" chargingStationId="CS2" energyCharged="2.5000" energyChargedInTransit="2.5000" energyChargedStopped="0.0000" speed="2.9667" acceleration="-5.0000" x="-880.0000" y="998.3500" lane="D2_1" posOnLane="120.0000" timeStopped="0"/>
    </timestep>
    <timestep time="36.00">
        <vehicle id="veh0" energyConsumed="0.0123" totalEnergyConsumed="23.2348" totalEnergyRegenerated="16.1800" actualBatteryCapacity="118.9174" maximumBatteryCapacity="6000.0000" chargingStationId="CS1" energyCharged="2.6389" energyChargedInTransit="0.0000" energyChargedStopped="2.6389" speed="0.0000" acceleration="0.0000" x="-930.0000" y="995.0500" lane="D2_0" posOnLane="70.0000" timeStopped="25"/>
        <vehicle id="veh1" energyConsumed="-1.7832" totalEnergyConsumed="47.9738" totalEnergyRegenerated="33.7404" actualBatteryCapacity="85.7667" maximumBatteryCapacity="6000.0000" chargingStationId="CS2" energyCharged="2.5000" energyChargedInTransit="0.0000" energyChargedStopped="2.5000" speed="0.0000" acceleration="-2.9667" x="-880.0000" y="998.3500" lane="D2_1" posOnLane="120.0000" timeStopped="1"/>
    </timestep>
    <timestep time="37.00">
        <vehicle id="veh0" energyConsumed="0.0123" totalEnergyConsumed="23.2472" totalEnergyRegenerated="16.1800" actualBatteryCapacity="121.5439" maximumBatteryCapacity="6000.0000" chargingStationId="CS1" energyCharged="2.6389" energyChargedInTransit="0.0000" energyChargedStopped="2.6389" speed="0.0000" acceleration="0.0000" x="-930.0000" y="995.0500" lane="D2_0" posOnLane="70.0000" timeStopped="26"/>
        <vehicle id="veh1" energyConsumed="0.0123" totalEnergyConsumed="47.9861" totalEnergyRegenerated="33.7404" actualBatteryCapacity="88.2543" maximumBatteryCapacity="6000.0000" chargingStationId="CS2" energyCharged="2.5000" energyChargedInTransit="0.0000" energyChargedStopped="2.5000" speed="0.0000" acceleration="0.0000" x="-880.0000" y="998.3500" lane="D2_1" posOnLane="120.0000" timeStopped="2"/>
    </timestep>
    <timestep time="38.00">
        <vehicle id="veh0" energyConsumed="0.0123" totalEnergyConsumed="23.2595" totalEnergyRegenerated="16.1800" actualBatteryCapacity="124.1704" maximumBatteryCapacity="6000.0000" chargingStationId="CS1" energyCharged="2.6389" energyChargedInTransit="0.0000" energyChargedStopped="2.6389" speed="0.0000" acceleration="0.0000" x="-930.0000" y="995.0500" lane="D2_0" posOnLane="70.0000" timeStopped="27"/>
        <vehicle id="veh1" energyConsumed="0.0123" totalEnergyConsumed="47.9985" totalEnergyRegenerated="33.7404" actualBatteryCapacity="90.7420" maximumBatteryCapacity="6000.0000" chargingStationId="CS2" energyCharged="2.5000" energyChargedInTransit="0.0000" energyChargedStopped="2.5000" speed="0.0000" acceleration="0.0000" x="-880.0000" y="998.3500" lane="D2_1" posOnLane="120.0000" timeStopped="3"/>
    </timestep>
    <timestep time="39.00">
        <vehicle id="veh0" energyConsumed="0.0123" totalEnergyConsumed="23.2719" totalEnergyRegenerated="16.1800" actualBatteryCapacity="126.7970" maximumBatteryCapacity="6000.0000" chargingStationId="CS1" energyCharged="2.6389" energyChargedInTransit="0.0000" energyChargedStopped="2.6389" speed="0.0000" acceleration="0.0000" x="-930.0000" y="995.0500" lane="D2_0" posOnLane="70.0000" timeStopped="28"/>
        <vehicle id="veh1" energyConsumed="0.0123" totalEnergyConsumed="48.0108" totalEnergyRegenerated="33.7404" actualBatteryCapacity="93.2296" maximumBatteryCapacity="6000.0000" chargingStationId="CS2" energyCharged="2.5000" energyChargedInTransit="0.0000" energyChargedStopped="2.5000" speed="0.0000" acceleration="0.0000" x="-880.0000" y="998.3500" lane="D2_1" posOnLane="120.0000" timeStopped="4"/>
    </timestep>
    <timestep time="40.00">
        <vehicle id="veh0" energyConsumed="0.0123" totalEnergyConsumed="23.2842" totalEnergyRegenerated="16.1800" actualBatteryCapacity="129.4235" maximumBatteryCapacity="6000.0000" chargingStationId="CS1" energyCharged="2.6389" energyChargedInTransit="0.0000" energyChargedStopped="2.6389" speed="0.0000" acceleration="0.0000" x="-930.0000" y="995.0500" lane="D2_0" posOnLane="70.0000" timeStopped="29"/>
        <vehicle id="veh1" energyConsumed="0.0123" totalEnergyConsumed="48.0231" totalEnergyRegenerated="33.7404" actualBatteryCapacity="95.7173" maximumBatteryCapacity="6000.0000" chargingStationId="CS2" energyCharged="2.5000" energyChargedInTransit="0.0000" energyChargedStopped="2.5000" speed="0.0000" acceleration="0.0000" x="-880.0000" y="998.3500" lane="D2_1" posOnLane="120.0000" timeStopped="5"/>
    </timestep>
    <timestep time="41.00">
        <vehicle id="veh0" energyConsumed="0.0123" totalEnergyConsumed="23.2966" totalEnergyRegenerated="16.1800" actualBatteryCapacity="132.0501" maximumBatteryCapacity="6000.0000" chargingStationId="CS1" energyCharged="2.6389" energyChargedInTransit="0.0000" energyChargedStopped="2.6389" speed="0.0000" acceleration="0.0000" x="-930.0000" y="995.0500" lane="D2_0" posOnLane="70.0000" timeStopped="30"/>
        <vehicle id="veh1" energyConsumed="0.0123" totalEnergyConsumed="48.0355" totalEnergyRegenerated="33.7404" actualBatteryCapacity="98.2049" maximumBatteryCapacity="6000.0000" chargingStationId="CS2" energyCharged="2.5000" energyChargedInTransit="0.0000" energyChargedStopped="2.5000" speed="0.0000" acceleration="0.0000" x="-880.0000" y="998.3500" lane="D2_1" posOnLane="120.0000" timeStopped="6"/>
    </timestep>
    <timestep time="42.00">