<?xml version="1.0" encoding="UTF-8"?>

<!-- generated on 2024-06-15 12:20:03 by Eclipse SUMO netedit Version 1.20.0
-->

<additional xmlns:xsi="http://www.w3.org/2001/XMLSchema-instance" xsi:noNamespaceSchemaLocation="http://sumo.dlr.de/xsd/additional_file.xsd">
    <vType id="bContainer" color="red" length="1.5" width="1" />
    
    <vType id="B763" height="16" length="54.9" width="47.6" personCapacity="0" containerCapacity="30" boardingDuration="1" loadingDuration="3" minGap="55" maxSpeed="66" accel="1.65" decel="1.75" color="50,0,200" vClass="rail" guiShape="aircraft">
    	<param key="carriageLength" value="0"/>
		<param key="frontSeatPos" value="4.7"/>
		<param key="seatingWidth" value="5"/>
		<param key="aircraftModel" value="Boeing 767-322(ER)"/>
		<param key="aircraftCode" value="B763"/>
    </vType>

    <trainStop id="ts_3" lane="E5_0" startPos="210" endPos="270"/>
</additional>
