<?xml version="1.0" encoding="UTF-8"?>

<!-- generated on 2026-03-22 16:09:34.047115 by Eclipse SUMO generateParkingAreaRerouters.py v1_26_0+0748-789978a7ed8
<configuration>
    <parking-areas value="input_additional.add.xml"/>
    <sumo-net value="net.net.xml"/>
    <max-number-alternatives value="4"/>
    <max-distance-alternatives value="150.0"/>
    <min-capacity-visibility-true value="50"/>
    <max-distance-visibility-true value="90.0"/>
    <output value="out.add.xml"/>
</configuration>
-->

<additional xmlns:xsi="http://www.w3.org/2001/XMLSchema-instance" xsi:noNamespaceSchemaLocation="http://sumo.dlr.de/xsd/additional_file.xsd">

    <rerouter id="p_c1" edges="c">
        <interval begin="0.0" end="86400.0">
            <!-- in order of distance --> 
            <parkingAreaReroute id="p_c1" visible="true"/> <!-- dist: 0.0 -->
            <parkingAreaReroute id="p_c2" visible="true"/> <!-- dist: 5.6 -->
            <parkingAreaReroute id="p_e1" visible="true"/> <!-- dist: 75.9 -->
            <parkingAreaReroute id="p_e2" visible="false"/> <!-- dist: 93.2 -->
        </interval>
    </rerouter>

    <rerouter id="p_c2" edges="c">
        <interval begin="0.0" end="86400.0">
            <!-- in order of distance --> 
            <parkingAreaReroute id="p_c2" visible="true"/> <!-- dist: 0.0 -->
            <parkingAreaReroute id="p_e1" visible="true"/> <!-- dist: 57.4 -->
            <parkingAreaReroute id="p_e2" visible="true"/> <!-- dist: 74.7 -->
            <parkingAreaReroute id="p_c1" visible="false"/> <!-- dist: 147.5 -->
        </interval>
    </rerouter>

    <rerouter id="p_e1" edges="e">
        <interval begin="0.0" end="86400.0">
            <!-- in order of distance --> 
            <parkingAreaReroute id="p_e1" visible="true"/> <!-- dist: 0.0 -->
            <parkingAreaReroute id="p_e2" visible="true"/> <!-- dist: 4.8 -->
            <parkingAreaReroute id="p_c1" visible="true"/> <!-- dist: 80.2 -->
            <parkingAreaReroute id="p_c2" visible="false"/> <!-- dist: 97.9 -->
        </interval>
    </rerouter>

    <rerouter id="p_e2" edges="e">
        <interval begin="0.0" end="86400.0">
            <!-- in order of distance --> 
            <parkingAreaReroute id="p_e2" visible="true"/> <!-- dist: 0.0 -->
            <parkingAreaReroute id="p_c1" visible="true"/> <!-- dist: 62.7 -->
            <parkingAreaReroute id="p_c2" visible="true"/> <!-- dist: 80.5 -->
            <parkingAreaReroute id="p_e1" visible="false"/> <!-- dist: 140.2 -->
        </interval>
    </rerouter>
</additional>
