<routes>
   <vehicle id="0" depart="0">
      <route edges="beg xxx end rend"/>
   </vehicle>
</routes>
