<routes>
   <vehicle id="0" depart="0">
      <route>beg xxx end rend</route>
   </vehicle>
</routes>
