<?xml version="1.0"?>

<!-- generated on Wed Feb 13 20:26:07 2013 by SUMO sumo Version dev-SVN-r13328
<?xml version="1.0" encoding="UTF-8"?>

<configuration xmlns:xsi="http://www.w3.org/2001/XMLSchema-instance" xsi:noNamespaceSchemaLocation="http://sumo.sf.net/xsd/sumoConfiguration.xsd">

    <input>
        <net-file value="net.net.xml"/>
        <route-files value="input_routes.rou.xml"/>
        <additional-files value="input_additional.add.xml"/>
    </input>

    <time>
        <begin value="0"/>
        <end value="220"/>
    </time>

    <report>
        <no-duration-log value="true"/>
        <no-step-log value="true"/>
    </report>

</configuration>
-->

<vehicle-type-probes>
    <timestep time="0.00" id="test1" vType="SUMO_DEFAULT_TYPE"/>
    <timestep time="10.00" id="test1" vType="SUMO_DEFAULT_TYPE"/>
    <timestep time="20.00" id="test1" vType="SUMO_DEFAULT_TYPE"/>
    <timestep time="30.00" id="test1" vType="SUMO_DEFAULT_TYPE"/>
    <timestep time="40.00" id="test1" vType="SUMO_DEFAULT_TYPE"/>
    <timestep time="50.00" id="test1" vType="SUMO_DEFAULT_TYPE"/>
    <timestep time="60.00" id="test1" vType="SUMO_DEFAULT_TYPE"/>
    <timestep time="70.00" id="test1" vType="SUMO_DEFAULT_TYPE"/>
    <timestep time="80.00" id="test1" vType="SUMO_DEFAULT_TYPE"/>
    <timestep time="90.00" id="test1" vType="SUMO_DEFAULT_TYPE"/>
    <timestep time="100.00" id="test1" vType="SUMO_DEFAULT_TYPE">
        <vehicle id="always_left.0" lane="3fi_0" pos="3.10" x="501.65" y="3.10" speed="0.00"/>
        <vehicle id="always_right.0" lane="1fi_0" pos="3.10" x="3.10" y="498.35" speed="0.00"/>
        <vehicle id="horizontal.0" lane="2fi_0" pos="3.10" x="996.90" y="501.65" speed="0.00"/>
    </timestep>
    <timestep time="110.00" id="test1" vType="SUMO_DEFAULT_TYPE">
        <vehicle id="always_left.0" lane="3fi_0" pos="39.39" x="501.65" y="39.39" speed="6.55"/>
        <vehicle id="always_left.1" lane="3fi_0" pos="3.10" x="501.65" y="3.10" speed="0.00"/>
        <vehicle id="always_right.0" lane="1fi_0" pos="34.12" x="34.12" y="498.35" speed="5.72"/>
        <vehicle id="always_right.1" lane="1fi_0" pos="3.10" x="3.10" y="498.35" speed="0.00"/>
        <vehicle id="horizontal.0" lane="2fi_0" pos="36.42" x="963.58" y="501.65" speed="6.15"/>
        <vehicle id="horizontal.1" lane="2fi_0" pos="3.10" x="996.90" y="501.65" speed="0.00"/>
        <vehicle id="vertical.0" lane="3fi_0" pos="15.93" x="501.65" y="15.93" speed="3.57"/>
    </timestep>
    <timestep time="120.00" id="test1" vType="SUMO_DEFAULT_TYPE">
        <vehicle id="always_left.0" lane="3fi_0" pos="135.57" x="501.65" y="135.57" speed="10.85"/>
        <vehicle id="always_left.1" lane="3fi_0" pos="33.73" x="501.65" y="33.73" speed="5.94"/>
        <vehicle id="always_left.2" lane="3fi_0" pos="3.10" x="501.65" y="3.10" speed="0.00"/>
        <vehicle id="always_right.0" lane="1fi_0" pos="125.25" x="125.25" y="498.35" speed="10.99"/>
        <vehicle id="always_right.1" lane="1fi_0" pos="36.75" x="36.75" y="498.35" speed="5.98"/>
        <vehicle id="always_right.2" lane="1fi_0" pos="3.10" x="3.10" y="498.35" speed="0.00"/>
        <vehicle id="horizontal.0" lane="2fi_0" pos="131.04" x="868.96" y="501.65" speed="10.97"/>
        <vehicle id="horizontal.1" lane="2fi_0" pos="34.91" x="965.09" y="501.65" speed="5.83"/>
        <vehicle id="horizontal.2" lane="2fi_0" pos="3.10" x="996.90" y="501.65" speed="0.00"/>
        <vehicle id="vertical.0" lane="3fi_0" pos="86.03" x="501.65" y="86.03" speed="9.77"/>
        <vehicle id="vertical.1" lane="3fi_0" pos="14.95" x="501.65" y="14.95" speed="3.46"/>
    </timestep>
    <timestep time="130.00" id="test1" vType="SUMO_DEFAULT_TYPE">
        <vehicle id="always_left.0" lane="3fi_0" pos="243.92" x="501.65" y="243.92" speed="10.75"/>
        <vehicle id="always_left.1" lane="3fi_0" pos="124.36" x="501.65" y="124.36" speed="10.89"/>
        <vehicle id="always_left.2" lane="3fi_0" pos="32.88" x="501.65" y="32.88" speed="5.62"/>
        <vehicle id="always_left.3" lane="3fi_0" pos="3.10" x="501.65" y="3.10" speed="0.00"/>
        <vehicle id="always_right.0" lane="1fi_0" pos="233.62" x="233.62" y="498.35" speed="10.72"/>
        <vehicle id="always_right.1" lane="1fi_0" pos="127.25" x="127.25" y="498.35" speed="11.03"/>
        <vehicle id="always_right.2" lane="1fi_0" pos="33.74" x="33.74" y="498.35" speed="5.81"/>
        <vehicle id="always_right.3" lane="1fi_0" pos="3.10" x="3.10" y="498.35" speed="0.00"/>
        <vehicle id="horizontal.0" lane="2fi_0" pos="240.44" x="759.56" y="501.65" speed="10.90"/>
        <vehicle id="horizontal.1" lane="2fi_0" pos="124.00" x="876.00" y="501.65" speed="11.07"/>
        <vehicle id="horizontal.2" lane="2fi_0" pos="41.36" x="958.64" y="501.65" speed="6.65"/>
        <vehicle id="horizontal.3" lane="2fi_0" pos="3.10" x="996.90" y="501.65" speed="0.00"/>
        <vehicle id="vertical.0" lane="3fi_0" pos="194.99" x="501.65" y="194.99" speed="10.73"/>
        <vehicle id="vertical.1" lane="3fi_0" pos="82.76" x="501.65" y="82.76" speed="9.66"/>
        <vehicle id="vertical.2" lane="3fi_0" pos="12.73" x="501.65" y="12.73" speed="3.36"/>
    </timestep>
    <timestep time="140.00" id="test1" vType="SUMO_DEFAULT_TYPE">
        <vehicle id="always_left.0" lane="3si_0" pos="116.95" x="508.25" y="368.45" speed="13.66"/>
        <vehicle id="always_left.1" lane="3fi_0" pos="233.55" x="501.65" y="233.55" speed="11.03"/>
        <vehicle id="always_left.2" lane="3fi_0" pos="119.55" x="501.65" y="119.55" speed="10.81"/>
        <vehicle id="always_left.3" lane="3fi_0" pos="33.63" x="501.65" y="33.63" speed="5.51"/>
        <vehicle id="always_left.4" lane="3fi_0" pos="3.10" x="501.65" y="3.10" speed="0.00"/>
        <vehicle id="always_right.0" lane="1si_2" pos="109.71" x="361.21" y="498.35" speed="13.84"/>
        <vehicle id="always_right.1" lane="1fi_0" pos="236.46" x="236.46" y="498.35" speed="11.09"/>
        <vehicle id="always_right.2" lane="1fi_0" pos="121.20" x="121.20" y="498.35" speed="10.79"/>
        <vehicle id="always_right.3" lane="1fi_0" pos="36.47" x="36.47" y="498.35" speed="5.88"/>
        <vehicle id="always_right.4" lane="1fi_0" pos="3.10" x="3.10" y="498.35" speed="0.00"/>
        <vehicle id="horizontal.0" lane="2si_1" pos="116.67" x="631.83" y="504.95" speed="13.88"/>
        <vehicle id="horizontal.1" lane="2fi_0" pos="233.14" x="766.86" y="501.65" speed="10.72"/>
        <vehicle id="horizontal.2" lane="2fi_0" pos="138.60" x="861.40" y="501.65" speed="11.09"/>
        <vehicle id="horizontal.3" lane="2fi_0" pos="35.82" x="964.18" y="501.65" speed="6.10"/>
        <vehicle id="horizontal.4" lane="2fi_0" pos="3.10" x="996.90" y="501.65" speed="0.00"/>
        <vehicle id="vertical.0" lane="3si_1" pos="61.20" x="504.95" y="312.70" speed="13.83"/>
        <vehicle id="vertical.1" lane="3fi_0" pos="190.92" x="501.65" y="190.92" speed="10.90"/>
        <vehicle id="vertical.2" lane="3fi_0" pos="82.05" x="501.65" y="82.05" speed="9.72"/>
        <vehicle id="vertical.3" lane="3fi_0" pos="14.50" x="501.65" y="14.50" speed="3.44"/>
    </timestep>
    <timestep time="150.00" id="test1" vType="SUMO_DEFAULT_TYPE">
        <vehicle id="always_left.0" lane="3si_0" pos="233.27" x="508.25" y="484.77" speed="3.46"/>
        <vehicle id="always_left.1" lane="3si_0" pos="102.35" x="508.25" y="353.85" speed="13.87"/>
        <vehicle id="always_left.2" lane="3fi_0" pos="228.63" x="501.65" y="228.63" speed="11.01"/>
        <vehicle id="always_left.3" lane="3fi_0" pos="118.58" x="501.65" y="118.58" speed="10.79"/>
        <vehicle id="always_left.4" lane="3fi_0" pos="38.77" x="501.65" y="38.77" speed="6.50"/>
        <vehicle id="always_left.5" lane="3fi_0" pos="3.10" x="501.65" y="3.10" speed="0.00"/>
        <vehicle id="always_right.0" lane="1si_2" pos="231.51" x="483.01" y="498.35" speed="5.01"/>
        <vehicle id="always_right.1" lane="1si_2" pos="112.22" x="363.72" y="498.35" speed="13.74"/>
        <vehicle id="always_right.2" lane="1fi_0" pos="229.91" x="229.91" y="498.35" speed="10.81"/>
        <vehicle id="always_right.3" lane="1fi_0" pos="126.22" x="126.22" y="498.35" speed="11.10"/>
        <vehicle id="always_right.4" lane="1fi_0" pos="35.32" x="35.32" y="498.35" speed="6.12"/>
        <vehicle id="always_right.5" lane="1fi_0" pos="3.10" x="3.10" y="498.35" speed="0.00"/>
        <vehicle id="horizontal.0" lane=":0_5_0" pos="11.64" x="499.79" y="503.71" speed="11.70"/>
        <vehicle id="horizontal.1" lane="2si_1" pos="107.40" x="641.10" y="504.95" speed="13.51"/>
        <vehicle id="horizontal.2" lane="2fi_0" pos="247.14" x="752.86" y="501.65" speed="10.80"/>
        <vehicle id="horizontal.3" lane="2fi_0" pos="125.50" x="874.50" y="501.65" speed="10.76"/>
        <vehicle id="horizontal.4" lane="2fi_0" pos="36.29" x="963.71" y="501.65" speed="6.08"/>
        <vehicle id="horizontal.5" lane="2fi_0" pos="3.10" x="996.90" y="501.65" speed="0.00"/>
        <vehicle id="vertical.0" lane="3si_1" pos="197.80" x="504.95" y="449.30" speed="13.75"/>
        <vehicle id="vertical.1" lane="3si_1" pos="53.04" x="504.95" y="304.54" speed="13.45"/>
        <vehicle id="vertical.2" lane="3fi_0" pos="190.06" x="501.65" y="190.06" speed="11.00"/>
        <vehicle id="vertical.3" lane="3fi_0" pos="84.86" x="501.65" y="84.86" speed="9.81"/>
        <vehicle id="vertical.4" lane="3fi_0" pos="13.35" x="501.65" y="13.35" speed="3.07"/>
    </timestep>
    <timestep time="160.00" id="test1" vType="SUMO_DEFAULT_TYPE">
        <vehicle id="always_left.0" lane="3si_0" pos="235.15" x="508.25" y="486.65" speed="0.00"/>
        <vehicle id="always_left.1" lane="3si_0" pos="225.93" x="508.25" y="477.43" speed="5.61"/>
        <vehicle id="always_left.2" lane="3si_0" pos="97.46" x="508.25" y="348.96" speed="13.59"/>
        <vehicle id="always_left.3" lane="3fi_0" pos="228.16" x="501.65" y="228.16" speed="11.06"/>
        <vehicle id="always_left.4" lane="3fi_0" pos="134.54" x="501.65" y="134.54" speed="10.87"/>
        <vehicle id="always_left.5" lane="3fi_0" pos="31.71" x="501.65" y="31.71" speed="5.38"/>
        <vehicle id="always_left.6" lane="3fi_0" pos="3.10" x="501.65" y="3.10" speed="0.00"/>
        <vehicle id="always_right.0" lane="4o_0" pos="52.73" x="501.65" y="564.08" speed="10.66"/>
        <vehicle id="always_right.1" lane="1si_2" pos="232.02" x="483.52" y="498.35" speed="4.98"/>
        <vehicle id="always_right.2" lane="1si_2" pos="106.17" x="357.67" y="498.35" speed="13.82"/>
        <vehicle id="always_right.3" lane="1fi_0" pos="234.95" x="234.95" y="498.35" speed="10.92"/>
        <vehicle id="always_right.4" lane="1fi_0" pos="128.11" x="128.11" y="498.35" speed="11.11"/>
        <vehicle id="always_right.5" lane="1fi_0" pos="32.96" x="32.96" y="498.35" speed="5.75"/>
        <vehicle id="always_right.6" lane="1fi_0" pos="3.10" x="3.10" y="498.35" speed="0.00"/>
        <vehicle id="horizontal.0" lane="1o_0" pos="97.62" x="391.03" y="501.65" speed="10.78"/>
        <vehicle id="horizontal.1" lane=":0_5_0" pos="4.80" x="506.56" y="504.63" speed="12.50"/>
        <vehicle id="horizontal.2" lane="2si_1" pos="123.85" x="624.65" y="504.95" speed="13.58"/>
        <vehicle id="horizontal.3" lane="2fi_0" pos="233.95" x="766.05" y="501.65" speed="10.93"/>
        <vehicle id="horizontal.4" lane="2fi_0" pos="128.29" x="871.71" y="501.65" speed="10.77"/>
        <vehicle id="horizontal.5" lane="2fi_0" pos="37.40" x="962.60" y="501.65" speed="6.17"/>
        <vehicle id="horizontal.6" lane="2fi_0" pos="3.10" x="996.90" y="501.65" speed="0.00"/>
        <vehicle id="vertical.0" lane="3si_1" pos="235.15" x="504.95" y="486.65" speed="0.00"/>
        <vehicle id="vertical.1" lane="3si_1" pos="190.17" x="504.95" y="441.67" speed="13.58"/>
        <vehicle id="vertical.2" lane="3si_1" pos="53.06" x="504.95" y="304.56" speed="13.54"/>
        <vehicle id="vertical.3" lane="3fi_0" pos="192.90" x="501.65" y="192.90" speed="10.81"/>
        <vehicle id="vertical.4" lane="3fi_0" pos="79.51" x="501.65" y="79.51" speed="9.48"/>
        <vehicle id="vertical.5" lane="3fi_0" pos="14.06" x="501.65" y="14.06" speed="3.60"/>
    </timestep>
    <timestep time="170.00" id="test1" vType="SUMO_DEFAULT_TYPE">
        <vehicle id="always_left.0" lane="3si_0" pos="235.15" x="508.25" y="486.65" speed="0.00"/>
        <vehicle id="always_left.1" lane="3si_0" pos="230.15" x="508.25" y="481.65" speed="0.00"/>
        <vehicle id="always_left.2" lane="3si_0" pos="220.96" x="508.25" y="472.46" speed="5.47"/>
        <vehicle id="always_left.3" lane="3si_0" pos="99.79" x="508.25" y="351.29" speed="13.61"/>
        <vehicle id="always_left.4" lane="3fi_0" pos="243.50" x="501.65" y="243.50" speed="10.98"/>
        <vehicle id="always_left.5" lane="3fi_0" pos="118.65" x="501.65" y="118.65" speed="10.78"/>
        <vehicle id="always_left.6" lane="3fi_0" pos="39.12" x="501.65" y="39.12" speed="6.68"/>
        <vehicle id="always_left.7" lane="3fi_0" pos="3.10" x="501.65" y="3.10" speed="0.00"/>
        <vehicle id="always_right.0" lane="4o_0" pos="162.17" x="501.65" y="673.52" speed="10.99"/>
        <vehicle id="always_right.1" lane="4o_0" pos="58.57" x="501.65" y="569.92" speed="10.77"/>
        <vehicle id="always_right.2" lane="1si_2" pos="234.64" x="486.14" y="498.35" speed="10.22"/>
        <vehicle id="always_right.3" lane="1si_2" pos="110.12" x="361.62" y="498.35" speed="13.70"/>
        <vehicle id="always_right.4" lane="1fi_0" pos="237.56" x="237.56" y="498.35" speed="10.96"/>
        <vehicle id="always_right.5" lane="1fi_0" pos="119.83" x="119.83" y="498.35" speed="10.95"/>
        <vehicle id="always_right.6" lane="1fi_0" pos="35.12" x="35.12" y="498.35" speed="5.78"/>
        <vehicle id="always_right.7" lane="1fi_0" pos="3.10" x="3.10" y="498.35" speed="0.00"/>
        <vehicle id="horizontal.0" lane="1o_0" pos="206.01" x="282.64" y="501.65" speed="10.96"/>
        <vehicle id="horizontal.1" lane="1o_0" pos="91.21" x="397.44" y="501.65" speed="11.08"/>
        <vehicle id="horizontal.2" lane="2si_1" pos="234.32" x="514.18" y="504.95" speed="2.71"/>
        <vehicle id="horizontal.3" lane="2si_1" pos="106.95" x="641.55" y="504.95" speed="13.66"/>
        <vehicle id="horizontal.4" lane="2fi_0" pos="236.83" x="763.17" y="501.65" speed="10.74"/>
        <vehicle id="horizontal.5" lane="2fi_0" pos="132.70" x="867.30" y="501.65" speed="11.09"/>
        <vehicle id="horizontal.6" lane="2fi_0" pos="36.01" x="963.99" y="501.65" speed="5.91"/>
        <vehicle id="horizontal.7" lane="2fi_0" pos="3.10" x="996.90" y="501.65" speed="0.00"/>
        <vehicle id="vertical.0" lane="3si_1" pos="235.15" x="504.95" y="486.65" speed="0.00"/>
        <vehicle id="vertical.1" lane="3si_1" pos="230.14" x="504.95" y="481.64" speed="0.00"/>
        <vehicle id="vertical.2" lane="3si_1" pos="190.08" x="504.95" y="441.58" speed="13.66"/>
        <vehicle id="vertical.3" lane="3si_1" pos="55.50" x="504.95" y="307.00" speed="13.35"/>
        <vehicle id="vertical.4" lane="3fi_0" pos="187.32" x="501.65" y="187.32" speed="10.85"/>
        <vehicle id="vertical.5" lane="3fi_0" pos="83.19" x="501.65" y="83.19" speed="9.47"/>
        <vehicle id="vertical.6" lane="3fi_0" pos="13.56" x="501.65" y="13.56" speed="2.97"/>
    </timestep>
    <timestep time="180.00" id="test1" vType="SUMO_DEFAULT_TYPE">
        <vehicle id="always_left.0" lane="3si_0" pos="235.92" x="508.25" y="487.42" speed="0.77"/>
        <vehicle id="always_left.1" lane="3si_0" pos="230.15" x="508.25" y="481.65" speed="0.00"/>
        <vehicle id="always_left.2" lane="3si_0" pos="225.14" x="508.25" y="476.64" speed="0.00"/>
        <vehicle id="always_left.3" lane="3si_0" pos="217.75" x="508.25" y="469.25" speed="4.22"/>
        <vehicle id="always_left.4" lane="3si_0" pos="117.11" x="508.25" y="368.61" speed="13.54"/>
        <vehicle id="always_left.5" lane="3fi_0" pos="227.90" x="501.65" y="227.90" speed="10.91"/>
        <vehicle id="always_left.6" lane="3fi_0" pos="138.16" x="501.65" y="138.16" speed="10.78"/>
        <vehicle id="always_left.7" lane="3fi_0" pos="33.08" x="501.65" y="33.08" speed="5.71"/>
        <vehicle id="always_left.8" lane="3fi_0" pos="3.10" x="501.65" y="3.10" speed="0.00"/>
        <vehicle id="always_right.0" lane="4o_0" pos="271.78" x="501.65" y="783.13" speed="11.10"/>
        <vehicle id="always_right.1" lane="4o_0" pos="167.86" x="501.65" y="679.21" speed="11.02"/>
        <vehicle id="always_right.2" lane="4o_0" pos="85.18" x="501.65" y="596.53" speed="11.06"/>
        <vehicle id="always_right.3" lane="1si_2" pos="231.75" x="483.25" y="498.35" speed="5.22"/>
        <vehicle id="always_right.4" lane="1si_2" pos="113.47" x="364.97" y="498.35" speed="13.87"/>
        <vehicle id="always_right.5" lane="1fi_0" pos="229.14" x="229.14" y="498.35" speed="10.93"/>
        <vehicle id="always_right.6" lane="1fi_0" pos="125.51" x="125.51" y="498.35" speed="10.85"/>
        <vehicle id="always_right.7" lane="1fi_0" pos="33.36" x="33.36" y="498.35" speed="5.75"/>
        <vehicle id="always_right.8" lane="1fi_0" pos="3.10" x="3.10" y="498.35" speed="0.00"/>
        <vehicle id="horizontal.0" lane="1o_0" pos="314.87" x="173.78" y="501.65" speed="10.81"/>
        <vehicle id="horizontal.1" lane="1o_0" pos="200.86" x="287.79" y="501.65" speed="10.99"/>
        <vehicle id="horizontal.2" lane="2si_1" pos="235.14" x="513.36" y="504.95" speed="0.00"/>
        <vehicle id="horizontal.3" lane="2si_1" pos="227.45" x="521.05" y="504.95" speed="4.75"/>
        <vehicle id="horizontal.4" lane="2si_1" pos="110.29" x="638.21" y="504.95" speed="13.52"/>
        <vehicle id="horizontal.5" lane="2fi_0" pos="242.28" x="757.72" y="501.65" speed="11.02"/>
        <vehicle id="horizontal.6" lane="2fi_0" pos="129.09" x="870.91" y="501.65" speed="10.88"/>
        <vehicle id="horizontal.7" lane="2fi_0" pos="33.70" x="966.30" y="501.65" speed="5.58"/>
        <vehicle id="horizontal.8" lane="2fi_0" pos="3.10" x="996.90" y="501.65" speed="0.00"/>
        <vehicle id="vertical.0" lane="3si_1" pos="235.87" x="504.95" y="487.37" speed="0.72"/>
        <vehicle id="vertical.1" lane="3si_1" pos="230.14" x="504.95" y="481.64" speed="0.00"/>
        <vehicle id="vertical.2" lane="3si_1" pos="225.14" x="504.95" y="476.64" speed="0.00"/>
        <vehicle id="vertical.3" lane="3si_1" pos="192.41" x="504.95" y="443.91" speed="13.63"/>
        <vehicle id="vertical.4" lane="3si_1" pos="50.49" x="504.95" y="301.99" speed="13.73"/>
        <vehicle id="vertical.5" lane="3fi_0" pos="192.06" x="501.65" y="192.06" speed="11.10"/>
        <vehicle id="vertical.6" lane="3fi_0" pos="71.35" x="501.65" y="71.35" speed="8.18"/>
        <vehicle id="vertical.7" lane="3fi_0" pos="12.47" x="501.65" y="12.47" speed="3.29"/>
    </timestep>
    <timestep time="190.00" id="test1" vType="SUMO_DEFAULT_TYPE">
        <vehicle id="always_left.0" lane="2o_0" pos="30.96" x="542.31" y="498.35" speed="6.92"/>
        <vehicle id="always_left.1" lane="2o_0" pos="14.86" x="526.21" y="498.35" speed="6.04"/>
        <vehicle id="always_left.2" lane="2o_0" pos="1.26" x="512.61" y="498.35" speed="4.76"/>
        <vehicle id="always_left.3" lane=":0_8_0" pos="0.35" x="508.27" y="489.00" speed="3.80"/>
        <vehicle id="always_left.4" lane="3si_0" pos="226.17" x="508.25" y="477.67" speed="4.54"/>
        <vehicle id="always_left.5" lane="3si_0" pos="98.59" x="508.25" y="350.09" speed="13.55"/>
        <vehicle id="always_left.6" lane="3fi_0" pos="247.50" x="501.65" y="247.50" speed="10.92"/>
        <vehicle id="always_left.7" lane="3fi_0" pos="122.21" x="501.65" y="122.21" speed="10.72"/>
        <vehicle id="always_left.8" lane="3fi_0" pos="33.16" x="501.65" y="33.16" speed="5.65"/>
        <vehicle id="always_left.9" lane="3fi_0" pos="3.10" x="501.65" y="3.10" speed="0.00"/>
        <vehicle id="always_right.0" lane="4o_0" pos="381.33" x="501.65" y="892.68" speed="11.08"/>
        <vehicle id="always_right.1" lane="4o_0" pos="277.09" x="501.65" y="788.44" speed="10.81"/>
        <vehicle id="always_right.2" lane="4o_0" pos="194.24" x="501.65" y="705.59" speed="10.85"/>
        <vehicle id="always_right.3" lane="1si_2" pos="235.15" x="486.65" y="498.35" speed="0.00"/>
        <vehicle id="always_right.4" lane="1si_2" pos="228.62" x="480.12" y="498.35" speed="3.15"/>
        <vehicle id="always_right.5" lane="1si_2" pos="103.65" x="355.15" y="498.35" speed="13.52"/>
        <vehicle id="always_right.6" lane="1fi_0" pos="234.32" x="234.32" y="498.35" speed="10.94"/>
        <vehicle id="always_right.7" lane="1fi_0" pos="123.51" x="123.51" y="498.35" speed="10.87"/>
        <vehicle id="always_right.8" lane="1fi_0" pos="37.33" x="37.33" y="498.35" speed="6.26"/>
        <vehicle id="always_right.9" lane="1fi_0" pos="3.10" x="3.10" y="498.35" speed="0.00"/>
        <vehicle id="horizontal.0" lane="1o_0" pos="423.37" x="65.28" y="501.65" speed="10.79"/>
        <vehicle id="horizontal.1" lane="1o_0" pos="310.04" x="178.61" y="501.65" speed="11.11"/>
        <vehicle id="horizontal.2" lane="2si_1" pos="235.14" x="513.36" y="504.95" speed="0.00"/>
        <vehicle id="horizontal.3" lane="2si_1" pos="230.14" x="518.36" y="504.95" speed="0.00"/>
        <vehicle id="horizontal.4" lane="2si_1" pos="223.90" x="524.60" y="504.95" speed="3.26"/>
        <vehicle id="horizontal.5" lane="2si_1" pos="118.31" x="630.19" y="504.95" speed="13.80"/>
        <vehicle id="horizontal.6" lane="2fi_0" pos="237.89" x="762.11" y="501.65" speed="10.75"/>
        <vehicle id="horizontal.7" lane="2fi_0" pos="123.71" x="876.29" y="501.65" speed="11.06"/>
        <vehicle id="horizontal.8" lane="2fi_0" pos="38.03" x="961.97" y="501.65" speed="6.30"/>
        <vehicle id="horizontal.9" lane="2fi_0" pos="3.10" x="996.90" y="501.65" speed="0.00"/>
        <vehicle id="vertical.0" lane="4o_0" pos="14.15" x="501.65" y="525.50" speed="6.17"/>
        <vehicle id="vertical.1" lane="4o_0" pos="0.95" x="501.65" y="512.30" speed="5.66"/>
        <vehicle id="vertical.2" lane=":0_9_0" pos="9.25" x="504.15" y="497.85" speed="4.84"/>
        <vehicle id="vertical.3" lane="3si_1" pos="234.89" x="504.95" y="486.39" speed="3.83"/>
        <vehicle id="vertical.4" lane="3si_1" pos="187.14" x="504.95" y="438.64" speed="13.62"/>
        <vehicle id="vertical.5" lane="3si_1" pos="55.03" x="504.95" y="306.53" speed="13.57"/>
        <vehicle id="vertical.6" lane="3fi_0" pos="175.26" x="501.65" y="175.26" speed="11.08"/>
        <vehicle id="vertical.7" lane="3fi_0" pos="74.89" x="501.65" y="74.89" speed="9.09"/>
        <vehicle id="vertical.8" lane="3fi_0" pos="13.36" x="501.65" y="13.36" speed="3.30"/>
    </timestep>
    <timestep time="200.00" id="test1" vType="SUMO_DEFAULT_TYPE">
        <vehicle id="always_left.0" lane="2o_0" pos="130.65" x="642.00" y="498.35" speed="11.10"/>
        <vehicle id="always_left.1" lane="2o_0" pos="106.59" x="617.94" y="498.35" speed="10.91"/>
        <vehicle id="always_left.10" lane="3fi_0" pos="3.10" x="501.65" y="3.10" speed="0.00"/>
        <vehicle id="always_left.2" lane="2o_0" pos="81.40" x="592.75" y="498.35" speed="10.46"/>
        <vehicle id="always_left.3" lane="2o_0" pos="57.88" x="569.23" y="498.35" speed="9.21"/>
        <vehicle id="always_left.4" lane="2o_0" pos="42.30" x="553.65" y="498.35" speed="8.46"/>
        <vehicle id="always_left.5" lane="3si_0" pos="233.65" x="508.25" y="485.15" speed="12.23"/>
        <vehicle id="always_left.6" lane="3si_0" pos="119.78" x="508.25" y="371.28" speed="13.71"/>
        <vehicle id="always_left.7" lane="3fi_0" pos="231.52" x="501.65" y="231.52" speed="11.06"/>
        <vehicle id="always_left.8" lane="3fi_0" pos="121.00" x="501.65" y="121.00" speed="10.88"/>
        <vehicle id="always_left.9" lane="3fi_0" pos="35.95" x="501.65" y="35.95" speed="6.12"/>
        <vehicle id="always_right.0" lane=":4_0_0" pos="1.47" x="500.83" y="1001.22" speed="10.93"/>
        <vehicle id="always_right.1" lane="4o_0" pos="386.60" x="501.65" y="897.95" speed="11.09"/>
        <vehicle id="always_right.10" lane="1fi_0" pos="3.10" x="3.10" y="498.35" speed="0.00"/>
        <vehicle id="always_right.2" lane="4o_0" pos="303.14" x="501.65" y="814.49" speed="10.75"/>
        <vehicle id="always_right.3" lane="1si_2" pos="235.15" x="486.65" y="498.35" speed="0.00"/>
        <vehicle id="always_right.4" lane="1si_2" pos="230.14" x="481.64" y="498.35" speed="0.00"/>
        <vehicle id="always_right.5" lane="1si_2" pos="222.58" x="474.08" y="498.35" speed="4.38"/>
        <vehicle id="always_right.6" lane="1si_2" pos="109.26" x="360.76" y="498.35" speed="13.80"/>
        <vehicle id="always_right.7" lane="1fi_0" pos="232.93" x="232.93" y="498.35" speed="11.10"/>
        <vehicle id="always_right.8" lane="1fi_0" pos="131.57" x="131.57" y="498.35" speed="10.98"/>
        <vehicle id="always_right.9" lane="1fi_0" pos="37.57" x="37.57" y="498.35" speed="6.16"/>
        <vehicle id="horizontal.0" lane="1fi_0" pos="24.76" x="24.76" y="498.35" speed="6.41"/>
        <vehicle id="horizontal.1" lane="1o_0" pos="419.78" x="68.87" y="501.65" speed="10.74"/>
        <vehicle id="horizontal.10" lane="2fi_0" pos="3.10" x="996.90" y="501.65" speed="0.00"/>
        <vehicle id="horizontal.2" lane="2si_1" pos="235.14" x="513.36" y="504.95" speed="0.00"/>
        <vehicle id="horizontal.3" lane="2si_1" pos="230.14" x="518.36" y="504.95" speed="0.00"/>
        <vehicle id="horizontal.4" lane="2si_1" pos="225.14" x="523.36" y="504.95" speed="0.00"/>
        <vehicle id="horizontal.5" lane="2si_1" pos="219.79" x="528.71" y="504.95" speed="0.95"/>
        <vehicle id="horizontal.6" lane="2si_1" pos="113.90" x="634.60" y="504.95" speed="13.86"/>
        <vehicle id="horizontal.7" lane="2fi_0" pos="232.94" x="767.06" y="501.65" speed="10.82"/>
        <vehicle id="horizontal.8" lane="2fi_0" pos="133.81" x="866.19" y="501.65" speed="10.71"/>
        <vehicle id="horizontal.9" lane="2fi_0" pos="35.61" x="964.39" y="501.65" speed="5.87"/>
        <vehicle id="vertical.0" lane="4o_0" pos="105.74" x="501.65" y="617.09" speed="10.75"/>
        <vehicle id="vertical.1" lane="4o_0" pos="88.01" x="501.65" y="599.36" speed="10.91"/>
        <vehicle id="vertical.2" lane="4o_0" pos="70.12" x="501.65" y="581.47" speed="10.74"/>
        <vehicle id="vertical.3" lane="4o_0" pos="44.94" x="501.65" y="556.29" speed="9.62"/>
        <vehicle id="vertical.4" lane="4o_0" pos="28.94" x="501.65" y="540.29" speed="8.94"/>
        <vehicle id="vertical.5" lane="3si_1" pos="191.69" x="504.95" y="443.19" speed="13.78"/>
        <vehicle id="vertical.6" lane="3si_1" pos="33.87" x="504.95" y="285.37" speed="12.51"/>
        <vehicle id="vertical.7" lane="3fi_0" pos="181.96" x="501.65" y="181.96" speed="10.93"/>
        <vehicle id="vertical.8" lane="3fi_0" pos="77.47" x="501.65" y="77.47" speed="8.82"/>
        <vehicle id="vertical.9" lane="3fi_0" pos="15.90" x="501.65" y="15.90" speed="3.90"/>
    </timestep>
    <timestep time="210.00" id="test1" vType="SUMO_DEFAULT_TYPE">
        <vehicle id="always_left.0" lane="2o_0" pos="239.43" x="750.78" y="498.35" speed="11.04"/>
        <vehicle id="always_left.1" lane="2o_0" pos="215.68" x="727.03" y="498.35" speed="10.84"/>
        <vehicle id="always_left.10" lane="3fi_0" pos="38.63" x="501.65" y="38.63" speed="6.45"/>
        <vehicle id="always_left.11" lane="3fi_0" pos="3.10" x="501.65" y="3.10" speed="0.00"/>
        <vehicle id="always_left.2" lane="2o_0" pos="189.47" x="700.82" y="498.35" speed="10.91"/>
        <vehicle id="always_left.3" lane="2o_0" pos="165.13" x="676.48" y="498.35" speed="10.96"/>
        <vehicle id="always_left.4" lane="2o_0" pos="146.94" x="658.29" y="498.35" speed="10.92"/>
        <vehicle id="always_left.5" lane="2o_0" pos="95.00" x="606.35" y="498.35" speed="10.91"/>
        <vehicle id="always_left.6" lane="2o_0" pos="2.55" x="513.90" y="498.35" speed="10.87"/>
        <vehicle id="always_left.7" lane="3si_0" pos="101.47" x="508.25" y="352.97" speed="13.70"/>
        <vehicle id="always_left.8" lane="3fi_0" pos="230.41" x="501.65" y="230.41" speed="10.90"/>
        <vehicle id="always_left.9" lane="3fi_0" pos="125.59" x="501.65" y="125.59" speed="11.06"/>
        <vehicle id="always_right.0" lane="4fi_0" pos="106.21" x="498.35" y="893.79" speed="10.86"/>
        <vehicle id="always_right.1" lane="4fi_0" pos="1.76" x="498.35" y="998.24" speed="10.96"/>
        <vehicle id="always_right.10" lane="1fi_0" pos="36.43" x="36.43" y="498.35" speed="6.08"/>
        <vehicle id="always_right.11" lane="1fi_0" pos="3.10" x="3.10" y="498.35" speed="0.00"/>
        <vehicle id="always_right.2" lane="4o_0" pos="412.23" x="501.65" y="923.58" speed="11.05"/>
        <vehicle id="always_right.3" lane="1si_2" pos="235.15" x="486.65" y="498.35" speed="0.00"/>
        <vehicle id="always_right.4" lane="1si_2" pos="230.14" x="481.64" y="498.35" speed="0.00"/>
        <vehicle id="always_right.5" lane="1si_2" pos="225.14" x="476.64" y="498.35" speed="0.00"/>
        <vehicle id="always_right.6" lane="1si_2" pos="219.18" x="470.68" y="498.35" speed="2.38"/>
        <vehicle id="always_right.7" lane="1si_2" pos="106.72" x="358.22" y="498.35" speed="13.78"/>
        <vehicle id="always_right.8" lane="1fi_0" pos="240.61" x="240.61" y="498.35" speed="10.81"/>
        <vehicle id="always_right.9" lane="1fi_0" pos="130.95" x="130.95" y="498.35" speed="10.76"/>
        <vehicle id="horizontal.0" lane="1fi_0" pos="111.39" x="111.39" y="498.35" speed="10.83"/>
        <vehicle id="horizontal.1" lane="1fi_0" pos="23.04" x="23.04" y="498.35" speed="6.90"/>
        <vehicle id="horizontal.10" lane="2fi_0" pos="37.60" x="962.40" y="501.65" speed="5.92"/>
        <vehicle id="horizontal.11" lane="2fi_0" pos="3.10" x="996.90" y="501.65" speed="0.00"/>
        <vehicle id="horizontal.2" lane="2si_1" pos="235.14" x="513.36" y="504.95" speed="0.00"/>