<?xml version="1.0"?>

<!-- generated on 03/07/12 10:15:17 by SUMO sumo Version dev-SVN-r12024
<?xml version="1.0" encoding="UTF-8"?>

<configuration xmlns:xsi="http://www.w3.org/2001/XMLSchema-instance" xsi:noNamespaceSchemaLocation="http://sumo.sf.net/xsd/sumoConfiguration.xsd">

    <input>
        <net-file value="net.net.xml"/>
        <route-files value="input_routes.rou.xml"/>
        <additional-files value="input_additional.add.xml"/>
    </input>

    <time>
        <begin value="0"/>
        <end value="220"/>
    </time>

    <report>
        <no-duration-log value="true"/>
        <no-step-log value="true"/>
    </report>

</configuration>
-->

<vehicle-type-probes>
    <timestep time="0.00" id="test1" vType="SUMO_DEFAULT_TYPE">
    </timestep>
    <timestep time="10.00" id="test1" vType="SUMO_DEFAULT_TYPE">
    </timestep>
    <timestep time="20.00" id="test1" vType="SUMO_DEFAULT_TYPE">
    </timestep>
    <timestep time="30.00" id="test1" vType="SUMO_DEFAULT_TYPE">
    </timestep>
    <timestep time="40.00" id="test1" vType="SUMO_DEFAULT_TYPE">
    </timestep>
    <timestep time="50.00" id="test1" vType="SUMO_DEFAULT_TYPE">
    </timestep>
    <timestep time="60.00" id="test1" vType="SUMO_DEFAULT_TYPE">
    </timestep>
    <timestep time="70.00" id="test1" vType="SUMO_DEFAULT_TYPE">
    </timestep>
    <timestep time="80.00" id="test1" vType="SUMO_DEFAULT_TYPE">
    </timestep>
    <timestep time="90.00" id="test1" vType="SUMO_DEFAULT_TYPE">
    </timestep>
    <timestep time="100.00" id="test1" vType="SUMO_DEFAULT_TYPE">
        <vehicle id="always_left.0" lane="3fi_0" pos="3.10" x="501.65" y="3.10" speed="0.00"/>
        <vehicle id="always_right.0" lane="1fi_0" pos="3.10" x="3.10" y="498.35" speed="0.00"/>
        <vehicle id="horizontal.0" lane="2fi_0" pos="3.10" x="996.90" y="501.65" speed="0.00"/>
    </timestep>
    <timestep time="110.00" id="test1" vType="SUMO_DEFAULT_TYPE">
        <vehicle id="always_left.0" lane="3fi_0" pos="39.39" x="501.65" y="39.39" speed="6.55"/>
        <vehicle id="always_left.1" lane="3fi_0" pos="3.10" x="501.65" y="3.10" speed="0.00"/>
        <vehicle id="always_right.0" lane="1fi_0" pos="34.12" x="34.12" y="498.35" speed="5.72"/>
        <vehicle id="always_right.1" lane="1fi_0" pos="3.10" x="3.10" y="498.35" speed="0.00"/>
        <vehicle id="horizontal.0" lane="2fi_0" pos="36.42" x="963.58" y="501.65" speed="6.15"/>
        <vehicle id="horizontal.1" lane="2fi_0" pos="3.10" x="996.90" y="501.65" speed="0.00"/>
        <vehicle id="vertical.0" lane="3fi_0" pos="15.93" x="501.65" y="15.93" speed="3.57"/>
    </timestep>
    <timestep time="120.00" id="test1" vType="SUMO_DEFAULT_TYPE">
        <vehicle id="always_left.0" lane="3fi_0" pos="135.57" x="501.65" y="135.57" speed="10.85"/>
        <vehicle id="always_left.1" lane="3fi_0" pos="33.73" x="501.65" y="33.73" speed="5.94"/>
        <vehicle id="always_left.2" lane="3fi_0" pos="3.10" x="501.65" y="3.10" speed="0.00"/>
        <vehicle id="always_right.0" lane="1fi_0" pos="125.25" x="125.25" y="498.35" speed="10.99"/>
        <vehicle id="always_right.1" lane="1fi_0" pos="36.75" x="36.75" y="498.35" speed="5.98"/>
        <vehicle id="always_right.2" lane="1fi_0" pos="3.10" x="3.10" y="498.35" speed="0.00"/>
        <vehicle id="horizontal.0" lane="2fi_0" pos="131.04" x="868.96" y="501.65" speed="10.97"/>
        <vehicle id="horizontal.1" lane="2fi_0" pos="34.91" x="965.09" y="501.65" speed="5.83"/>
        <vehicle id="horizontal.2" lane="2fi_0" pos="3.10" x="996.90" y="501.65" speed="0.00"/>
        <vehicle id="vertical.0" lane="3fi_0" pos="86.03" x="501.65" y="86.03" speed="9.77"/>
        <vehicle id="vertical.1" lane="3fi_0" pos="14.95" x="501.65" y="14.95" speed="3.46"/>
    </timestep>
    <timestep time="130.00" id="test1" vType="SUMO_DEFAULT_TYPE">
        <vehicle id="always_left.0" lane="3fi_0" pos="243.92" x="501.65" y="243.92" speed="10.75"/>
        <vehicle id="always_left.1" lane="3fi_0" pos="124.36" x="501.65" y="124.36" speed="10.89"/>
        <vehicle id="always_left.2" lane="3fi_0" pos="32.88" x="501.65" y="32.88" speed="5.62"/>
        <vehicle id="always_left.3" lane="3fi_0" pos="3.10" x="501.65" y="3.10" speed="0.00"/>
        <vehicle id="always_right.0" lane="1fi_0" pos="233.62" x="233.62" y="498.35" speed="10.72"/>
        <vehicle id="always_right.1" lane="1fi_0" pos="127.25" x="127.25" y="498.35" speed="11.03"/>
        <vehicle id="always_right.2" lane="1fi_0" pos="33.74" x="33.74" y="498.35" speed="5.81"/>
        <vehicle id="always_right.3" lane="1fi_0" pos="3.10" x="3.10" y="498.35" speed="0.00"/>
        <vehicle id="horizontal.0" lane="2fi_0" pos="240.44" x="759.56" y="501.65" speed="10.90"/>
        <vehicle id="horizontal.1" lane="2fi_0" pos="124.00" x="876.00" y="501.65" speed="11.07"/>
        <vehicle id="horizontal.2" lane="2fi_0" pos="41.36" x="958.64" y="501.65" speed="6.65"/>
        <vehicle id="horizontal.3" lane="2fi_0" pos="3.10" x="996.90" y="501.65" speed="0.00"/>
        <vehicle id="vertical.0" lane="3fi_0" pos="194.99" x="501.65" y="194.99" speed="10.73"/>
        <vehicle id="vertical.1" lane="3fi_0" pos="82.76" x="501.65" y="82.76" speed="9.66"/>
        <vehicle id="vertical.2" lane="3fi_0" pos="12.73" x="501.65" y="12.73" speed="3.36"/>
    </timestep>
    <timestep time="140.00" id="test1" vType="SUMO_DEFAULT_TYPE">
        <vehicle id="always_left.0" lane="3si_0" pos="116.95" x="508.25" y="368.45" speed="13.66"/>
        <vehicle id="always_left.1" lane="3fi_0" pos="233.55" x="501.65" y="233.55" speed="11.03"/>
        <vehicle id="always_left.2" lane="3fi_0" pos="119.55" x="501.65" y="119.55" speed="10.81"/>
        <vehicle id="always_left.3" lane="3fi_0" pos="33.63" x="501.65" y="33.63" speed="5.51"/>
        <vehicle id="always_left.4" lane="3fi_0" pos="3.10" x="501.65" y="3.10" speed="0.00"/>
        <vehicle id="always_right.0" lane="1si_2" pos="109.71" x="361.21" y="498.35" speed="13.84"/>
        <vehicle id="always_right.1" lane="1fi_0" pos="236.46" x="236.46" y="498.35" speed="11.09"/>
        <vehicle id="always_right.2" lane="1fi_0" pos="121.20" x="121.20" y="498.35" speed="10.79"/>
        <vehicle id="always_right.3" lane="1fi_0" pos="36.47" x="36.47" y="498.35" speed="5.88"/>
        <vehicle id="always_right.4" lane="1fi_0" pos="3.10" x="3.10" y="498.35" speed="0.00"/>
        <vehicle id="horizontal.0" lane="2si_1" pos="116.67" x="631.83" y="504.95" speed="13.88"/>
        <vehicle id="horizontal.1" lane="2fi_0" pos="233.14" x="766.86" y="501.65" speed="10.72"/>
        <vehicle id="horizontal.2" lane="2fi_0" pos="138.60" x="861.40" y="501.65" speed="11.09"/>
        <vehicle id="horizontal.3" lane="2fi_0" pos="35.82" x="964.18" y="501.65" speed="6.10"/>
        <vehicle id="horizontal.4" lane="2fi_0" pos="3.10" x="996.90" y="501.65" speed="0.00"/>
        <vehicle id="vertical.0" lane="3si_1" pos="61.20" x="504.95" y="312.70" speed="13.83"/>
        <vehicle id="vertical.1" lane="3fi_0" pos="190.92" x="501.65" y="190.92" speed="10.90"/>
        <vehicle id="vertical.2" lane="3fi_0" pos="82.05" x="501.65" y="82.05" speed="9.72"/>
        <vehicle id="vertical.3" lane="3fi_0" pos="14.50" x="501.65" y="14.50" speed="3.44"/>
    </timestep>
    <timestep time="150.00" id="test1" vType="SUMO_DEFAULT_TYPE">
        <vehicle id="always_left.0" lane="3si_0" pos="233.27" x="508.25" y="484.77" speed="3.46"/>
        <vehicle id="always_left.1" lane="3si_0" pos="102.35" x="508.25" y="353.85" speed="13.87"/>
        <vehicle id="always_left.2" lane="3fi_0" pos="228.62" x="501.65" y="228.62" speed="11.00"/>
        <vehicle id="always_left.3" lane="3fi_0" pos="118.73" x="501.65" y="118.73" speed="10.94"/>
        <vehicle id="always_left.4" lane="3fi_0" pos="38.77" x="501.65" y="38.77" speed="6.49"/>
        <vehicle id="always_left.5" lane="3fi_0" pos="3.10" x="501.65" y="3.10" speed="0.00"/>
        <vehicle id="always_right.0" lane="1si_2" pos="231.75" x="483.25" y="498.35" speed="5.25"/>
        <vehicle id="always_right.1" lane="1si_2" pos="112.15" x="363.65" y="498.35" speed="13.66"/>
        <vehicle id="always_right.2" lane="1fi_0" pos="230.20" x="230.20" y="498.35" speed="11.10"/>
        <vehicle id="always_right.3" lane="1fi_0" pos="126.02" x="126.02" y="498.35" speed="10.90"/>
        <vehicle id="always_right.4" lane="1fi_0" pos="35.14" x="35.14" y="498.35" speed="5.93"/>
        <vehicle id="always_right.5" lane="1fi_0" pos="3.10" x="3.10" y="498.35" speed="0.00"/>
        <vehicle id="horizontal.0" lane=":0_5_0" pos="13.74" x="497.73" y="503.33" speed="12.40"/>
        <vehicle id="horizontal.1" lane="2si_1" pos="107.40" x="641.10" y="504.95" speed="13.51"/>
        <vehicle id="horizontal.2" lane="2fi_0" pos="247.10" x="752.90" y="501.65" speed="10.76"/>
        <vehicle id="horizontal.3" lane="2fi_0" pos="125.64" x="874.36" y="501.65" speed="10.91"/>
        <vehicle id="horizontal.4" lane="2fi_0" pos="36.20" x="963.80" y="501.65" speed="5.98"/>
        <vehicle id="horizontal.5" lane="2fi_0" pos="3.10" x="996.90" y="501.65" speed="0.00"/>
        <vehicle id="vertical.0" lane="3si_1" pos="197.80" x="504.95" y="449.30" speed="13.75"/>
        <vehicle id="vertical.1" lane="3si_1" pos="53.04" x="504.95" y="304.54" speed="13.45"/>
        <vehicle id="vertical.2" lane="3fi_0" pos="189.85" x="501.65" y="189.85" speed="10.79"/>
        <vehicle id="vertical.3" lane="3fi_0" pos="84.91" x="501.65" y="84.91" speed="9.87"/>
        <vehicle id="vertical.4" lane="3fi_0" pos="13.17" x="501.65" y="13.17" speed="2.88"/>
    </timestep>
    <timestep time="160.00" id="test1" vType="SUMO_DEFAULT_TYPE">
        <vehicle id="always_left.0" lane="3si_0" pos="235.15" x="508.25" y="486.65" speed="0.00"/>
        <vehicle id="always_left.1" lane="3si_0" pos="225.93" x="508.25" y="477.43" speed="5.61"/>
        <vehicle id="always_left.2" lane="3si_0" pos="97.87" x="508.25" y="349.37" speed="13.59"/>
        <vehicle id="always_left.3" lane="3fi_0" pos="228.55" x="501.65" y="228.55" speed="11.06"/>
        <vehicle id="always_left.4" lane="3fi_0" pos="133.80" x="501.65" y="133.80" speed="10.87"/>
        <vehicle id="always_left.5" lane="3fi_0" pos="32.24" x="501.65" y="32.24" speed="5.45"/>
        <vehicle id="always_left.6" lane="3fi_0" pos="3.10" x="501.65" y="3.10" speed="0.00"/>
        <vehicle id="always_right.0" lane=":0_14_0" pos="5.91" x="494.48" y="499.24" speed="0.00"/>
        <vehicle id="always_right.1" lane="1si_2" pos="232.00" x="483.50" y="498.35" speed="5.00"/>
        <vehicle id="always_right.2" lane="1si_2" pos="106.46" x="357.96" y="498.35" speed="13.82"/>
        <vehicle id="always_right.3" lane="1fi_0" pos="234.90" x="234.90" y="498.35" speed="10.92"/>
        <vehicle id="always_right.4" lane="1fi_0" pos="125.42" x="125.42" y="498.35" speed="11.11"/>
        <vehicle id="always_right.5" lane="1fi_0" pos="35.22" x="35.22" y="498.35" speed="6.03"/>
        <vehicle id="always_right.6" lane="1fi_0" pos="3.10" x="3.10" y="498.35" speed="0.00"/>
        <vehicle id="horizontal.0" lane="1o_0" pos="99.63" x="389.02" y="501.65" speed="10.78"/>
        <vehicle id="horizontal.1" lane=":0_5_0" pos="6.19" x="505.18" y="504.53" speed="12.50"/>
        <vehicle id="horizontal.2" lane="2si_1" pos="123.81" x="624.69" y="504.95" speed="13.58"/>
        <vehicle id="horizontal.3" lane="2fi_0" pos="234.27" x="765.73" y="501.65" speed="10.93"/>
        <vehicle id="horizontal.4" lane="2fi_0" pos="125.62" x="874.38" y="501.65" speed="10.77"/>
        <vehicle id="horizontal.5" lane="2fi_0" pos="38.06" x="961.94" y="501.65" speed="6.25"/>
        <vehicle id="horizontal.6" lane="2fi_0" pos="3.10" x="996.90" y="501.65" speed="0.00"/>
        <vehicle id="vertical.0" lane="3si_1" pos="235.15" x="504.95" y="486.65" speed="0.00"/>
        <vehicle id="vertical.1" lane="3si_1" pos="190.17" x="504.95" y="441.67" speed="13.58"/>
        <vehicle id="vertical.2" lane="3si_1" pos="52.88" x="504.95" y="304.38" speed="13.54"/>
        <vehicle id="vertical.3" lane="3fi_0" pos="192.99" x="501.65" y="192.99" speed="10.81"/>
        <vehicle id="vertical.4" lane="3fi_0" pos="77.55" x="501.65" y="77.55" speed="9.31"/>
        <vehicle id="vertical.5" lane="3fi_0" pos="14.44" x="501.65" y="14.44" speed="3.67"/>
    </timestep>
    <timestep time="170.00" id="test1" vType="SUMO_DEFAULT_TYPE">
        <vehicle id="always_left.0" lane="3si_0" pos="235.15" x="508.25" y="486.65" speed="0.00"/>
        <vehicle id="always_left.1" lane="3si_0" pos="230.15" x="508.25" y="481.65" speed="0.00"/>
        <vehicle id="always_left.2" lane="3si_0" pos="221.07" x="508.25" y="472.57" speed="5.38"/>
        <vehicle id="always_left.3" lane="3si_0" pos="99.37" x="508.25" y="350.87" speed="13.61"/>
        <vehicle id="always_left.4" lane="3fi_0" pos="243.01" x="501.65" y="243.01" speed="10.98"/>
        <vehicle id="always_left.5" lane="3fi_0" pos="117.61" x="501.65" y="117.61" speed="10.78"/>
        <vehicle id="always_left.6" lane="3fi_0" pos="39.01" x="501.65" y="39.01" speed="6.66"/>
        <vehicle id="always_left.7" lane="3fi_0" pos="3.10" x="501.65" y="3.10" speed="0.00"/>
        <vehicle id="always_right.0" lane=":0_22_0" pos="8.76" x="501.05" y="507.10" speed="3.47"/>
        <vehicle id="always_right.1" lane=":0_14_0" pos="6.74" x="495.19" y="499.67" speed="2.21"/>
        <vehicle id="always_right.2" lane="1si_2" pos="231.21" x="482.71" y="498.35" speed="6.99"/>
        <vehicle id="always_right.3" lane="1si_2" pos="110.06" x="361.56" y="498.35" speed="13.70"/>
        <vehicle id="always_right.4" lane="1fi_0" pos="235.00" x="235.00" y="498.35" speed="10.96"/>
        <vehicle id="always_right.5" lane="1fi_0" pos="125.44" x="125.44" y="498.35" speed="10.95"/>
        <vehicle id="always_right.6" lane="1fi_0" pos="34.20" x="34.20" y="498.35" speed="5.69"/>
        <vehicle id="always_right.7" lane="1fi_0" pos="3.10" x="3.10" y="498.35" speed="0.00"/>
        <vehicle id="horizontal.0" lane="1o_0" pos="207.91" x="280.74" y="501.65" speed="10.96"/>
        <vehicle id="horizontal.1" lane="1o_0" pos="93.82" x="394.83" y="501.65" speed="11.08"/>
        <vehicle id="horizontal.2" lane="2si_1" pos="234.32" x="514.18" y="504.95" speed="2.71"/>
        <vehicle id="horizontal.3" lane="2si_1" pos="108.36" x="640.14" y="504.95" speed="13.66"/>
        <vehicle id="horizontal.4" lane="2fi_0" pos="234.14" x="765.86" y="501.65" speed="10.74"/>
        <vehicle id="horizontal.5" lane="2fi_0" pos="132.69" x="867.31" y="501.65" speed="11.09"/>
        <vehicle id="horizontal.6" lane="2fi_0" pos="35.34" x="964.66" y="501.65" speed="5.82"/>
        <vehicle id="horizontal.7" lane="2fi_0" pos="3.10" x="996.90" y="501.65" speed="0.00"/>
        <vehicle id="vertical.0" lane="3si_1" pos="235.15" x="504.95" y="486.65" speed="0.00"/>
        <vehicle id="vertical.1" lane="3si_1" pos="230.14" x="504.95" y="481.64" speed="0.00"/>
        <vehicle id="vertical.2" lane="3si_1" pos="189.89" x="504.95" y="441.39" speed="13.66"/>
        <vehicle id="vertical.3" lane="3si_1" pos="55.57" x="504.95" y="307.07" speed="13.35"/>
        <vehicle id="vertical.4" lane="3fi_0" pos="184.96" x="501.65" y="184.96" speed="10.85"/>
        <vehicle id="vertical.5" lane="3fi_0" pos="85.35" x="501.65" y="85.35" speed="9.68"/>
        <vehicle id="vertical.6" lane="3fi_0" pos="13.56" x="501.65" y="13.56" speed="2.97"/>
    </timestep>
    <timestep time="180.00" id="test1" vType="SUMO_DEFAULT_TYPE">
        <vehicle id="always_left.0" lane="3si_0" pos="235.92" x="508.25" y="487.42" speed="0.77"/>
        <vehicle id="always_left.1" lane="3si_0" pos="230.15" x="508.25" y="481.65" speed="0.00"/>
        <vehicle id="always_left.2" lane="3si_0" pos="225.14" x="508.25" y="476.64" speed="0.00"/>
        <vehicle id="always_left.3" lane="3si_0" pos="217.65" x="508.25" y="469.15" speed="4.32"/>
        <vehicle id="always_left.4" lane="3si_0" pos="116.62" x="508.25" y="368.12" speed="13.54"/>
        <vehicle id="always_left.5" lane="3fi_0" pos="226.86" x="501.65" y="226.86" speed="10.91"/>
        <vehicle id="always_left.6" lane="3fi_0" pos="136.60" x="501.65" y="136.60" speed="10.78"/>
        <vehicle id="always_left.7" lane="3fi_0" pos="33.26" x="501.65" y="33.26" speed="5.73"/>
        <vehicle id="always_left.8" lane="3fi_0" pos="3.10" x="501.65" y="3.10" speed="0.00"/>
        <vehicle id="always_right.0" lane="4o_0" pos="63.78" x="501.65" y="575.13" speed="9.76"/>
        <vehicle id="always_right.1" lane="4o_0" pos="40.30" x="501.65" y="551.65" speed="8.30"/>
        <vehicle id="always_right.2" lane="4o_0" pos="22.64" x="501.65" y="533.99" speed="7.08"/>
        <vehicle id="always_right.3" lane="1si_2" pos="231.74" x="483.24" y="498.35" speed="5.23"/>
        <vehicle id="always_right.4" lane="1si_2" pos="110.79" x="362.29" y="498.35" speed="13.87"/>
        <vehicle id="always_right.5" lane="1fi_0" pos="234.47" x="234.47" y="498.35" speed="10.93"/>
        <vehicle id="always_right.6" lane="1fi_0" pos="124.10" x="124.10" y="498.35" speed="10.85"/>
        <vehicle id="always_right.7" lane="1fi_0" pos="35.73" x="35.73" y="498.35" speed="6.02"/>
        <vehicle id="always_right.8" lane="1fi_0" pos="3.10" x="3.10" y="498.35" speed="0.00"/>
        <vehicle id="horizontal.0" lane="1o_0" pos="316.83" x="171.82" y="501.65" speed="10.81"/>
        <vehicle id="horizontal.1" lane="1o_0" pos="203.32" x="285.33" y="501.65" speed="10.99"/>
        <vehicle id="horizontal.2" lane="2si_1" pos="235.14" x="513.36" y="504.95" speed="0.00"/>
        <vehicle id="horizontal.3" lane="2si_1" pos="227.77" x="520.73" y="504.95" speed="4.43"/>
        <vehicle id="horizontal.4" lane="2si_1" pos="105.94" x="642.56" y="504.95" speed="13.52"/>
        <vehicle id="horizontal.5" lane="2fi_0" pos="242.25" x="757.75" y="501.65" speed="11.02"/>
        <vehicle id="horizontal.6" lane="2fi_0" pos="128.32" x="871.68" y="501.65" speed="10.88"/>
        <vehicle id="horizontal.7" lane="2fi_0" pos="35.47" x="964.53" y="501.65" speed="5.78"/>
        <vehicle id="horizontal.8" lane="2fi_0" pos="3.10" x="996.90" y="501.65" speed="0.00"/>
        <vehicle id="vertical.0" lane="3si_1" pos="235.87" x="504.95" y="487.37" speed="0.72"/>
        <vehicle id="vertical.1" lane="3si_1" pos="230.14" x="504.95" y="481.64" speed="0.00"/>
        <vehicle id="vertical.2" lane="3si_1" pos="225.14" x="504.95" y="476.64" speed="0.00"/>
        <vehicle id="vertical.3" lane="3si_1" pos="192.48" x="504.95" y="443.98" speed="13.63"/>
        <vehicle id="vertical.4" lane="3si_1" pos="48.42" x="504.95" y="299.92" speed="13.73"/>
        <vehicle id="vertical.5" lane="3fi_0" pos="194.46" x="501.65" y="194.46" speed="11.10"/>
        <vehicle id="vertical.6" lane="3fi_0" pos="74.38" x="501.65" y="74.38" speed="8.52"/>
        <vehicle id="vertical.7" lane="3fi_0" pos="12.47" x="501.65" y="12.47" speed="3.29"/>
    </timestep>
    <timestep time="190.00" id="test1" vType="SUMO_DEFAULT_TYPE">
        <vehicle id="always_left.0" lane="2o_0" pos="31.94" x="543.29" y="498.35" speed="7.04"/>
        <vehicle id="always_left.1" lane="2o_0" pos="15.12" x="526.47" y="498.35" speed="6.05"/>
        <vehicle id="always_left.2" lane="2o_0" pos="1.46" x="512.81" y="498.35" speed="4.77"/>
        <vehicle id="always_left.3" lane=":0_8_0" pos="0.52" x="508.27" y="489.17" speed="3.82"/>
        <vehicle id="always_left.4" lane="3si_0" pos="226.23" x="508.25" y="477.73" speed="4.63"/>
        <vehicle id="always_left.5" lane="3si_0" pos="97.54" x="508.25" y="349.04" speed="13.55"/>
        <vehicle id="always_left.6" lane="3fi_0" pos="245.80" x="501.65" y="245.80" speed="10.92"/>
        <vehicle id="always_left.7" lane="3fi_0" pos="123.15" x="501.65" y="123.15" speed="10.72"/>
        <vehicle id="always_left.8" lane="3fi_0" pos="33.10" x="501.65" y="33.10" speed="5.64"/>
        <vehicle id="always_left.9" lane="3fi_0" pos="3.10" x="501.65" y="3.10" speed="0.00"/>
        <vehicle id="always_right.0" lane="4o_0" pos="172.77" x="501.65" y="684.12" speed="11.08"/>
        <vehicle id="always_right.1" lane="4o_0" pos="145.77" x="501.65" y="657.12" speed="10.81"/>
        <vehicle id="always_right.2" lane="4o_0" pos="121.48" x="501.65" y="632.83" speed="10.85"/>
        <vehicle id="always_right.3" lane="1si_2" pos="235.15" x="486.65" y="498.35" speed="0.00"/>
        <vehicle id="always_right.4" lane="1si_2" pos="228.09" x="479.59" y="498.35" speed="3.79"/>
        <vehicle id="always_right.5" lane="1si_2" pos="109.27" x="360.77" y="498.35" speed="13.52"/>
        <vehicle id="always_right.6" lane="1fi_0" pos="233.03" x="233.03" y="498.35" speed="10.94"/>
        <vehicle id="always_right.7" lane="1fi_0" pos="128.44" x="128.44" y="498.35" speed="10.87"/>
        <vehicle id="always_right.8" lane="1fi_0" pos="36.42" x="36.42" y="498.35" speed="6.14"/>
        <vehicle id="always_right.9" lane="1fi_0" pos="3.10" x="3.10" y="498.35" speed="0.00"/>
        <vehicle id="horizontal.0" lane="1o_0" pos="425.47" x="63.18" y="501.65" speed="10.79"/>
        <vehicle id="horizontal.1" lane="1o_0" pos="312.18" x="176.47" y="501.65" speed="11.11"/>
        <vehicle id="horizontal.2" lane="2si_1" pos="235.14" x="513.36" y="504.95" speed="0.00"/>
        <vehicle id="horizontal.3" lane="2si_1" pos="230.14" x="518.36" y="504.95" speed="0.00"/>
        <vehicle id="horizontal.4" lane="2si_1" pos="223.20" x="525.30" y="504.95" speed="4.10"/>
        <vehicle id="horizontal.5" lane="2si_1" pos="118.29" x="630.21" y="504.95" speed="13.80"/>
        <vehicle id="horizontal.6" lane="2fi_0" pos="237.17" x="762.83" y="501.65" speed="10.75"/>
        <vehicle id="horizontal.7" lane="2fi_0" pos="127.03" x="872.97" y="501.65" speed="11.06"/>
        <vehicle id="horizontal.8" lane="2fi_0" pos="37.43" x="962.57" y="501.65" speed="6.23"/>
        <vehicle id="horizontal.9" lane="2fi_0" pos="3.10" x="996.90" y="501.65" speed="0.00"/>
        <vehicle id="vertical.0" lane="4o_0" pos="13.10" x="501.65" y="524.45" speed="6.05"/>
        <vehicle id="vertical.1" lane=":0_9_0" pos="21.93" x="501.78" y="510.31" speed="5.04"/>
        <vehicle id="vertical.2" lane=":0_9_0" pos="9.18" x="504.16" y="497.78" speed="4.77"/>
        <vehicle id="vertical.3" lane="3si_1" pos="234.89" x="504.95" y="486.39" speed="3.83"/>
        <vehicle id="vertical.4" lane="3si_1" pos="185.06" x="504.95" y="436.56" speed="13.62"/>
        <vehicle id="vertical.5" lane="3si_1" pos="59.90" x="504.95" y="311.40" speed="13.77"/>
        <vehicle id="vertical.6" lane="3fi_0" pos="179.66" x="501.65" y="179.66" speed="11.08"/>
        <vehicle id="vertical.7" lane="3fi_0" pos="73.43" x="501.65" y="73.43" speed="8.91"/>
        <vehicle id="vertical.8" lane="3fi_0" pos="13.29" x="501.65" y="13.29" speed="3.29"/>
    </timestep>
    <timestep time="200.00" id="test1" vType="SUMO_DEFAULT_TYPE">
        <vehicle id="always_left.0" lane="2o_0" pos="132.26" x="643.61" y="498.35" speed="11.10"/>
        <vehicle id="always_left.1" lane="2o_0" pos="108.94" x="620.29" y="498.35" speed="10.91"/>
        <vehicle id="always_left.10" lane="3fi_0" pos="3.10" x="501.65" y="3.10" speed="0.00"/>
        <vehicle id="always_left.2" lane="2o_0" pos="77.83" x="589.18" y="498.35" speed="9.83"/>
        <vehicle id="always_left.3" lane="2o_0" pos="57.36" x="568.71" y="498.35" speed="9.27"/>
        <vehicle id="always_left.4" lane="2o_0" pos="38.98" x="550.33" y="498.35" speed="7.99"/>
        <vehicle id="always_left.5" lane="3si_0" pos="233.63" x="508.25" y="485.13" speed="13.35"/>
        <vehicle id="always_left.6" lane="3si_0" pos="118.33" x="508.25" y="369.83" speed="13.71"/>
        <vehicle id="always_left.7" lane="3fi_0" pos="232.56" x="501.65" y="232.56" speed="11.06"/>
        <vehicle id="always_left.8" lane="3fi_0" pos="120.38" x="501.65" y="120.38" speed="10.88"/>
        <vehicle id="always_left.9" lane="3fi_0" pos="34.49" x="501.65" y="34.49" speed="5.77"/>
        <vehicle id="always_right.0" lane="4o_0" pos="281.74" x="501.65" y="793.09" speed="10.93"/>
        <vehicle id="always_right.1" lane="4o_0" pos="255.37" x="501.65" y="766.72" speed="11.09"/>
        <vehicle id="always_right.10" lane="1fi_0" pos="3.10" x="3.10" y="498.35" speed="0.00"/>
        <vehicle id="always_right.2" lane="4o_0" pos="230.09" x="501.65" y="741.44" speed="10.75"/>
        <vehicle id="always_right.3" lane="1si_2" pos="235.15" x="486.65" y="498.35" speed="0.00"/>
        <vehicle id="always_right.4" lane="1si_2" pos="230.14" x="481.64" y="498.35" speed="0.00"/>
        <vehicle id="always_right.5" lane="1si_2" pos="223.61" x="475.11" y="498.35" speed="3.23"/>
        <vehicle id="always_right.6" lane="1si_2" pos="107.72" x="359.22" y="498.35" speed="13.80"/>
        <vehicle id="always_right.7" lane="1fi_0" pos="237.95" x="237.95" y="498.35" speed="11.10"/>
        <vehicle id="always_right.8" lane="1fi_0" pos="130.08" x="130.08" y="498.35" speed="10.98"/>
        <vehicle id="always_right.9" lane="1fi_0" pos="37.70" x="37.70" y="498.35" speed="6.21"/>
        <vehicle id="horizontal.0" lane="1fi_0" pos="22.83" x="22.83" y="498.35" speed="6.18"/>
        <vehicle id="horizontal.1" lane="1o_0" pos="421.43" x="67.22" y="501.65" speed="10.74"/>
        <vehicle id="horizontal.10" lane="2fi_0" pos="3.10" x="996.90" y="501.65" speed="0.00"/>
        <vehicle id="horizontal.2" lane="2si_1" pos="235.14" x="513.36" y="504.95" speed="0.00"/>
        <vehicle id="horizontal.3" lane="2si_1" pos="230.14" x="518.36" y="504.95" speed="0.00"/>
        <vehicle id="horizontal.4" lane="2si_1" pos="225.14" x="523.36" y="504.95" speed="0.00"/>
        <vehicle id="horizontal.5" lane="2si_1" pos="219.79" x="528.71" y="504.95" speed="0.94"/>
        <vehicle id="horizontal.6" lane="2si_1" pos="111.24" x="637.26" y="504.95" speed="13.86"/>
        <vehicle id="horizontal.7" lane="2fi_0" pos="236.29" x="763.71" y="501.65" speed="10.82"/>
        <vehicle id="horizontal.8" lane="2fi_0" pos="132.26" x="867.74" y="501.65" speed="10.71"/>
        <vehicle id="horizontal.9" lane="2fi_0" pos="36.32" x="963.68" y="501.65" speed="6.06"/>
        <vehicle id="vertical.0" lane="4o_0" pos="104.18" x="501.65" y="615.53" speed="10.75"/>
        <vehicle id="vertical.1" lane="4o_0" pos="82.52" x="501.65" y="593.87" speed="10.91"/>
        <vehicle id="vertical.2" lane="4o_0" pos="61.70" x="501.65" y="573.05" speed="10.03"/>
        <vehicle id="vertical.3" lane="4o_0" pos="41.00" x="501.65" y="552.35" speed="9.12"/>
        <vehicle id="vertical.4" lane="4o_0" pos="22.29" x="501.65" y="533.64" speed="8.21"/>
        <vehicle id="vertical.5" lane="3si_1" pos="196.48" x="504.95" y="447.98" speed="13.78"/>
        <vehicle id="vertical.6" lane="3si_1" pos="39.08" x="504.95" y="290.58" speed="12.62"/>
        <vehicle id="vertical.7" lane="3fi_0" pos="179.99" x="501.65" y="179.99" speed="10.93"/>
        <vehicle id="vertical.8" lane="3fi_0" pos="77.16" x="501.65" y="77.16" speed="8.98"/>
        <vehicle id="vertical.9" lane="3fi_0" pos="16.97" x="501.65" y="16.97" speed="4.02"/>
    </timestep>
    <timestep time="210.00" id="test1" vType="SUMO_DEFAULT_TYPE">
        <vehicle id="always_left.0" lane="2o_0" pos="241.79" x="753.14" y="498.35" speed="10.86"/>
        <vehicle id="always_left.1" lane="2o_0" pos="217.85" x="729.20" y="498.35" speed="11.04"/>
        <vehicle id="always_left.10" lane="3fi_0" pos="36.50" x="501.65" y="36.50" speed="6.22"/>
        <vehicle id="always_left.11" lane="3fi_0" pos="3.10" x="501.65" y="3.10" speed="0.00"/>
        <vehicle id="always_left.2" lane="2o_0" pos="186.14" x="697.49" y="498.35" speed="10.84"/>
        <vehicle id="always_left.3" lane="2o_0" pos="163.96" x="675.31" y="498.35" speed="10.91"/>
        <vehicle id="always_left.4" lane="2o_0" pos="141.05" x="652.40" y="498.35" speed="10.96"/>
        <vehicle id="always_left.5" lane="2o_0" pos="95.48" x="606.83" y="498.35" speed="10.92"/>
        <vehicle id="always_left.6" lane="2o_0" pos="3.88" x="515.23" y="498.35" speed="10.87"/>
        <vehicle id="always_left.7" lane="3si_0" pos="101.97" x="508.25" y="353.47" speed="13.70"/>
        <vehicle id="always_left.8" lane="3fi_0" pos="229.43" x="501.65" y="229.43" speed="10.90"/>
        <vehicle id="always_left.9" lane="3fi_0" pos="121.77" x="501.65" y="121.77" speed="11.06"/>
        <vehicle id="always_right.0" lane="4o_0" pos="390.89" x="501.65" y="902.24" speed="10.91"/>
        <vehicle id="always_right.1" lane="4o_0" pos="364.24" x="501.65" y="875.59" speed="10.96"/>
        <vehicle id="always_right.10" lane="1fi_0" pos="36.43" x="36.43" y="498.35" speed="6.08"/>
        <vehicle id="always_right.11" lane="1fi_0" pos="3.10" x="3.10" y="498.35" speed="0.00"/>
        <vehicle id="always_right.2" lane="4o_0" pos="338.88" x="501.65" y="850.23" speed="11.05"/>
        <vehicle id="always_right.3" lane="1si_2" pos="235.15" x="486.65" y="498.35" speed="0.00"/>
        <vehicle id="always_right.4" lane="1si_2" pos="230.14" x="481.64" y="498.35" speed="0.00"/>
        <vehicle id="always_right.5" lane="1si_2" pos="225.14" x="476.64" y="498.35" speed="0.00"/>
        <vehicle id="always_right.6" lane="1si_2" pos="219.03" x="470.53" y="498.35" speed="2.64"/>
        <vehicle id="always_right.7" lane="1si_2" pos="114.97" x="366.47" y="498.35" speed="13.78"/>
        <vehicle id="always_right.8" lane="1fi_0" pos="239.11" x="239.11" y="498.35" speed="10.81"/>
        <vehicle id="always_right.9" lane="1fi_0" pos="131.40" x="131.40" y="498.35" speed="10.76"/>
        <vehicle id="horizontal.0" lane="1fi_0" pos="108.07" x="108.07" y="498.35" speed="10.83"/>
        <vehicle id="horizontal.1" lane="1fi_0" pos="21.44" x="21.44" y="498.35" speed="6.17"/>
        <vehicle id="horizontal.10" lane="2fi_0" pos="35.60" x="964.40" y="501.65" speed="5.70"/>
        <vehicle id="horizontal.11" lane="2fi_0" pos="3.10" x="996.90" y="501.65" speed="0.00"/>