<?xml version="1.0"?>

<!-- generated on 02/28/12 14:04:34 by SUMO sumo Version dev-SVN-r11963
<?xml version="1.0" encoding="UTF-8"?>

<configuration xmlns:xsi="http://www.w3.org/2001/XMLSchema-instance" xsi:noNamespaceSchemaLocation="http://sumo.sf.net/xsd/sumoConfiguration.xsd">

    <input>
        <net-file value="net.net.xml"/>
        <route-files value="input_routes.rou.xml"/>
        <additional-files value="input_additional.add.xml"/>
    </input>

    <time>
        <begin value="0"/>
        <end value="220"/>
    </time>

    <report>
        <no-duration-log value="true"/>
        <no-step-log value="true"/>
    </report>

</configuration>
-->

<vehicle-type-probes>
    <timestep time="0.00" id="test1" vType="SUMO_DEFAULT_TYPE">
    </timestep>
    <timestep time="10.00" id="test1" vType="SUMO_DEFAULT_TYPE">
    </timestep>
    <timestep time="20.00" id="test1" vType="SUMO_DEFAULT_TYPE">
    </timestep>
    <timestep time="30.00" id="test1" vType="SUMO_DEFAULT_TYPE">
    </timestep>
    <timestep time="40.00" id="test1" vType="SUMO_DEFAULT_TYPE">
    </timestep>
    <timestep time="50.00" id="test1" vType="SUMO_DEFAULT_TYPE">
    </timestep>
    <timestep time="60.00" id="test1" vType="SUMO_DEFAULT_TYPE">
    </timestep>
    <timestep time="70.00" id="test1" vType="SUMO_DEFAULT_TYPE">
    </timestep>
    <timestep time="80.00" id="test1" vType="SUMO_DEFAULT_TYPE">
    </timestep>
    <timestep time="90.00" id="test1" vType="SUMO_DEFAULT_TYPE">
    </timestep>
    <timestep time="100.00" id="test1" vType="SUMO_DEFAULT_TYPE">
        <vehicle id="always_left.0" lane="3fi_0" pos="3.10" x="501.65" y="3.10" speed="0.00"/>
        <vehicle id="always_right.0" lane="1fi_0" pos="3.10" x="3.10" y="498.35" speed="0.00"/>
        <vehicle id="horizontal.0" lane="2fi_0" pos="3.10" x="996.90" y="501.65" speed="0.00"/>
    </timestep>
    <timestep time="110.00" id="test1" vType="SUMO_DEFAULT_TYPE">
        <vehicle id="always_left.0" lane="3fi_0" pos="39.39" x="501.65" y="39.39" speed="6.55"/>
        <vehicle id="always_left.1" lane="3fi_0" pos="3.10" x="501.65" y="3.10" speed="0.00"/>
        <vehicle id="always_right.0" lane="1fi_0" pos="34.12" x="34.12" y="498.35" speed="5.72"/>
        <vehicle id="always_right.1" lane="1fi_0" pos="3.10" x="3.10" y="498.35" speed="0.00"/>
        <vehicle id="horizontal.0" lane="2fi_0" pos="36.42" x="963.58" y="501.65" speed="6.15"/>
        <vehicle id="horizontal.1" lane="2fi_0" pos="3.10" x="996.90" y="501.65" speed="0.00"/>
        <vehicle id="vertical.0" lane="3fi_0" pos="15.93" x="501.65" y="15.93" speed="3.57"/>
    </timestep>
    <timestep time="120.00" id="test1" vType="SUMO_DEFAULT_TYPE">
        <vehicle id="always_left.0" lane="3fi_0" pos="135.57" x="501.65" y="135.57" speed="10.85"/>
        <vehicle id="always_left.1" lane="3fi_0" pos="33.73" x="501.65" y="33.73" speed="5.94"/>
        <vehicle id="always_left.2" lane="3fi_0" pos="3.10" x="501.65" y="3.10" speed="0.00"/>
        <vehicle id="always_right.0" lane="1fi_0" pos="125.25" x="125.25" y="498.35" speed="10.99"/>
        <vehicle id="always_right.1" lane="1fi_0" pos="36.75" x="36.75" y="498.35" speed="5.98"/>
        <vehicle id="always_right.2" lane="1fi_0" pos="3.10" x="3.10" y="498.35" speed="0.00"/>
        <vehicle id="horizontal.0" lane="2fi_0" pos="131.04" x="868.96" y="501.65" speed="10.97"/>
        <vehicle id="horizontal.1" lane="2fi_0" pos="34.91" x="965.09" y="501.65" speed="5.83"/>
        <vehicle id="horizontal.2" lane="2fi_0" pos="3.10" x="996.90" y="501.65" speed="0.00"/>
        <vehicle id="vertical.0" lane="3fi_0" pos="86.03" x="501.65" y="86.03" speed="9.77"/>
        <vehicle id="vertical.1" lane="3fi_0" pos="14.95" x="501.65" y="14.95" speed="3.46"/>
    </timestep>
    <timestep time="130.00" id="test1" vType="SUMO_DEFAULT_TYPE">
        <vehicle id="always_left.0" lane="3fi_0" pos="243.92" x="501.65" y="243.92" speed="10.75"/>
        <vehicle id="always_left.1" lane="3fi_0" pos="124.36" x="501.65" y="124.36" speed="10.89"/>
        <vehicle id="always_left.2" lane="3fi_0" pos="32.88" x="501.65" y="32.88" speed="5.62"/>
        <vehicle id="always_left.3" lane="3fi_0" pos="3.10" x="501.65" y="3.10" speed="0.00"/>
        <vehicle id="always_right.0" lane="1fi_0" pos="233.62" x="233.62" y="498.35" speed="10.72"/>
        <vehicle id="always_right.1" lane="1fi_0" pos="127.25" x="127.25" y="498.35" speed="11.03"/>
        <vehicle id="always_right.2" lane="1fi_0" pos="33.74" x="33.74" y="498.35" speed="5.81"/>
        <vehicle id="always_right.3" lane="1fi_0" pos="3.10" x="3.10" y="498.35" speed="0.00"/>
        <vehicle id="horizontal.0" lane="2fi_0" pos="240.44" x="759.56" y="501.65" speed="10.90"/>
        <vehicle id="horizontal.1" lane="2fi_0" pos="124.00" x="876.00" y="501.65" speed="11.07"/>
        <vehicle id="horizontal.2" lane="2fi_0" pos="41.36" x="958.64" y="501.65" speed="6.65"/>
        <vehicle id="horizontal.3" lane="2fi_0" pos="3.10" x="996.90" y="501.65" speed="0.00"/>
        <vehicle id="vertical.0" lane="3fi_0" pos="194.99" x="501.65" y="194.99" speed="10.73"/>
        <vehicle id="vertical.1" lane="3fi_0" pos="82.76" x="501.65" y="82.76" speed="9.66"/>
        <vehicle id="vertical.2" lane="3fi_0" pos="12.73" x="501.65" y="12.73" speed="3.36"/>
    </timestep>
    <timestep time="140.00" id="test1" vType="SUMO_DEFAULT_TYPE">
        <vehicle id="always_left.0" lane="3si_0" pos="116.95" x="508.25" y="368.45" speed="13.66"/>
        <vehicle id="always_left.1" lane="3fi_0" pos="233.55" x="501.65" y="233.55" speed="11.03"/>
        <vehicle id="always_left.2" lane="3fi_0" pos="119.55" x="501.65" y="119.55" speed="10.81"/>
        <vehicle id="always_left.3" lane="3fi_0" pos="33.63" x="501.65" y="33.63" speed="5.51"/>
        <vehicle id="always_left.4" lane="3fi_0" pos="3.10" x="501.65" y="3.10" speed="0.00"/>
        <vehicle id="always_right.0" lane="1si_2" pos="109.71" x="361.21" y="498.35" speed="13.84"/>
        <vehicle id="always_right.1" lane="1fi_0" pos="236.46" x="236.46" y="498.35" speed="11.09"/>
        <vehicle id="always_right.2" lane="1fi_0" pos="121.20" x="121.20" y="498.35" speed="10.79"/>
        <vehicle id="always_right.3" lane="1fi_0" pos="36.47" x="36.47" y="498.35" speed="5.88"/>
        <vehicle id="always_right.4" lane="1fi_0" pos="3.10" x="3.10" y="498.35" speed="0.00"/>
        <vehicle id="horizontal.0" lane="2si_1" pos="116.67" x="631.83" y="504.95" speed="13.88"/>
        <vehicle id="horizontal.1" lane="2fi_0" pos="233.14" x="766.86" y="501.65" speed="10.72"/>
        <vehicle id="horizontal.2" lane="2fi_0" pos="138.60" x="861.40" y="501.65" speed="11.09"/>
        <vehicle id="horizontal.3" lane="2fi_0" pos="35.82" x="964.18" y="501.65" speed="6.10"/>
        <vehicle id="horizontal.4" lane="2fi_0" pos="3.10" x="996.90" y="501.65" speed="0.00"/>
        <vehicle id="vertical.0" lane="3si_1" pos="61.20" x="504.95" y="312.70" speed="13.83"/>
        <vehicle id="vertical.1" lane="3fi_0" pos="190.92" x="501.65" y="190.92" speed="10.90"/>
        <vehicle id="vertical.2" lane="3fi_0" pos="82.05" x="501.65" y="82.05" speed="9.72"/>
        <vehicle id="vertical.3" lane="3fi_0" pos="14.50" x="501.65" y="14.50" speed="3.44"/>
    </timestep>
    <timestep time="150.00" id="test1" vType="SUMO_DEFAULT_TYPE">
        <vehicle id="always_left.0" lane="3si_0" pos="233.27" x="508.25" y="484.77" speed="3.46"/>
        <vehicle id="always_left.1" lane="3si_0" pos="102.35" x="508.25" y="353.85" speed="13.87"/>
        <vehicle id="always_left.2" lane="3fi_0" pos="228.62" x="501.65" y="228.62" speed="11.00"/>
        <vehicle id="always_left.3" lane="3fi_0" pos="118.73" x="501.65" y="118.73" speed="10.94"/>
        <vehicle id="always_left.4" lane="3fi_0" pos="38.77" x="501.65" y="38.77" speed="6.49"/>
        <vehicle id="always_left.5" lane="3fi_0" pos="3.10" x="501.65" y="3.10" speed="0.00"/>
        <vehicle id="always_right.0" lane="1si_2" pos="231.75" x="483.25" y="498.35" speed="5.25"/>
        <vehicle id="always_right.1" lane="1si_2" pos="112.15" x="363.65" y="498.35" speed="13.66"/>
        <vehicle id="always_right.2" lane="1fi_0" pos="230.20" x="230.20" y="498.35" speed="11.10"/>
        <vehicle id="always_right.3" lane="1fi_0" pos="126.02" x="126.02" y="498.35" speed="10.90"/>
        <vehicle id="always_right.4" lane="1fi_0" pos="35.14" x="35.14" y="498.35" speed="5.93"/>
        <vehicle id="always_right.5" lane="1fi_0" pos="3.10" x="3.10" y="498.35" speed="0.00"/>
        <vehicle id="horizontal.0" lane=":0_5_0" pos="13.74" x="497.73" y="503.33" speed="12.40"/>
        <vehicle id="horizontal.1" lane="2si_1" pos="107.40" x="641.10" y="504.95" speed="13.51"/>
        <vehicle id="horizontal.2" lane="2fi_0" pos="247.10" x="752.90" y="501.65" speed="10.76"/>
        <vehicle id="horizontal.3" lane="2fi_0" pos="125.64" x="874.36" y="501.65" speed="10.91"/>
        <vehicle id="horizontal.4" lane="2fi_0" pos="36.20" x="963.80" y="501.65" speed="5.98"/>
        <vehicle id="horizontal.5" lane="2fi_0" pos="3.10" x="996.90" y="501.65" speed="0.00"/>
        <vehicle id="vertical.0" lane="3si_1" pos="197.80" x="504.95" y="449.30" speed="13.75"/>
        <vehicle id="vertical.1" lane="3si_1" pos="53.04" x="504.95" y="304.54" speed="13.45"/>
        <vehicle id="vertical.2" lane="3fi_0" pos="189.85" x="501.65" y="189.85" speed="10.79"/>
        <vehicle id="vertical.3" lane="3fi_0" pos="84.91" x="501.65" y="84.91" speed="9.87"/>
        <vehicle id="vertical.4" lane="3fi_0" pos="13.17" x="501.65" y="13.17" speed="2.88"/>
    </timestep>
    <timestep time="160.00" id="test1" vType="SUMO_DEFAULT_TYPE">
        <vehicle id="always_left.0" lane="3si_0" pos="235.15" x="508.25" y="486.65" speed="0.00"/>
        <vehicle id="always_left.1" lane="3si_0" pos="225.93" x="508.25" y="477.43" speed="5.61"/>
        <vehicle id="always_left.2" lane="3si_0" pos="99.20" x="508.25" y="350.70" speed="13.59"/>
        <vehicle id="always_left.3" lane="3fi_0" pos="228.11" x="501.65" y="228.11" speed="11.06"/>
        <vehicle id="always_left.4" lane="3fi_0" pos="134.13" x="501.65" y="134.13" speed="10.87"/>
        <vehicle id="always_left.5" lane="3fi_0" pos="31.25" x="501.65" y="31.25" speed="5.33"/>
        <vehicle id="always_left.6" lane="3fi_0" pos="3.10" x="501.65" y="3.10" speed="0.00"/>
        <vehicle id="always_right.0" lane=":0_14_0" pos="5.90" x="494.47" y="499.24" speed="0.00"/>
        <vehicle id="always_right.1" lane="1si_2" pos="232.00" x="483.50" y="498.35" speed="5.00"/>
        <vehicle id="always_right.2" lane="1si_2" pos="105.32" x="356.82" y="498.35" speed="13.82"/>
        <vehicle id="always_right.3" lane="1fi_0" pos="234.94" x="234.94" y="498.35" speed="10.92"/>
        <vehicle id="always_right.4" lane="1fi_0" pos="125.02" x="125.02" y="498.35" speed="11.11"/>
        <vehicle id="always_right.5" lane="1fi_0" pos="32.39" x="32.39" y="498.35" speed="5.69"/>
        <vehicle id="always_right.6" lane="1fi_0" pos="3.10" x="3.10" y="498.35" speed="0.00"/>
        <vehicle id="horizontal.0" lane="1o_0" pos="99.41" x="389.24" y="501.65" speed="11.02"/>
        <vehicle id="horizontal.1" lane=":0_5_0" pos="6.19" x="505.18" y="504.53" speed="12.50"/>
        <vehicle id="horizontal.2" lane="2si_1" pos="123.81" x="624.69" y="504.95" speed="13.58"/>
        <vehicle id="horizontal.3" lane="2fi_0" pos="233.98" x="766.02" y="501.65" speed="10.93"/>
        <vehicle id="horizontal.4" lane="2fi_0" pos="129.08" x="870.92" y="501.65" speed="10.77"/>
        <vehicle id="horizontal.5" lane="2fi_0" pos="38.08" x="961.92" y="501.65" speed="6.24"/>
        <vehicle id="horizontal.6" lane="2fi_0" pos="3.10" x="996.90" y="501.65" speed="0.00"/>
        <vehicle id="vertical.0" lane="3si_1" pos="235.15" x="504.95" y="486.65" speed="0.00"/>
        <vehicle id="vertical.1" lane="3si_1" pos="190.17" x="504.95" y="441.67" speed="13.58"/>
        <vehicle id="vertical.2" lane="3si_1" pos="52.88" x="504.95" y="304.38" speed="13.54"/>
        <vehicle id="vertical.3" lane="3fi_0" pos="193.07" x="501.65" y="193.07" speed="10.81"/>
        <vehicle id="vertical.4" lane="3fi_0" pos="78.65" x="501.65" y="78.65" speed="9.43"/>
        <vehicle id="vertical.5" lane="3fi_0" pos="13.60" x="501.65" y="13.60" speed="3.53"/>
    </timestep>
    <timestep time="170.00" id="test1" vType="SUMO_DEFAULT_TYPE">
        <vehicle id="always_left.0" lane="3si_0" pos="235.15" x="508.25" y="486.65" speed="0.00"/>
        <vehicle id="always_left.1" lane="3si_0" pos="230.15" x="508.25" y="481.65" speed="0.00"/>
        <vehicle id="always_left.2" lane="3si_0" pos="221.44" x="508.25" y="472.94" speed="5.09"/>
        <vehicle id="always_left.3" lane="3si_0" pos="98.93" x="508.25" y="350.43" speed="13.61"/>
        <vehicle id="always_left.4" lane="3fi_0" pos="243.32" x="501.65" y="243.32" speed="10.98"/>
        <vehicle id="always_left.5" lane="3fi_0" pos="116.39" x="501.65" y="116.39" speed="10.78"/>
        <vehicle id="always_left.6" lane="3fi_0" pos="39.52" x="501.65" y="39.52" speed="6.72"/>
        <vehicle id="always_left.7" lane="3fi_0" pos="3.10" x="501.65" y="3.10" speed="0.00"/>
        <vehicle id="always_right.0" lane=":0_22_0" pos="4.91" x="499.61" y="503.61" speed="2.52"/>
        <vehicle id="always_right.1" lane=":0_14_0" pos="4.92" x="493.52" y="499.04" speed="1.74"/>
        <vehicle id="always_right.2" lane="1si_2" pos="230.14" x="481.64" y="498.35" speed="6.81"/>
        <vehicle id="always_right.3" lane="1si_2" pos="110.11" x="361.61" y="498.35" speed="13.70"/>
        <vehicle id="always_right.4" lane="1fi_0" pos="234.42" x="234.42" y="498.35" speed="10.96"/>
        <vehicle id="always_right.5" lane="1fi_0" pos="119.58" x="119.58" y="498.35" speed="10.95"/>
        <vehicle id="always_right.6" lane="1fi_0" pos="33.74" x="33.74" y="498.35" speed="5.63"/>
        <vehicle id="always_right.7" lane="1fi_0" pos="3.10" x="3.10" y="498.35" speed="0.00"/>
        <vehicle id="horizontal.0" lane="1o_0" pos="208.85" x="279.80" y="501.65" speed="10.77"/>
        <vehicle id="horizontal.1" lane="1o_0" pos="93.82" x="394.83" y="501.65" speed="10.96"/>
        <vehicle id="horizontal.2" lane="2si_1" pos="234.32" x="514.18" y="504.95" speed="2.71"/>
        <vehicle id="horizontal.3" lane="2si_1" pos="108.06" x="640.44" y="504.95" speed="13.66"/>
        <vehicle id="horizontal.4" lane="2fi_0" pos="237.47" x="762.53" y="501.65" speed="10.74"/>
        <vehicle id="horizontal.5" lane="2fi_0" pos="133.16" x="866.84" y="501.65" speed="11.09"/>
        <vehicle id="horizontal.6" lane="2fi_0" pos="36.48" x="963.52" y="501.65" speed="5.96"/>
        <vehicle id="horizontal.7" lane="2fi_0" pos="3.10" x="996.90" y="501.65" speed="0.00"/>
        <vehicle id="vertical.0" lane="3si_1" pos="235.15" x="504.95" y="486.65" speed="0.00"/>
        <vehicle id="vertical.1" lane="3si_1" pos="230.14" x="504.95" y="481.64" speed="0.00"/>
        <vehicle id="vertical.2" lane="3si_1" pos="189.90" x="504.95" y="441.40" speed="13.66"/>
        <vehicle id="vertical.3" lane="3si_1" pos="55.57" x="504.95" y="307.07" speed="13.35"/>
        <vehicle id="vertical.4" lane="3fi_0" pos="186.46" x="501.65" y="186.46" speed="10.85"/>
        <vehicle id="vertical.5" lane="3fi_0" pos="81.64" x="501.65" y="81.64" speed="9.35"/>
        <vehicle id="vertical.6" lane="3fi_0" pos="13.56" x="501.65" y="13.56" speed="2.97"/>
    </timestep>
    <timestep time="180.00" id="test1" vType="SUMO_DEFAULT_TYPE">
        <vehicle id="always_left.0" lane="3si_0" pos="235.92" x="508.25" y="487.42" speed="0.77"/>
        <vehicle id="always_left.1" lane="3si_0" pos="230.15" x="508.25" y="481.65" speed="0.00"/>
        <vehicle id="always_left.2" lane="3si_0" pos="225.14" x="508.25" y="476.64" speed="0.00"/>
        <vehicle id="always_left.3" lane="3si_0" pos="217.55" x="508.25" y="469.05" speed="4.42"/>
        <vehicle id="always_left.4" lane="3si_0" pos="116.93" x="508.25" y="368.43" speed="13.54"/>
        <vehicle id="always_left.5" lane="3fi_0" pos="225.64" x="501.65" y="225.64" speed="10.91"/>
        <vehicle id="always_left.6" lane="3fi_0" pos="137.51" x="501.65" y="137.51" speed="10.78"/>
        <vehicle id="always_left.7" lane="3fi_0" pos="33.26" x="501.65" y="33.26" speed="5.73"/>
        <vehicle id="always_left.8" lane="3fi_0" pos="3.10" x="501.65" y="3.10" speed="0.00"/>
        <vehicle id="always_right.0" lane="4o_0" pos="52.08" x="501.65" y="563.43" speed="9.02"/>
        <vehicle id="always_right.1" lane="4o_0" pos="30.22" x="501.65" y="541.57" speed="7.43"/>
        <vehicle id="always_right.2" lane="4o_0" pos="14.18" x="501.65" y="525.53" speed="6.35"/>
        <vehicle id="always_right.3" lane="1si_2" pos="231.75" x="483.25" y="498.35" speed="5.22"/>
        <vehicle id="always_right.4" lane="1si_2" pos="110.21" x="361.71" y="498.35" speed="13.87"/>
        <vehicle id="always_right.5" lane="1fi_0" pos="228.61" x="228.61" y="498.35" speed="10.93"/>
        <vehicle id="always_right.6" lane="1fi_0" pos="123.17" x="123.17" y="498.35" speed="10.85"/>
        <vehicle id="always_right.7" lane="1fi_0" pos="35.73" x="35.73" y="498.35" speed="6.02"/>
        <vehicle id="always_right.8" lane="1fi_0" pos="3.10" x="3.10" y="498.35" speed="0.00"/>
        <vehicle id="horizontal.0" lane="1o_0" pos="318.03" x="170.62" y="501.65" speed="10.81"/>
        <vehicle id="horizontal.1" lane="1o_0" pos="203.04" x="285.61" y="501.65" speed="10.99"/>
        <vehicle id="horizontal.2" lane="2si_1" pos="235.14" x="513.36" y="504.95" speed="0.00"/>
        <vehicle id="horizontal.3" lane="2si_1" pos="227.71" x="520.79" y="504.95" speed="4.50"/>
        <vehicle id="horizontal.4" lane="2si_1" pos="109.28" x="639.22" y="504.95" speed="13.52"/>
        <vehicle id="horizontal.5" lane="2fi_0" pos="242.72" x="757.28" y="501.65" speed="11.02"/>
        <vehicle id="horizontal.6" lane="2fi_0" pos="130.46" x="869.54" y="501.65" speed="10.88"/>
        <vehicle id="horizontal.7" lane="2fi_0" pos="35.47" x="964.53" y="501.65" speed="5.78"/>
        <vehicle id="horizontal.8" lane="2fi_0" pos="3.10" x="996.90" y="501.65" speed="0.00"/>
        <vehicle id="vertical.0" lane="3si_1" pos="235.87" x="504.95" y="487.37" speed="0.72"/>
        <vehicle id="vertical.1" lane="3si_1" pos="230.14" x="504.95" y="481.64" speed="0.00"/>
        <vehicle id="vertical.2" lane="3si_1" pos="225.14" x="504.95" y="476.64" speed="0.00"/>
        <vehicle id="vertical.3" lane="3si_1" pos="192.48" x="504.95" y="443.98" speed="13.63"/>
        <vehicle id="vertical.4" lane="3si_1" pos="49.91" x="504.95" y="301.41" speed="13.73"/>
        <vehicle id="vertical.5" lane="3fi_0" pos="190.19" x="501.65" y="190.19" speed="11.10"/>
        <vehicle id="vertical.6" lane="3fi_0" pos="74.38" x="501.65" y="74.38" speed="8.52"/>
        <vehicle id="vertical.7" lane="3fi_0" pos="12.47" x="501.65" y="12.47" speed="3.29"/>
    </timestep>
    <timestep time="190.00" id="test1" vType="SUMO_DEFAULT_TYPE">
        <vehicle id="always_left.0" lane="2o_0" pos="31.94" x="543.29" y="498.35" speed="7.04"/>
        <vehicle id="always_left.1" lane="2o_0" pos="15.59" x="526.94" y="498.35" speed="6.15"/>
        <vehicle id="always_left.2" lane="2o_0" pos="1.77" x="513.12" y="498.35" speed="4.86"/>
        <vehicle id="always_left.3" lane=":0_8_0" pos="0.67" x="508.28" y="489.32" speed="3.89"/>
        <vehicle id="always_left.4" lane="3si_0" pos="226.31" x="508.25" y="477.81" speed="4.63"/>
        <vehicle id="always_left.5" lane="3si_0" pos="92.84" x="508.25" y="344.34" speed="13.55"/>
        <vehicle id="always_left.6" lane="3fi_0" pos="246.84" x="501.65" y="246.84" speed="10.92"/>
        <vehicle id="always_left.7" lane="3fi_0" pos="122.53" x="501.65" y="122.53" speed="10.72"/>
        <vehicle id="always_left.8" lane="3fi_0" pos="33.16" x="501.65" y="33.16" speed="5.65"/>
        <vehicle id="always_left.9" lane="3fi_0" pos="3.10" x="501.65" y="3.10" speed="0.00"/>
        <vehicle id="always_right.0" lane="4o_0" pos="159.81" x="501.65" y="671.16" speed="11.08"/>
        <vehicle id="always_right.1" lane="4o_0" pos="132.19" x="501.65" y="643.54" speed="10.81"/>
        <vehicle id="always_right.2" lane="4o_0" pos="108.15" x="501.65" y="619.50" speed="10.85"/>
        <vehicle id="always_right.3" lane="1si_2" pos="235.15" x="486.65" y="498.35" speed="0.00"/>
        <vehicle id="always_right.4" lane="1si_2" pos="228.04" x="479.54" y="498.35" speed="3.85"/>
        <vehicle id="always_right.5" lane="1si_2" pos="103.14" x="354.64" y="498.35" speed="13.52"/>
        <vehicle id="always_right.6" lane="1fi_0" pos="231.99" x="231.99" y="498.35" speed="10.94"/>
        <vehicle id="always_right.7" lane="1fi_0" pos="127.99" x="127.99" y="498.35" speed="10.87"/>
        <vehicle id="always_right.8" lane="1fi_0" pos="37.33" x="37.33" y="498.35" speed="6.26"/>
        <vehicle id="always_right.9" lane="1fi_0" pos="3.10" x="3.10" y="498.35" speed="0.00"/>
        <vehicle id="horizontal.0" lane="1o_0" pos="426.54" x="62.11" y="501.65" speed="10.79"/>
        <vehicle id="horizontal.1" lane="1o_0" pos="312.08" x="176.57" y="501.65" speed="11.11"/>
        <vehicle id="horizontal.2" lane="2si_1" pos="235.14" x="513.36" y="504.95" speed="0.00"/>
        <vehicle id="horizontal.3" lane="2si_1" pos="230.14" x="518.36" y="504.95" speed="0.00"/>
        <vehicle id="horizontal.4" lane="2si_1" pos="223.77" x="524.73" y="504.95" speed="3.43"/>
        <vehicle id="horizontal.5" lane="2si_1" pos="118.76" x="629.74" y="504.95" speed="13.80"/>
        <vehicle id="horizontal.6" lane="2fi_0" pos="239.26" x="760.74" y="501.65" speed="10.75"/>
        <vehicle id="horizontal.7" lane="2fi_0" pos="126.97" x="873.03" y="501.65" speed="11.06"/>
        <vehicle id="horizontal.8" lane="2fi_0" pos="38.03" x="961.97" y="501.65" speed="6.30"/>
        <vehicle id="horizontal.9" lane="2fi_0" pos="3.10" x="996.90" y="501.65" speed="0.00"/>
        <vehicle id="vertical.0" lane="4o_0" pos="12.92" x="501.65" y="524.27" speed="6.01"/>
        <vehicle id="vertical.1" lane=":0_9_0" pos="21.85" x="501.79" y="510.23" speed="5.05"/>
        <vehicle id="vertical.2" lane=":0_9_0" pos="9.14" x="504.17" y="497.75" speed="4.73"/>
        <vehicle id="vertical.3" lane="3si_1" pos="234.89" x="504.95" y="486.39" speed="3.83"/>
        <vehicle id="vertical.4" lane="3si_1" pos="186.56" x="504.95" y="438.06" speed="13.62"/>
        <vehicle id="vertical.5" lane="3si_1" pos="53.15" x="504.95" y="304.65" speed="13.57"/>
        <vehicle id="vertical.6" lane="3fi_0" pos="179.64" x="501.65" y="179.64" speed="11.08"/>
        <vehicle id="vertical.7" lane="3fi_0" pos="74.89" x="501.65" y="74.89" speed="9.09"/>
        <vehicle id="vertical.8" lane="3fi_0" pos="13.36" x="501.65" y="13.36" speed="3.30"/>
    </timestep>
    <timestep time="200.00" id="test1" vType="SUMO_DEFAULT_TYPE">
        <vehicle id="always_left.0" lane="2o_0" pos="132.30" x="643.65" y="498.35" speed="11.10"/>
        <vehicle id="always_left.1" lane="2o_0" pos="107.84" x="619.19" y="498.35" speed="10.91"/>
        <vehicle id="always_left.10" lane="3fi_0" pos="3.10" x="501.65" y="3.10" speed="0.00"/>
        <vehicle id="always_left.2" lane="2o_0" pos="80.99" x="592.34" y="498.35" speed="10.14"/>
        <vehicle id="always_left.3" lane="2o_0" pos="60.25" x="571.60" y="498.35" speed="9.56"/>
        <vehicle id="always_left.4" lane="2o_0" pos="41.37" x="552.72" y="498.35" speed="8.25"/>
        <vehicle id="always_left.5" lane="3si_0" pos="229.19" x="508.25" y="480.69" speed="13.62"/>
        <vehicle id="always_left.6" lane="3si_0" pos="119.37" x="508.25" y="370.87" speed="13.71"/>
        <vehicle id="always_left.7" lane="3fi_0" pos="231.91" x="501.65" y="231.91" speed="11.06"/>
        <vehicle id="always_left.8" lane="3fi_0" pos="120.54" x="501.65" y="120.54" speed="10.88"/>
        <vehicle id="always_left.9" lane="3fi_0" pos="33.89" x="501.65" y="33.89" speed="5.71"/>
        <vehicle id="always_right.0" lane="4o_0" pos="268.64" x="501.65" y="779.99" speed="10.93"/>
        <vehicle id="always_right.1" lane="4o_0" pos="241.71" x="501.65" y="753.06" speed="11.09"/>
        <vehicle id="always_right.10" lane="1fi_0" pos="3.10" x="3.10" y="498.35" speed="0.00"/>
        <vehicle id="always_right.2" lane="4o_0" pos="216.78" x="501.65" y="728.13" speed="10.75"/>
        <vehicle id="always_right.3" lane="1si_2" pos="235.15" x="486.65" y="498.35" speed="0.00"/>
        <vehicle id="always_right.4" lane="1si_2" pos="230.14" x="481.64" y="498.35" speed="0.00"/>
        <vehicle id="always_right.5" lane="1si_2" pos="222.42" x="473.92" y="498.35" speed="4.53"/>
        <vehicle id="always_right.6" lane="1si_2" pos="106.67" x="358.17" y="498.35" speed="13.80"/>
        <vehicle id="always_right.7" lane="1fi_0" pos="237.49" x="237.49" y="498.35" speed="11.10"/>
        <vehicle id="always_right.8" lane="1fi_0" pos="131.80" x="131.80" y="498.35" speed="10.98"/>
        <vehicle id="always_right.9" lane="1fi_0" pos="37.70" x="37.70" y="498.35" speed="6.21"/>
        <vehicle id="horizontal.0" lane="1fi_0" pos="22.92" x="22.92" y="498.35" speed="6.11"/>
        <vehicle id="horizontal.1" lane="1o_0" pos="421.54" x="67.11" y="501.65" speed="10.74"/>
        <vehicle id="horizontal.10" lane="2fi_0" pos="3.10" x="996.90" y="501.65" speed="0.00"/>
        <vehicle id="horizontal.2" lane="2si_1" pos="235.14" x="513.36" y="504.95" speed="0.00"/>
        <vehicle id="horizontal.3" lane="2si_1" pos="230.14" x="518.36" y="504.95" speed="0.00"/>
        <vehicle id="horizontal.4" lane="2si_1" pos="225.14" x="523.36" y="504.95" speed="0.00"/>
        <vehicle id="horizontal.5" lane="2si_1" pos="219.80" x="528.70" y="504.95" speed="0.90"/>
        <vehicle id="horizontal.6" lane="2si_1" pos="115.14" x="633.36" y="504.95" speed="13.86"/>
        <vehicle id="horizontal.7" lane="2fi_0" pos="236.23" x="763.77" y="501.65" speed="10.82"/>
        <vehicle id="horizontal.8" lane="2fi_0" pos="133.38" x="866.62" y="501.65" speed="10.71"/>
        <vehicle id="horizontal.9" lane="2fi_0" pos="36.32" x="963.68" y="501.65" speed="6.06"/>
        <vehicle id="vertical.0" lane="4o_0" pos="104.17" x="501.65" y="615.52" speed="10.75"/>
        <vehicle id="vertical.1" lane="4o_0" pos="82.05" x="501.65" y="593.40" speed="10.91"/>
        <vehicle id="vertical.2" lane="4o_0" pos="61.20" x="501.65" y="572.55" speed="9.99"/>
        <vehicle id="vertical.3" lane="4o_0" pos="40.64" x="501.65" y="551.99" speed="9.06"/>
        <vehicle id="vertical.4" lane="4o_0" pos="22.07" x="501.65" y="533.42" speed="8.14"/>
        <vehicle id="vertical.5" lane="3si_1" pos="189.74" x="504.95" y="441.24" speed="13.78"/>
        <vehicle id="vertical.6" lane="3si_1" pos="38.79" x="504.95" y="290.29" speed="12.62"/>
        <vehicle id="vertical.7" lane="3fi_0" pos="181.95" x="501.65" y="181.95" speed="10.93"/>
        <vehicle id="vertical.8" lane="3fi_0" pos="79.18" x="501.65" y="79.18" speed="9.19"/>
        <vehicle id="vertical.9" lane="3fi_0" pos="15.95" x="501.65" y="15.95" speed="3.85"/>
    </timestep>
    <timestep time="210.00" id="test1" vType="SUMO_DEFAULT_TYPE">
        <vehicle id="always_left.0" lane="2o_0" pos="241.88" x="753.23" y="498.35" speed="10.86"/>
        <vehicle id="always_left.1" lane="2o_0" pos="216.63" x="727.98" y="498.35" speed="11.04"/>
        <vehicle id="always_left.10" lane="3fi_0" pos="38.63" x="501.65" y="38.63" speed="6.45"/>
        <vehicle id="always_left.11" lane="3fi_0" pos="3.10" x="501.65" y="3.10" speed="0.00"/>
        <vehicle id="always_left.2" lane="2o_0" pos="189.90" x="701.25" y="498.35" speed="10.84"/>
        <vehicle id="always_left.3" lane="2o_0" pos="167.30" x="678.65" y="498.35" speed="10.91"/>
        <vehicle id="always_left.4" lane="2o_0" pos="145.41" x="656.76" y="498.35" speed="10.96"/>
        <vehicle id="always_left.5" lane="2o_0" pos="91.49" x="602.84" y="498.35" speed="10.92"/>
        <vehicle id="always_left.6" lane="2o_0" pos="4.92" x="516.27" y="498.35" speed="10.87"/>
        <vehicle id="always_left.7" lane="3si_0" pos="101.86" x="508.25" y="353.36" speed="13.70"/>
        <vehicle id="always_left.8" lane="3fi_0" pos="229.95" x="501.65" y="229.95" speed="10.90"/>
        <vehicle id="always_left.9" lane="3fi_0" pos="119.91" x="501.65" y="119.91" speed="11.06"/>
        <vehicle id="always_right.0" lane="4o_0" pos="377.90" x="501.65" y="889.25" speed="10.91"/>
        <vehicle id="always_right.1" lane="4o_0" pos="350.34" x="501.65" y="861.69" speed="10.96"/>
        <vehicle id="always_right.10" lane="1fi_0" pos="36.43" x="36.43" y="498.35" speed="6.08"/>
        <vehicle id="always_right.11" lane="1fi_0" pos="3.10" x="3.10" y="498.35" speed="0.00"/>
        <vehicle id="always_right.2" lane="4o_0" pos="325.87" x="501.65" y="837.22" speed="11.05"/>
        <vehicle id="always_right.3" lane="1si_2" pos="235.15" x="486.65" y="498.35" speed="0.00"/>
        <vehicle id="always_right.4" lane="1si_2" pos="230.14" x="481.64" y="498.35" speed="0.00"/>
        <vehicle id="always_right.5" lane="1si_2" pos="225.14" x="476.64" y="498.35" speed="0.00"/>
        <vehicle id="always_right.6" lane="1si_2" pos="218.91" x="470.41" y="498.35" speed="2.81"/>
        <vehicle id="always_right.7" lane="1si_2" pos="111.28" x="362.78" y="498.35" speed="13.78"/>
        <vehicle id="always_right.8" lane="1fi_0" pos="240.83" x="240.83" y="498.35" speed="10.81"/>
        <vehicle id="always_right.9" lane="1fi_0" pos="131.40" x="131.40" y="498.35" speed="10.76"/>
        <vehicle id="horizontal.0" lane="1fi_0" pos="108.03" x="108.03" y="498.35" speed="10.82"/>
        <vehicle id="horizontal.1" lane="1fi_0" pos="21.44" x="21.44" y="498.35" speed="6.17"/>
        <vehicle id="horizontal.10" lane="2fi_0" pos="37.60" x="962.40" y="501.65" speed="5.92"/>
        <vehicle id="horizontal.11" lane="2fi_0" pos="3.10" x="996.90" y="501.65" speed="0.00"/>