<?xml version="1.0"?>

<!-- generated on 09/20/10 13:43:08 by SUMO sumo Version dev-SVN-r8982
<configuration>

    <input>
        <net-file value="net.net.xml"/>
        <route-files value="input_routes.rou.xml"/>
        <additional-files value="input_additional.add.xml"/>
    </input>

    <time>
        <begin value="0"/>
        <end value="220"/>
    </time>

    <report>
        <no-duration-log value="true"/>
        <no-step-log value="true"/>
    </report>

</configuration>
-->

<vehicle-type-probes>
    <timestep time="0.00" id="test1" vtype="SUMO_DEFAULT_TYPE">
    </timestep>
    <timestep time="10.00" id="test1" vtype="SUMO_DEFAULT_TYPE">
    </timestep>
    <timestep time="20.00" id="test1" vtype="SUMO_DEFAULT_TYPE">
    </timestep>
    <timestep time="30.00" id="test1" vtype="SUMO_DEFAULT_TYPE">
    </timestep>
    <timestep time="40.00" id="test1" vtype="SUMO_DEFAULT_TYPE">
    </timestep>
    <timestep time="50.00" id="test1" vtype="SUMO_DEFAULT_TYPE">
    </timestep>
    <timestep time="60.00" id="test1" vtype="SUMO_DEFAULT_TYPE">
    </timestep>
    <timestep time="70.00" id="test1" vtype="SUMO_DEFAULT_TYPE">
    </timestep>
    <timestep time="80.00" id="test1" vtype="SUMO_DEFAULT_TYPE">
    </timestep>
    <timestep time="90.00" id="test1" vtype="SUMO_DEFAULT_TYPE">
    </timestep>
    <timestep time="100.00" id="test1" vtype="SUMO_DEFAULT_TYPE">
        <vehicle id="always_left.0" lane="3fi_0" pos="5.10" x="501.65" y="5.10" speed="0.00"/>
        <vehicle id="always_right.0" lane="1fi_0" pos="5.10" x="5.10" y="498.35" speed="0.00"/>
        <vehicle id="horizontal.0" lane="2fi_0" pos="5.10" x="994.90" y="501.65" speed="0.00"/>
    </timestep>
    <timestep time="110.00" id="test1" vtype="SUMO_DEFAULT_TYPE">
        <vehicle id="always_left.0" lane="3fi_0" pos="40.50" x="501.65" y="40.50" speed="6.30"/>
        <vehicle id="always_left.1" lane="3fi_0" pos="5.10" x="501.65" y="5.10" speed="0.00"/>
        <vehicle id="always_right.0" lane="1fi_0" pos="35.50" x="35.50" y="498.35" speed="5.54"/>
        <vehicle id="always_right.1" lane="1fi_0" pos="5.10" x="5.10" y="498.35" speed="0.00"/>
        <vehicle id="horizontal.0" lane="2fi_0" pos="37.68" x="962.32" y="501.65" speed="5.94"/>
        <vehicle id="horizontal.1" lane="2fi_0" pos="5.10" x="994.90" y="501.65" speed="0.00"/>
        <vehicle id="vertical.0" lane="3fi_0" pos="17.79" x="501.65" y="17.79" speed="3.51"/>
    </timestep>
    <timestep time="120.00" id="test1" vtype="SUMO_DEFAULT_TYPE">
        <vehicle id="always_left.0" lane="3fi_0" pos="133.14" x="501.65" y="133.14" speed="10.89"/>
        <vehicle id="always_left.1" lane="3fi_0" pos="35.14" x="501.65" y="35.14" speed="5.74"/>
        <vehicle id="always_left.2" lane="3fi_0" pos="5.10" x="501.65" y="5.10" speed="0.00"/>
        <vehicle id="always_right.0" lane="1fi_0" pos="122.74" x="122.74" y="498.35" speed="11.01"/>
        <vehicle id="always_right.1" lane="1fi_0" pos="37.99" x="37.99" y="498.35" speed="5.78"/>
        <vehicle id="always_right.2" lane="1fi_0" pos="5.10" x="5.10" y="498.35" speed="0.00"/>
        <vehicle id="horizontal.0" lane="2fi_0" pos="128.72" x="871.28" y="501.65" speed="10.99"/>
        <vehicle id="horizontal.1" lane="2fi_0" pos="36.29" x="963.71" y="501.65" speed="5.64"/>
        <vehicle id="horizontal.2" lane="2fi_0" pos="5.10" x="994.90" y="501.65" speed="0.00"/>
        <vehicle id="vertical.0" lane="3fi_0" pos="84.79" x="501.65" y="84.79" speed="9.19"/>
        <vehicle id="vertical.1" lane="3fi_0" pos="19.02" x="501.65" y="19.02" speed="3.76"/>
    </timestep>
    <timestep time="130.00" id="test1" vtype="SUMO_DEFAULT_TYPE">
        <vehicle id="always_left.0" lane="3fi_0" pos="241.93" x="501.65" y="241.93" speed="10.81"/>
        <vehicle id="always_left.1" lane="3fi_0" pos="121.67" x="501.65" y="121.67" speed="10.93"/>
        <vehicle id="always_left.2" lane="3fi_0" pos="34.33" x="501.65" y="34.33" speed="5.45"/>
        <vehicle id="always_left.3" lane="3fi_0" pos="5.10" x="501.65" y="5.10" speed="0.00"/>
        <vehicle id="always_right.0" lane="1fi_0" pos="231.54" x="231.54" y="498.35" speed="10.78"/>
        <vehicle id="always_right.1" lane="1fi_0" pos="124.42" x="124.42" y="498.35" speed="11.01"/>
        <vehicle id="always_right.2" lane="1fi_0" pos="35.15" x="35.15" y="498.35" speed="5.62"/>
        <vehicle id="always_right.3" lane="1fi_0" pos="5.10" x="5.10" y="498.35" speed="0.00"/>
        <vehicle id="horizontal.0" lane="2fi_0" pos="238.40" x="761.60" y="501.65" speed="10.93"/>
        <vehicle id="horizontal.1" lane="2fi_0" pos="121.40" x="878.60" y="501.65" speed="11.07"/>
        <vehicle id="horizontal.2" lane="2fi_0" pos="42.34" x="957.66" y="501.65" speed="6.39"/>
        <vehicle id="horizontal.3" lane="2fi_0" pos="5.10" x="994.90" y="501.65" speed="0.00"/>
        <vehicle id="vertical.0" lane="3fi_0" pos="192.76" x="501.65" y="192.76" speed="10.79"/>
        <vehicle id="vertical.1" lane="3fi_0" pos="87.35" x="501.65" y="87.35" speed="9.42"/>
        <vehicle id="vertical.2" lane="3fi_0" pos="14.64" x="501.65" y="14.64" speed="3.30"/>
    </timestep>
    <timestep time="140.00" id="test1" vtype="SUMO_DEFAULT_TYPE">
        <vehicle id="always_left.0" lane="3si_0" pos="113.93" x="508.25" y="365.43" speed="13.71"/>
        <vehicle id="always_left.1" lane="3fi_0" pos="231.17" x="501.65" y="231.17" speed="11.04"/>
        <vehicle id="always_left.2" lane="3fi_0" pos="116.69" x="501.65" y="116.69" speed="10.41"/>
        <vehicle id="always_left.3" lane="3fi_0" pos="35.07" x="501.65" y="35.07" speed="5.35"/>
        <vehicle id="always_left.4" lane="3fi_0" pos="5.10" x="501.65" y="5.10" speed="0.00"/>
        <vehicle id="always_right.0" lane="1si_2" pos="106.91" x="358.41" y="498.35" speed="13.85"/>
        <vehicle id="always_right.1" lane="1fi_0" pos="233.93" x="233.93" y="498.35" speed="11.10"/>
        <vehicle id="always_right.2" lane="1fi_0" pos="118.14" x="118.14" y="498.35" speed="10.30"/>
        <vehicle id="always_right.3" lane="1fi_0" pos="37.76" x="37.76" y="498.35" speed="5.69"/>
        <vehicle id="always_right.4" lane="1fi_0" pos="5.10" x="5.10" y="498.35" speed="0.00"/>
        <vehicle id="horizontal.0" lane="2si_1" pos="113.56" x="634.94" y="504.95" speed="13.89"/>
        <vehicle id="horizontal.1" lane="2fi_0" pos="230.85" x="769.15" y="501.65" speed="10.78"/>
        <vehicle id="horizontal.2" lane="2fi_0" pos="135.86" x="864.14" y="501.65" speed="11.09"/>
        <vehicle id="horizontal.3" lane="2fi_0" pos="37.12" x="962.88" y="501.65" speed="5.89"/>
        <vehicle id="horizontal.4" lane="2fi_0" pos="5.10" x="994.90" y="501.65" speed="0.00"/>
        <vehicle id="vertical.0" lane="3si_1" pos="55.82" x="504.95" y="307.32" speed="13.42"/>
        <vehicle id="vertical.1" lane="3fi_0" pos="194.94" x="501.65" y="194.94" speed="10.93"/>
        <vehicle id="vertical.2" lane="3fi_0" pos="80.86" x="501.65" y="80.86" speed="9.13"/>
        <vehicle id="vertical.3" lane="3fi_0" pos="17.00" x="501.65" y="17.00" speed="3.49"/>
    </timestep>
    <timestep time="150.00" id="test1" vtype="SUMO_DEFAULT_TYPE">
        <vehicle id="always_left.0" lane="3si_0" pos="234.28" x="508.25" y="485.78" speed="4.54"/>
        <vehicle id="always_left.1" lane="3si_0" pos="98.89" x="508.25" y="350.39" speed="13.87"/>
        <vehicle id="always_left.2" lane="3fi_0" pos="226.00" x="501.65" y="226.00" speed="11.03"/>
        <vehicle id="always_left.3" lane="3fi_0" pos="115.18" x="501.65" y="115.18" speed="10.31"/>
        <vehicle id="always_left.4" lane="3fi_0" pos="39.05" x="501.65" y="39.05" speed="6.15"/>
        <vehicle id="always_left.5" lane="3fi_0" pos="5.10" x="501.65" y="5.10" speed="0.00"/>
        <vehicle id="always_right.0" lane="1si_2" pos="232.33" x="483.83" y="498.35" speed="5.98"/>
        <vehicle id="always_right.1" lane="1si_2" pos="108.73" x="360.23" y="498.35" speed="13.77"/>
        <vehicle id="always_right.2" lane="1fi_0" pos="226.85" x="226.85" y="498.35" speed="10.86"/>
        <vehicle id="always_right.3" lane="1fi_0" pos="124.86" x="124.86" y="498.35" speed="11.10"/>
        <vehicle id="always_right.4" lane="1fi_0" pos="35.55" x="35.55" y="498.35" speed="5.77"/>
        <vehicle id="always_right.5" lane="1fi_0" pos="5.10" x="5.10" y="498.35" speed="0.00"/>
        <vehicle id="horizontal.0" lane="2si_1" pos="234.19" x="514.31" y="504.95" speed="4.77"/>
        <vehicle id="horizontal.1" lane="2si_1" pos="103.45" x="645.05" y="504.95" speed="13.58"/>
        <vehicle id="horizontal.2" lane="2fi_0" pos="244.86" x="755.14" y="501.65" speed="10.85"/>
        <vehicle id="horizontal.3" lane="2fi_0" pos="123.32" x="876.68" y="501.65" speed="10.77"/>
        <vehicle id="horizontal.4" lane="2fi_0" pos="37.34" x="962.66" y="501.65" speed="5.84"/>
        <vehicle id="horizontal.5" lane="2fi_0" pos="5.10" x="994.90" y="501.65" speed="0.00"/>
        <vehicle id="vertical.0" lane="3si_1" pos="192.88" x="504.95" y="444.38" speed="13.77"/>
        <vehicle id="vertical.1" lane="3si_1" pos="58.81" x="504.95" y="310.31" speed="13.54"/>
        <vehicle id="vertical.2" lane="3fi_0" pos="187.47" x="501.65" y="187.47" speed="11.02"/>
        <vehicle id="vertical.3" lane="3fi_0" pos="85.69" x="501.65" y="85.69" speed="9.38"/>
        <vehicle id="vertical.4" lane="3fi_0" pos="15.30" x="501.65" y="15.30" speed="3.03"/>
    </timestep>
    <timestep time="160.00" id="test1" vtype="SUMO_DEFAULT_TYPE">
        <vehicle id="always_left.0" lane="3si_0" pos="237.15" x="508.25" y="488.65" speed="0.00"/>
        <vehicle id="always_left.1" lane="3si_0" pos="226.22" x="508.25" y="477.72" speed="6.85"/>
        <vehicle id="always_left.2" lane="3si_0" pos="93.27" x="508.25" y="344.77" speed="13.65"/>
        <vehicle id="always_left.3" lane="3fi_0" pos="225.10" x="501.65" y="225.10" speed="11.07"/>
        <vehicle id="always_left.4" lane="3fi_0" pos="129.29" x="501.65" y="129.29" speed="10.91"/>
        <vehicle id="always_left.5" lane="3fi_0" pos="35.14" x="501.65" y="35.14" speed="5.40"/>
        <vehicle id="always_left.6" lane="3fi_0" pos="5.10" x="501.65" y="5.10" speed="0.00"/>
        <vehicle id="always_right.0" lane=":0_14_0" pos="7.36" x="495.72" y="500.39" speed="0.00"/>
        <vehicle id="always_right.1" lane="1si_2" pos="232.67" x="484.17" y="498.35" speed="6.07"/>
        <vehicle id="always_right.2" lane="1si_2" pos="101.81" x="353.31" y="498.35" speed="13.83"/>
        <vehicle id="always_right.3" lane="1fi_0" pos="234.26" x="234.26" y="498.35" speed="10.95"/>
        <vehicle id="always_right.4" lane="1fi_0" pos="122.75" x="122.75" y="498.35" speed="11.11"/>
        <vehicle id="always_right.5" lane="1fi_0" pos="36.77" x="36.77" y="498.35" speed="5.82"/>
        <vehicle id="always_right.6" lane="1fi_0" pos="5.10" x="5.10" y="498.35" speed="0.00"/>
        <vehicle id="horizontal.0" lane="1o_0" pos="0.52" x="488.13" y="501.65" speed="5.05"/>
        <vehicle id="horizontal.1" lane=":0_5_0" pos="1.18" x="510.17" y="504.87" speed="11.39"/>
        <vehicle id="horizontal.2" lane="2si_1" pos="119.11" x="629.39" y="504.95" speed="13.64"/>
        <vehicle id="horizontal.3" lane="2fi_0" pos="232.55" x="767.45" y="501.65" speed="10.96"/>
        <vehicle id="horizontal.4" lane="2fi_0" pos="124.66" x="875.34" y="501.65" speed="10.82"/>
        <vehicle id="horizontal.5" lane="2fi_0" pos="38.11" x="961.89" y="501.65" speed="5.88"/>
        <vehicle id="horizontal.6" lane="2fi_0" pos="5.10" x="994.90" y="501.65" speed="0.00"/>
        <vehicle id="vertical.0" lane="3si_1" pos="237.14" x="504.95" y="488.64" speed="0.00"/>
        <vehicle id="vertical.1" lane="3si_1" pos="196.29" x="504.95" y="447.79" speed="13.64"/>
        <vehicle id="vertical.2" lane="3si_1" pos="49.52" x="504.95" y="301.02" speed="13.13"/>
        <vehicle id="vertical.3" lane="3fi_0" pos="192.71" x="501.65" y="192.71" speed="10.86"/>
        <vehicle id="vertical.4" lane="3fi_0" pos="79.42" x="501.65" y="79.42" speed="9.01"/>
        <vehicle id="vertical.5" lane="3fi_0" pos="17.62" x="501.65" y="17.62" speed="3.81"/>
    </timestep>
    <timestep time="170.00" id="test1" vtype="SUMO_DEFAULT_TYPE">
        <vehicle id="always_left.0" lane="3si_0" pos="237.15" x="508.25" y="488.65" speed="0.00"/>
        <vehicle id="always_left.1" lane="3si_0" pos="232.14" x="508.25" y="483.64" speed="0.00"/>
        <vehicle id="always_left.2" lane="3si_0" pos="220.93" x="508.25" y="472.43" speed="6.93"/>
        <vehicle id="always_left.3" lane="3si_0" pos="92.35" x="508.25" y="343.85" speed="13.66"/>
        <vehicle id="always_left.4" lane="3fi_0" pos="238.52" x="501.65" y="238.52" speed="11.00"/>
        <vehicle id="always_left.5" lane="3fi_0" pos="117.68" x="501.65" y="117.68" speed="10.56"/>
        <vehicle id="always_left.6" lane="3fi_0" pos="39.90" x="501.65" y="39.90" speed="6.36"/>
        <vehicle id="always_left.7" lane="3fi_0" pos="5.10" x="501.65" y="5.10" speed="0.00"/>
        <vehicle id="always_right.0" lane="4o_0" pos="1.25" x="501.65" y="512.60" speed="4.09"/>
        <vehicle id="always_right.1" lane=":0_22_0" pos="4.97" x="500.12" y="504.46" speed="3.09"/>
        <vehicle id="always_right.2" lane="1si_2" pos="232.12" x="483.62" y="498.35" speed="9.49"/>
        <vehicle id="always_right.3" lane="1si_2" pos="108.51" x="360.01" y="498.35" speed="13.74"/>
        <vehicle id="always_right.4" lane="1fi_0" pos="232.66" x="232.66" y="498.35" speed="10.98"/>
        <vehicle id="always_right.5" lane="1fi_0" pos="124.64" x="124.64" y="498.35" speed="10.97"/>
        <vehicle id="always_right.6" lane="1fi_0" pos="33.43" x="33.43" y="498.35" speed="5.18"/>
        <vehicle id="always_right.7" lane="1fi_0" pos="5.10" x="5.10" y="498.35" speed="0.00"/>
        <vehicle id="horizontal.0" lane="1o_0" pos="78.72" x="409.93" y="501.65" speed="10.01"/>
        <vehicle id="horizontal.1" lane="1o_0" pos="63.36" x="425.29" y="501.65" speed="9.58"/>
        <vehicle id="horizontal.2" lane="2si_1" pos="235.55" x="512.95" y="504.95" speed="3.77"/>
        <vehicle id="horizontal.3" lane="2si_1" pos="105.94" x="642.56" y="504.95" speed="13.71"/>
        <vehicle id="horizontal.4" lane="2fi_0" pos="233.74" x="766.26" y="501.65" speed="10.79"/>
        <vehicle id="horizontal.5" lane="2fi_0" pos="126.15" x="873.85" y="501.65" speed="11.09"/>
        <vehicle id="horizontal.6" lane="2fi_0" pos="36.25" x="963.75" y="501.65" speed="5.57"/>
        <vehicle id="horizontal.7" lane="2fi_0" pos="5.10" x="994.90" y="501.65" speed="0.00"/>
        <vehicle id="vertical.0" lane="3si_1" pos="237.14" x="504.95" y="488.64" speed="0.00"/>
        <vehicle id="vertical.1" lane="3si_1" pos="232.14" x="504.95" y="483.64" speed="0.00"/>
        <vehicle id="vertical.2" lane="3si_1" pos="186.80" x="504.95" y="438.30" speed="13.70"/>
        <vehicle id="vertical.3" lane="3si_1" pos="54.62" x="504.95" y="306.12" speed="12.98"/>
        <vehicle id="vertical.4" lane="3fi_0" pos="185.85" x="501.65" y="185.85" speed="10.90"/>
        <vehicle id="vertical.5" lane="3fi_0" pos="86.49" x="501.65" y="86.49" speed="9.16"/>
        <vehicle id="vertical.6" lane="3fi_0" pos="17.03" x="501.65" y="17.03" speed="3.19"/>
    </timestep>
    <timestep time="180.00" id="test1" vtype="SUMO_DEFAULT_TYPE">
        <vehicle id="always_left.0" lane=":0_8_0" pos="0.77" x="508.28" y="489.42" speed="0.77"/>
        <vehicle id="always_left.1" lane="3si_0" pos="232.14" x="508.25" y="483.64" speed="0.00"/>
        <vehicle id="always_left.2" lane="3si_0" pos="227.14" x="508.25" y="478.64" speed="0.00"/>
        <vehicle id="always_left.3" lane="3si_0" pos="217.39" x="508.25" y="468.89" speed="6.21"/>
        <vehicle id="always_left.4" lane="3si_0" pos="111.46" x="508.25" y="362.96" speed="13.61"/>
        <vehicle id="always_left.5" lane="3fi_0" pos="227.23" x="501.65" y="227.23" speed="10.94"/>
        <vehicle id="always_left.6" lane="3fi_0" pos="135.41" x="501.65" y="135.41" speed="10.83"/>
        <vehicle id="always_left.7" lane="3fi_0" pos="34.52" x="501.65" y="34.52" speed="5.53"/>
        <vehicle id="always_left.8" lane="3fi_0" pos="5.10" x="501.65" y="5.10" speed="0.00"/>
        <vehicle id="always_right.0" lane="4o_0" pos="73.92" x="501.65" y="585.27" speed="9.93"/>
        <vehicle id="always_right.1" lane="4o_0" pos="53.60" x="501.65" y="564.95" speed="8.83"/>
        <vehicle id="always_right.2" lane="4o_0" pos="39.00" x="501.65" y="550.35" speed="8.16"/>
        <vehicle id="always_right.3" lane="1si_2" pos="232.88" x="484.38" y="498.35" speed="5.93"/>
        <vehicle id="always_right.4" lane="1si_2" pos="107.73" x="359.23" y="498.35" speed="13.87"/>
        <vehicle id="always_right.5" lane="1fi_0" pos="234.23" x="234.23" y="498.35" speed="10.96"/>
        <vehicle id="always_right.6" lane="1fi_0" pos="116.17" x="116.17" y="498.35" speed="10.74"/>
        <vehicle id="always_right.7" lane="1fi_0" pos="34.78" x="34.78" y="498.35" speed="5.57"/>
        <vehicle id="always_right.8" lane="1fi_0" pos="5.10" x="5.10" y="498.35" speed="0.00"/>
        <vehicle id="horizontal.0" lane="1o_0" pos="187.48" x="301.17" y="501.65" speed="10.86"/>
        <vehicle id="horizontal.1" lane="1o_0" pos="171.15" x="317.50" y="501.65" speed="10.91"/>
        <vehicle id="horizontal.2" lane="2si_1" pos="237.14" x="511.36" y="504.95" speed="0.00"/>
        <vehicle id="horizontal.3" lane="2si_1" pos="228.76" x="519.74" y="504.95" speed="5.36"/>
        <vehicle id="horizontal.4" lane="2si_1" pos="106.22" x="642.28" y="504.95" speed="13.60"/>
        <vehicle id="horizontal.5" lane="2fi_0" pos="235.97" x="764.03" y="501.65" speed="11.04"/>
        <vehicle id="horizontal.6" lane="2fi_0" pos="124.34" x="875.66" y="501.65" speed="10.92"/>
        <vehicle id="horizontal.7" lane="2fi_0" pos="35.12" x="964.88" y="501.65" speed="5.41"/>
        <vehicle id="horizontal.8" lane="2fi_0" pos="5.10" x="994.90" y="501.65" speed="0.00"/>
        <vehicle id="vertical.0" lane=":0_9_0" pos="0.71" x="504.90" y="489.36" speed="0.72"/>
        <vehicle id="vertical.1" lane="3si_1" pos="232.14" x="504.95" y="483.64" speed="0.00"/>
        <vehicle id="vertical.2" lane="3si_1" pos="227.14" x="504.95" y="478.64" speed="0.00"/>
        <vehicle id="vertical.3" lane="3si_1" pos="191.67" x="504.95" y="443.17" speed="13.68"/>
        <vehicle id="vertical.4" lane="3si_1" pos="48.18" x="504.95" y="299.68" speed="13.29"/>
        <vehicle id="vertical.5" lane="3fi_0" pos="194.45" x="501.65" y="194.45" speed="11.10"/>
        <vehicle id="vertical.6" lane="3fi_0" pos="75.31" x="501.65" y="75.31" speed="8.03"/>
        <vehicle id="vertical.7" lane="3fi_0" pos="14.39" x="501.65" y="14.39" speed="3.23"/>
    </timestep>
    <timestep time="190.00" id="test1" vtype="SUMO_DEFAULT_TYPE">
        <vehicle id="always_left.0" lane="2o_0" pos="31.92" x="543.27" y="498.35" speed="6.83"/>
        <vehicle id="always_left.1" lane="2o_0" pos="16.44" x="527.79" y="498.35" speed="5.65"/>
        <vehicle id="always_left.2" lane="2o_0" pos="4.93" x="516.28" y="498.35" speed="5.10"/>
        <vehicle id="always_left.3" lane=":0_8_0" pos="5.16" x="508.61" y="493.78" speed="4.58"/>
        <vehicle id="always_left.4" lane="3si_0" pos="229.74" x="508.25" y="481.24" speed="6.39"/>
        <vehicle id="always_left.5" lane="3si_0" pos="97.09" x="508.25" y="348.59" speed="13.62"/>
        <vehicle id="always_left.6" lane="3fi_0" pos="245.32" x="501.65" y="245.32" speed="11.09"/>
        <vehicle id="always_left.7" lane="3fi_0" pos="118.05" x="501.65" y="118.05" speed="11.00"/>
        <vehicle id="always_left.8" lane="3fi_0" pos="36.36" x="501.65" y="36.36" speed="5.65"/>
        <vehicle id="always_left.9" lane="3fi_0" pos="5.10" x="501.65" y="5.10" speed="0.00"/>
        <vehicle id="always_right.0" lane="4o_0" pos="182.80" x="501.65" y="694.15" speed="10.86"/>
        <vehicle id="always_right.1" lane="4o_0" pos="159.97" x="501.65" y="671.32" speed="10.89"/>
        <vehicle id="always_right.2" lane="4o_0" pos="141.55" x="501.65" y="652.90" speed="10.84"/>
        <vehicle id="always_right.3" lane="1si_2" pos="237.15" x="488.65" y="498.35" speed="0.00"/>
        <vehicle id="always_right.4" lane="1si_2" pos="228.79" x="480.29" y="498.35" speed="4.86"/>
        <vehicle id="always_right.5" lane="1si_2" pos="109.39" x="360.89" y="498.35" speed="13.82"/>
        <vehicle id="always_right.6" lane="1fi_0" pos="225.75" x="225.75" y="498.35" speed="10.91"/>
        <vehicle id="always_right.7" lane="1fi_0" pos="120.10" x="120.10" y="498.35" speed="10.93"/>
        <vehicle id="always_right.8" lane="1fi_0" pos="39.83" x="39.83" y="498.35" speed="6.09"/>
        <vehicle id="always_right.9" lane="1fi_0" pos="5.10" x="5.10" y="498.35" speed="0.00"/>
        <vehicle id="horizontal.0" lane="1o_0" pos="296.83" x="191.82" y="501.65" speed="11.11"/>
        <vehicle id="horizontal.1" lane="1o_0" pos="280.20" x="208.45" y="501.65" speed="10.95"/>
        <vehicle id="horizontal.2" lane="2si_1" pos="237.14" x="511.36" y="504.95" speed="0.00"/>
        <vehicle id="horizontal.3" lane="2si_1" pos="232.14" x="516.36" y="504.95" speed="0.00"/>
        <vehicle id="horizontal.4" lane="2si_1" pos="224.87" x="523.63" y="504.95" speed="4.36"/>
        <vehicle id="horizontal.5" lane="2si_1" pos="108.29" x="640.21" y="504.95" speed="13.71"/>
        <vehicle id="horizontal.6" lane="2fi_0" pos="234.09" x="765.91" y="501.65" speed="11.06"/>
        <vehicle id="horizontal.7" lane="2fi_0" pos="120.19" x="879.81" y="501.65" speed="10.78"/>
        <vehicle id="horizontal.8" lane="2fi_0" pos="36.22" x="963.78" y="501.65" speed="5.64"/>
        <vehicle id="horizontal.9" lane="2fi_0" pos="5.10" x="994.90" y="501.65" speed="0.00"/>
        <vehicle id="vertical.0" lane="4o_0" pos="16.56" x="501.65" y="527.91" speed="6.23"/>
        <vehicle id="vertical.1" lane="4o_0" pos="4.40" x="501.65" y="515.75" speed="6.03"/>
        <vehicle id="vertical.2" lane=":0_9_0" pos="11.33" x="503.77" y="499.90" speed="4.85"/>
        <vehicle id="vertical.3" lane=":0_9_0" pos="1.30" x="504.86" y="489.94" speed="4.24"/>
        <vehicle id="vertical.4" lane="3si_1" pos="185.28" x="504.95" y="436.78" speed="13.68"/>
        <vehicle id="vertical.5" lane="3si_1" pos="58.91" x="504.95" y="310.41" speed="13.61"/>
        <vehicle id="vertical.6" lane="3fi_0" pos="176.86" x="501.65" y="176.86" speed="10.78"/>
        <vehicle id="vertical.7" lane="3fi_0" pos="75.86" x="501.65" y="75.86" speed="8.59"/>
        <vehicle id="vertical.8" lane="3fi_0" pos="16.98" x="501.65" y="16.98" speed="3.38"/>
    </timestep>
    <timestep time="200.00" id="test1" vtype="SUMO_DEFAULT_TYPE">
        <vehicle id="always_left.0" lane="2o_0" pos="129.62" x="640.97" y="498.35" speed="11.11"/>
        <vehicle id="always_left.1" lane="2o_0" pos="104.57" x="615.92" y="498.35" speed="10.94"/>
        <vehicle id="always_left.10" lane="3fi_0" pos="5.10" x="501.65" y="5.10" speed="0.00"/>
        <vehicle id="always_left.2" lane="2o_0" pos="83.61" x="594.96" y="498.35" speed="10.11"/>
        <vehicle id="always_left.3" lane="2o_0" pos="66.48" x="577.83" y="498.35" speed="9.36"/>
        <vehicle id="always_left.4" lane="2o_0" pos="51.32" x="562.67" y="498.35" speed="8.64"/>
        <vehicle id="always_left.5" lane="3si_0" pos="233.75" x="508.25" y="485.25" speed="13.38"/>
        <vehicle id="always_left.6" lane="3si_0" pos="116.94" x="508.25" y="368.44" speed="13.75"/>
        <vehicle id="always_left.7" lane="3fi_0" pos="227.41" x="501.65" y="227.41" speed="10.96"/>
        <vehicle id="always_left.8" lane="3fi_0" pos="122.30" x="501.65" y="122.30" speed="10.97"/>
        <vehicle id="always_left.9" lane="3fi_0" pos="38.78" x="501.65" y="38.78" speed="6.23"/>
        <vehicle id="always_right.0" lane="4o_0" pos="292.62" x="501.65" y="803.97" speed="10.96"/>
        <vehicle id="always_right.1" lane="4o_0" pos="269.67" x="501.65" y="781.02" speed="11.09"/>
        <vehicle id="always_right.10" lane="1fi_0" pos="5.10" x="5.10" y="498.35" speed="0.00"/>
        <vehicle id="always_right.2" lane="4o_0" pos="250.40" x="501.65" y="761.75" speed="10.80"/>
        <vehicle id="always_right.3" lane="1si_2" pos="237.15" x="488.65" y="498.35" speed="0.00"/>
        <vehicle id="always_right.4" lane="1si_2" pos="232.14" x="483.64" y="498.35" speed="0.00"/>
        <vehicle id="always_right.5" lane="1si_2" pos="225.43" x="476.93" y="498.35" speed="3.47"/>
        <vehicle id="always_right.6" lane="1si_2" pos="97.59" x="349.09" y="498.35" speed="13.82"/>
        <vehicle id="always_right.7" lane="1fi_0" pos="229.84" x="229.84" y="498.35" speed="11.00"/>
        <vehicle id="always_right.8" lane="1fi_0" pos="130.87" x="130.87" y="498.35" speed="10.84"/>
        <vehicle id="always_right.9" lane="1fi_0" pos="36.99" x="36.99" y="498.35" speed="5.74"/>
        <vehicle id="horizontal.0" lane="1o_0" pos="406.39" x="82.26" y="501.65" speed="10.80"/>
        <vehicle id="horizontal.1" lane="1o_0" pos="389.85" x="98.80" y="501.65" speed="11.07"/>
        <vehicle id="horizontal.10" lane="2fi_0" pos="5.10" x="994.90" y="501.65" speed="0.00"/>
        <vehicle id="horizontal.2" lane="2si_1" pos="237.14" x="511.36" y="504.95" speed="0.00"/>
        <vehicle id="horizontal.3" lane="2si_1" pos="232.14" x="516.36" y="504.95" speed="0.00"/>
        <vehicle id="horizontal.4" lane="2si_1" pos="227.14" x="521.36" y="504.95" speed="0.00"/>
        <vehicle id="horizontal.5" lane="2si_1" pos="221.00" x="527.50" y="504.95" speed="2.72"/>
        <vehicle id="horizontal.6" lane="2si_1" pos="107.06" x="641.44" y="504.95" speed="13.86"/>
        <vehicle id="horizontal.7" lane="2fi_0" pos="229.46" x="770.54" y="501.65" speed="10.78"/>
        <vehicle id="horizontal.8" lane="2fi_0" pos="124.33" x="875.67" y="501.65" speed="11.03"/>
        <vehicle id="horizontal.9" lane="2fi_0" pos="37.47" x="962.53" y="501.65" speed="5.97"/>
        <vehicle id="vertical.0" lane="4o_0" pos="106.48" x="501.65" y="617.83" speed="10.81"/>
        <vehicle id="vertical.1" lane="4o_0" pos="89.16" x="501.65" y="600.51" speed="10.72"/>
        <vehicle id="vertical.2" lane="4o_0" pos="66.98" x="501.65" y="578.33" speed="10.21"/>
        <vehicle id="vertical.3" lane="4o_0" pos="51.32" x="501.65" y="562.67" speed="9.76"/>
        <vehicle id="vertical.4" lane="4o_0" pos="34.96" x="501.65" y="546.31" speed="9.49"/>
        <vehicle id="vertical.5" lane="3si_1" pos="195.95" x="504.95" y="447.45" speed="13.81"/>
        <vehicle id="vertical.6" lane="3si_1" pos="36.17" x="504.95" y="287.67" speed="12.38"/>
        <vehicle id="vertical.7" lane="3fi_0" pos="180.84" x="501.65" y="180.84" speed="10.92"/>
        <vehicle id="vertical.8" lane="3fi_0" pos="75.12" x="501.65" y="75.12" speed="7.93"/>
        <vehicle id="vertical.9" lane="3fi_0" pos="19.02" x="501.65" y="19.02" speed="3.84"/>
    </timestep>
    <timestep time="210.00" id="test1" vtype="SUMO_DEFAULT_TYPE">
        <vehicle id="always_left.0" lane="2o_0" pos="239.24" x="750.59" y="498.35" speed="10.90"/>
        <vehicle id="always_left.1" lane="2o_0" pos="213.95" x="725.30" y="498.35" speed="11.05"/>
        <vehicle id="always_left.10" lane="3fi_0" pos="36.05" x="501.65" y="36.05" speed="5.59"/>
        <vehicle id="always_left.11" lane="3fi_0" pos="5.10" x="501.65" y="5.10" speed="0.00"/>
        <vehicle id="always_left.2" lane="2o_0" pos="192.49" x="703.84" y="498.35" speed="10.88"/>
        <vehicle id="always_left.3" lane="2o_0" pos="172.97" x="684.32" y="498.35" speed="10.94"/>
        <vehicle id="always_left.4" lane="2o_0" pos="156.38" x="667.73" y="498.35" speed="10.90"/>
        <vehicle id="always_left.5" lane="2o_0" pos="95.81" x="607.16" y="498.35" speed="10.95"/>
        <vehicle id="always_left.6" lane="2o_0" pos="2.71" x="514.06" y="498.35" speed="10.91"/>
        <vehicle id="always_left.7" lane="3si_0" pos="95.97" x="508.25" y="347.47" speed="13.74"/>
        <vehicle id="always_left.8" lane="3fi_0" pos="231.83" x="501.65" y="231.83" speed="10.91"/>
        <vehicle id="always_left.9" lane="3fi_0" pos="129.87" x="501.65" y="129.87" speed="11.04"/>
        <vehicle id="always_right.0" lane="4o_0" pos="402.26" x="501.65" y="913.61" speed="10.94"/>
        <vehicle id="always_right.1" lane="4o_0" pos="378.49" x="501.65" y="889.84" speed="10.98"/>
        <vehicle id="always_right.10" lane="1fi_0" pos="38.01" x="38.01" y="498.35" speed="5.98"/>
        <vehicle id="always_right.2" lane="4o_0" pos="359.92" x="501.65" y="871.27" speed="11.06"/>
        <vehicle id="always_right.3" lane="1si_2" pos="237.15" x="488.65" y="498.35" speed="0.00"/>
        <vehicle id="always_right.4" lane="1si_2" pos="232.14" x="483.64" y="498.35" speed="0.00"/>
        <vehicle id="always_right.5" lane="1si_2" pos="227.14" x="478.64" y="498.35" speed="0.00"/>
        <vehicle id="always_right.6" lane="1si_2" pos="218.93" x="470.43" y="498.35" speed="5.01"/>
        <vehicle id="always_right.7" lane="1si_2" pos="105.37" x="356.87" y="498.35" speed="13.80"/>
        <vehicle id="always_right.8" lane="1fi_0" pos="240.48" x="240.48" y="498.35" speed="10.81"/>
        <vehicle id="always_right.9" lane="1fi_0" pos="124.82" x="124.82" y="498.35" speed="10.88"/>
        <vehicle id="horizontal.0" lane="1fi_0" pos="20.31" x="20.31" y="498.35" speed="9.14"/>
        <vehicle id="horizontal.1" lane="1fi_0" pos="4.93" x="4.93" y="498.35" speed="10.73"/>
        <vehicle id="horizontal.10" lane="2fi_0" pos="33.84" x="966.16" y="501.65" speed="5.32"/>
        <vehicle id="horizontal.11" lane="2fi_0" pos="5.10" x="994.90" y="501.65" speed="0.00"/>
        <vehicle id="horizontal.2" lane="2si_1" pos="237.14" x="511.36" y="504.95" speed="0.00"/>
        <vehicle id="horizontal.3" lane="2si_1" pos="232.14" x="516.36" y="504.95" speed="0.00"/>
        <vehicle id="horizontal.4" lane="2si_1" pos="227.14" x="521.36" y="504.95" speed="0.00"/>