<?xml version="1.0"?>

<!-- generated on 04/01/11 10:39:42 by SUMO sumo Version dev-SVN-r10043
<?xml version="1.0" encoding="iso-8859-1"?>

<configuration xmlns:xsi="http://www.w3.org/2001/XMLSchema-instance" xsi:noNamespaceSchemaLocation="http://sumo.sf.net/xsd/sumoConfiguration.xsd">

    <input>
        <net-file value="net.net.xml"/>
        <route-files value="input_routes.rou.xml"/>
        <additional-files value="input_additional.add.xml"/>
    </input>

    <time>
        <begin value="0"/>
        <end value="220"/>
    </time>

    <report>
        <no-duration-log value="true"/>
        <no-step-log value="true"/>
    </report>

</configuration>
-->

<vehicle-type-probes>
    <timestep time="0.00" id="test1" vtype="SUMO_DEFAULT_TYPE">
    </timestep>
    <timestep time="10.00" id="test1" vtype="SUMO_DEFAULT_TYPE">
    </timestep>
    <timestep time="20.00" id="test1" vtype="SUMO_DEFAULT_TYPE">
    </timestep>
    <timestep time="30.00" id="test1" vtype="SUMO_DEFAULT_TYPE">
    </timestep>
    <timestep time="40.00" id="test1" vtype="SUMO_DEFAULT_TYPE">
    </timestep>
    <timestep time="50.00" id="test1" vtype="SUMO_DEFAULT_TYPE">
    </timestep>
    <timestep time="60.00" id="test1" vtype="SUMO_DEFAULT_TYPE">
    </timestep>
    <timestep time="70.00" id="test1" vtype="SUMO_DEFAULT_TYPE">
    </timestep>
    <timestep time="80.00" id="test1" vtype="SUMO_DEFAULT_TYPE">
    </timestep>
    <timestep time="90.00" id="test1" vtype="SUMO_DEFAULT_TYPE">
    </timestep>
    <timestep time="100.00" id="test1" vtype="SUMO_DEFAULT_TYPE">
        <vehicle id="always_left.0" lane="3fi_0" pos="5.10" x="501.65" y="5.10" speed="0.00"/>
        <vehicle id="always_right.0" lane="1fi_0" pos="5.10" x="5.10" y="498.35" speed="0.00"/>
        <vehicle id="horizontal.0" lane="2fi_0" pos="5.10" x="994.90" y="501.65" speed="0.00"/>
    </timestep>
    <timestep time="110.00" id="test1" vtype="SUMO_DEFAULT_TYPE">
        <vehicle id="always_left.0" lane="3fi_0" pos="40.50" x="501.65" y="40.50" speed="6.30"/>
        <vehicle id="always_left.1" lane="3fi_0" pos="5.10" x="501.65" y="5.10" speed="0.00"/>
        <vehicle id="always_right.0" lane="1fi_0" pos="35.50" x="35.50" y="498.35" speed="5.54"/>
        <vehicle id="always_right.1" lane="1fi_0" pos="5.10" x="5.10" y="498.35" speed="0.00"/>
        <vehicle id="horizontal.0" lane="2fi_0" pos="37.68" x="962.32" y="501.65" speed="5.94"/>
        <vehicle id="horizontal.1" lane="2fi_0" pos="5.10" x="994.90" y="501.65" speed="0.00"/>
        <vehicle id="vertical.0" lane="3fi_0" pos="17.79" x="501.65" y="17.79" speed="3.51"/>
    </timestep>
    <timestep time="120.00" id="test1" vtype="SUMO_DEFAULT_TYPE">
        <vehicle id="always_left.0" lane="3fi_0" pos="133.14" x="501.65" y="133.14" speed="10.89"/>
        <vehicle id="always_left.1" lane="3fi_0" pos="35.14" x="501.65" y="35.14" speed="5.74"/>
        <vehicle id="always_left.2" lane="3fi_0" pos="5.10" x="501.65" y="5.10" speed="0.00"/>
        <vehicle id="always_right.0" lane="1fi_0" pos="122.74" x="122.74" y="498.35" speed="11.01"/>
        <vehicle id="always_right.1" lane="1fi_0" pos="37.99" x="37.99" y="498.35" speed="5.78"/>
        <vehicle id="always_right.2" lane="1fi_0" pos="5.10" x="5.10" y="498.35" speed="0.00"/>
        <vehicle id="horizontal.0" lane="2fi_0" pos="128.72" x="871.28" y="501.65" speed="10.99"/>
        <vehicle id="horizontal.1" lane="2fi_0" pos="36.29" x="963.71" y="501.65" speed="5.64"/>
        <vehicle id="horizontal.2" lane="2fi_0" pos="5.10" x="994.90" y="501.65" speed="0.00"/>
        <vehicle id="vertical.0" lane="3fi_0" pos="84.79" x="501.65" y="84.79" speed="9.19"/>
        <vehicle id="vertical.1" lane="3fi_0" pos="16.77" x="501.65" y="16.77" speed="3.40"/>
    </timestep>
    <timestep time="130.00" id="test1" vtype="SUMO_DEFAULT_TYPE">
        <vehicle id="always_left.0" lane="3fi_0" pos="241.93" x="501.65" y="241.93" speed="10.81"/>
        <vehicle id="always_left.1" lane="3fi_0" pos="121.67" x="501.65" y="121.67" speed="10.93"/>
        <vehicle id="always_left.2" lane="3fi_0" pos="34.33" x="501.65" y="34.33" speed="5.45"/>
        <vehicle id="always_left.3" lane="3fi_0" pos="5.10" x="501.65" y="5.10" speed="0.00"/>
        <vehicle id="always_right.0" lane="1fi_0" pos="231.54" x="231.54" y="498.35" speed="10.78"/>
        <vehicle id="always_right.1" lane="1fi_0" pos="124.42" x="124.42" y="498.35" speed="11.01"/>
        <vehicle id="always_right.2" lane="1fi_0" pos="35.15" x="35.15" y="498.35" speed="5.62"/>
        <vehicle id="always_right.3" lane="1fi_0" pos="5.10" x="5.10" y="498.35" speed="0.00"/>
        <vehicle id="horizontal.0" lane="2fi_0" pos="238.40" x="761.60" y="501.65" speed="10.93"/>
        <vehicle id="horizontal.1" lane="2fi_0" pos="121.40" x="878.60" y="501.65" speed="11.07"/>
        <vehicle id="horizontal.2" lane="2fi_0" pos="42.34" x="957.66" y="501.65" speed="6.39"/>
        <vehicle id="horizontal.3" lane="2fi_0" pos="5.10" x="994.90" y="501.65" speed="0.00"/>
        <vehicle id="vertical.0" lane="3fi_0" pos="192.76" x="501.65" y="192.76" speed="10.79"/>
        <vehicle id="vertical.1" lane="3fi_0" pos="81.61" x="501.65" y="81.61" speed="9.08"/>
        <vehicle id="vertical.2" lane="3fi_0" pos="14.64" x="501.65" y="14.64" speed="3.30"/>
    </timestep>
    <timestep time="140.00" id="test1" vtype="SUMO_DEFAULT_TYPE">
        <vehicle id="always_left.0" lane="3si_0" pos="113.93" x="508.25" y="365.43" speed="13.71"/>
        <vehicle id="always_left.1" lane="3fi_0" pos="231.17" x="501.65" y="231.17" speed="11.04"/>
        <vehicle id="always_left.2" lane="3fi_0" pos="116.69" x="501.65" y="116.69" speed="10.41"/>
        <vehicle id="always_left.3" lane="3fi_0" pos="35.07" x="501.65" y="35.07" speed="5.35"/>
        <vehicle id="always_left.4" lane="3fi_0" pos="5.10" x="501.65" y="5.10" speed="0.00"/>
        <vehicle id="always_right.0" lane="1si_2" pos="106.91" x="358.41" y="498.35" speed="13.85"/>
        <vehicle id="always_right.1" lane="1fi_0" pos="233.93" x="233.93" y="498.35" speed="11.10"/>
        <vehicle id="always_right.2" lane="1fi_0" pos="118.14" x="118.14" y="498.35" speed="10.30"/>
        <vehicle id="always_right.3" lane="1fi_0" pos="37.76" x="37.76" y="498.35" speed="5.69"/>
        <vehicle id="always_right.4" lane="1fi_0" pos="5.10" x="5.10" y="498.35" speed="0.00"/>
        <vehicle id="horizontal.0" lane="2si_1" pos="113.56" x="634.94" y="504.95" speed="13.89"/>
        <vehicle id="horizontal.1" lane="2fi_0" pos="230.85" x="769.15" y="501.65" speed="10.78"/>
        <vehicle id="horizontal.2" lane="2fi_0" pos="135.86" x="864.14" y="501.65" speed="11.09"/>
        <vehicle id="horizontal.3" lane="2fi_0" pos="37.12" x="962.88" y="501.65" speed="5.89"/>
        <vehicle id="horizontal.4" lane="2fi_0" pos="5.10" x="994.90" y="501.65" speed="0.00"/>
        <vehicle id="vertical.0" lane="3si_1" pos="55.82" x="504.95" y="307.32" speed="13.42"/>
        <vehicle id="vertical.1" lane="3fi_0" pos="188.12" x="501.65" y="188.12" speed="10.93"/>
        <vehicle id="vertical.2" lane="3fi_0" pos="80.86" x="501.65" y="80.86" speed="9.13"/>
        <vehicle id="vertical.3" lane="3fi_0" pos="16.31" x="501.65" y="16.31" speed="3.37"/>
    </timestep>
    <timestep time="150.00" id="test1" vtype="SUMO_DEFAULT_TYPE">
        <vehicle id="always_left.0" lane="3si_0" pos="234.28" x="508.25" y="485.78" speed="4.54"/>
        <vehicle id="always_left.1" lane="3si_0" pos="98.89" x="508.25" y="350.39" speed="13.87"/>
        <vehicle id="always_left.2" lane="3fi_0" pos="226.00" x="501.65" y="226.00" speed="11.03"/>
        <vehicle id="always_left.3" lane="3fi_0" pos="115.18" x="501.65" y="115.18" speed="10.31"/>
        <vehicle id="always_left.4" lane="3fi_0" pos="39.05" x="501.65" y="39.05" speed="6.15"/>
        <vehicle id="always_left.5" lane="3fi_0" pos="5.10" x="501.65" y="5.10" speed="0.00"/>
        <vehicle id="always_right.0" lane="1si_2" pos="232.33" x="483.83" y="498.35" speed="5.98"/>
        <vehicle id="always_right.1" lane="1si_2" pos="108.73" x="360.23" y="498.35" speed="13.77"/>
        <vehicle id="always_right.2" lane="1fi_0" pos="226.85" x="226.85" y="498.35" speed="10.86"/>
        <vehicle id="always_right.3" lane="1fi_0" pos="124.86" x="124.86" y="498.35" speed="11.10"/>
        <vehicle id="always_right.4" lane="1fi_0" pos="35.55" x="35.55" y="498.35" speed="5.77"/>
        <vehicle id="always_right.5" lane="1fi_0" pos="5.10" x="5.10" y="498.35" speed="0.00"/>
        <vehicle id="horizontal.0" lane=":0_5_0" pos="10.93" x="500.49" y="503.84" speed="12.31"/>
        <vehicle id="horizontal.1" lane="2si_1" pos="103.45" x="645.05" y="504.95" speed="13.58"/>
        <vehicle id="horizontal.2" lane="2fi_0" pos="244.86" x="755.14" y="501.65" speed="10.85"/>
        <vehicle id="horizontal.3" lane="2fi_0" pos="123.32" x="876.68" y="501.65" speed="10.77"/>
        <vehicle id="horizontal.4" lane="2fi_0" pos="37.34" x="962.66" y="501.65" speed="5.84"/>
        <vehicle id="horizontal.5" lane="2fi_0" pos="5.10" x="994.90" y="501.65" speed="0.00"/>
        <vehicle id="vertical.0" lane="3si_1" pos="192.88" x="504.95" y="444.38" speed="13.77"/>
        <vehicle id="vertical.1" lane="3si_1" pos="49.57" x="504.95" y="301.07" speed="13.06"/>
        <vehicle id="vertical.2" lane="3fi_0" pos="187.47" x="501.65" y="187.47" speed="11.02"/>
        <vehicle id="vertical.3" lane="3fi_0" pos="83.92" x="501.65" y="83.92" speed="9.28"/>
        <vehicle id="vertical.4" lane="3fi_0" pos="15.30" x="501.65" y="15.30" speed="3.03"/>
    </timestep>
    <timestep time="160.00" id="test1" vtype="SUMO_DEFAULT_TYPE">
        <vehicle id="always_left.0" lane="3si_0" pos="237.15" x="508.25" y="488.65" speed="0.00"/>
        <vehicle id="always_left.1" lane="3si_0" pos="226.21" x="508.25" y="477.71" speed="6.88"/>
        <vehicle id="always_left.2" lane="3si_0" pos="93.11" x="508.25" y="344.61" speed="13.73"/>
        <vehicle id="always_left.3" lane="3fi_0" pos="224.08" x="501.65" y="224.08" speed="10.86"/>
        <vehicle id="always_left.4" lane="3fi_0" pos="130.78" x="501.65" y="130.78" speed="10.98"/>
        <vehicle id="always_left.5" lane="3fi_0" pos="33.54" x="501.65" y="33.54" speed="5.60"/>
        <vehicle id="always_left.6" lane="3fi_0" pos="5.10" x="501.65" y="5.10" speed="0.00"/>
        <vehicle id="always_right.0" lane="4o_0" pos="30.81" x="501.65" y="542.16" speed="8.16"/>
        <vehicle id="always_right.1" lane="1si_2" pos="232.81" x="484.31" y="498.35" speed="6.13"/>
        <vehicle id="always_right.2" lane="1si_2" pos="102.42" x="353.92" y="498.35" speed="13.89"/>
        <vehicle id="always_right.3" lane="1fi_0" pos="234.17" x="234.17" y="498.35" speed="11.11"/>
        <vehicle id="always_right.4" lane="1fi_0" pos="121.71" x="121.71" y="498.35" speed="11.00"/>
        <vehicle id="always_right.5" lane="1fi_0" pos="33.53" x="33.53" y="498.35" speed="5.29"/>
        <vehicle id="always_right.6" lane="1fi_0" pos="5.10" x="5.10" y="498.35" speed="0.00"/>
        <vehicle id="horizontal.0" lane="1o_0" pos="97.62" x="391.03" y="501.65" speed="11.07"/>
        <vehicle id="horizontal.1" lane=":0_5_0" pos="1.82" x="509.53" y="504.83" speed="12.24"/>
        <vehicle id="horizontal.2" lane="2si_1" pos="120.99" x="627.51" y="504.95" speed="13.58"/>
        <vehicle id="horizontal.3" lane="2fi_0" pos="232.56" x="767.44" y="501.65" speed="10.82"/>
        <vehicle id="horizontal.4" lane="2fi_0" pos="124.70" x="875.30" y="501.65" speed="10.88"/>
        <vehicle id="horizontal.5" lane="2fi_0" pos="36.96" x="963.04" y="501.65" speed="5.75"/>
        <vehicle id="horizontal.6" lane="2fi_0" pos="5.10" x="994.90" y="501.65" speed="0.00"/>
        <vehicle id="vertical.0" lane="3si_1" pos="237.14" x="504.95" y="488.64" speed="0.00"/>
        <vehicle id="vertical.1" lane="3si_1" pos="187.29" x="504.95" y="438.79" speed="13.86"/>
        <vehicle id="vertical.2" lane="3si_1" pos="47.69" x="504.95" y="299.19" speed="12.69"/>
        <vehicle id="vertical.3" lane="3fi_0" pos="191.60" x="501.65" y="191.60" speed="10.91"/>
        <vehicle id="vertical.4" lane="3fi_0" pos="75.71" x="501.65" y="75.71" speed="8.38"/>
        <vehicle id="vertical.5" lane="3fi_0" pos="13.72" x="501.65" y="13.72" speed="2.99"/>
    </timestep>
    <timestep time="170.00" id="test1" vtype="SUMO_DEFAULT_TYPE">
        <vehicle id="always_left.0" lane="3si_0" pos="237.15" x="508.25" y="488.65" speed="0.00"/>
        <vehicle id="always_left.1" lane="3si_0" pos="232.15" x="508.25" y="483.65" speed="0.00"/>
        <vehicle id="always_left.2" lane="3si_0" pos="220.98" x="508.25" y="472.48" speed="6.98"/>
        <vehicle id="always_left.3" lane="3si_0" pos="89.45" x="508.25" y="340.95" speed="13.86"/>
        <vehicle id="always_left.4" lane="3fi_0" pos="239.84" x="501.65" y="239.84" speed="10.83"/>
        <vehicle id="always_left.5" lane="3fi_0" pos="121.62" x="501.65" y="121.62" speed="10.94"/>
        <vehicle id="always_left.6" lane="3fi_0" pos="33.02" x="501.65" y="33.02" speed="5.12"/>
        <vehicle id="always_left.7" lane="3fi_0" pos="5.10" x="501.65" y="5.10" speed="0.00"/>
        <vehicle id="always_right.0" lane="4o_0" pos="132.94" x="501.65" y="644.29" speed="10.98"/>
        <vehicle id="always_right.1" lane="4o_0" pos="35.62" x="501.65" y="546.97" speed="8.49"/>
        <vehicle id="always_right.2" lane="1si_2" pos="234.72" x="486.22" y="498.35" speed="11.55"/>
        <vehicle id="always_right.3" lane="1si_2" pos="107.68" x="359.18" y="498.35" speed="13.71"/>
        <vehicle id="always_right.4" lane="1fi_0" pos="230.55" x="230.55" y="498.35" speed="10.98"/>
        <vehicle id="always_right.5" lane="1fi_0" pos="115.66" x="115.66" y="498.35" speed="10.59"/>
        <vehicle id="always_right.6" lane="1fi_0" pos="36.24" x="36.24" y="498.35" speed="5.58"/>
        <vehicle id="always_right.7" lane="1fi_0" pos="5.10" x="5.10" y="498.35" speed="0.00"/>
        <vehicle id="horizontal.0" lane="1o_0" pos="206.73" x="281.92" y="501.65" speed="11.00"/>
        <vehicle id="horizontal.1" lane="1o_0" pos="89.27" x="399.38" y="501.65" speed="10.90"/>
        <vehicle id="horizontal.2" lane="2si_1" pos="235.61" x="512.89" y="504.95" speed="2.96"/>
        <vehicle id="horizontal.3" lane="2si_1" pos="104.38" x="644.12" y="504.95" speed="13.89"/>
        <vehicle id="horizontal.4" lane="2fi_0" pos="234.21" x="765.79" y="501.65" speed="10.90"/>
        <vehicle id="horizontal.5" lane="2fi_0" pos="125.25" x="874.75" y="501.65" speed="10.98"/>
        <vehicle id="horizontal.6" lane="2fi_0" pos="38.27" x="961.73" y="501.65" speed="5.91"/>
        <vehicle id="horizontal.7" lane="2fi_0" pos="5.10" x="994.90" y="501.65" speed="0.00"/>
        <vehicle id="vertical.0" lane="3si_1" pos="237.14" x="504.95" y="488.64" speed="0.00"/>
        <vehicle id="vertical.1" lane="3si_1" pos="232.14" x="504.95" y="483.64" speed="0.00"/>
        <vehicle id="vertical.2" lane="3si_1" pos="184.90" x="504.95" y="436.40" speed="13.71"/>
        <vehicle id="vertical.3" lane="3si_1" pos="53.59" x="504.95" y="305.09" speed="13.00"/>
        <vehicle id="vertical.4" lane="3fi_0" pos="180.15" x="501.65" y="180.15" speed="10.91"/>
        <vehicle id="vertical.5" lane="3fi_0" pos="73.01" x="501.65" y="73.01" speed="8.04"/>
        <vehicle id="vertical.6" lane="3fi_0" pos="14.68" x="501.65" y="14.68" speed="3.19"/>
    </timestep>
    <timestep time="180.00" id="test1" vtype="SUMO_DEFAULT_TYPE">
        <vehicle id="always_left.0" lane=":0_8_0" pos="0.61" x="508.28" y="489.26" speed="0.61"/>
        <vehicle id="always_left.1" lane="3si_0" pos="232.15" x="508.25" y="483.65" speed="0.00"/>
        <vehicle id="always_left.2" lane="3si_0" pos="227.14" x="508.25" y="478.64" speed="0.00"/>
        <vehicle id="always_left.3" lane="3si_0" pos="216.30" x="508.25" y="467.80" speed="6.74"/>
        <vehicle id="always_left.4" lane="3si_0" pos="112.64" x="508.25" y="364.14" speed="13.83"/>
        <vehicle id="always_left.5" lane="3fi_0" pos="231.90" x="501.65" y="231.90" speed="11.10"/>
        <vehicle id="always_left.6" lane="3fi_0" pos="109.48" x="501.65" y="109.48" speed="9.81"/>
        <vehicle id="always_left.7" lane="3fi_0" pos="40.02" x="501.65" y="40.02" speed="6.31"/>
        <vehicle id="always_left.8" lane="3fi_0" pos="5.10" x="501.65" y="5.10" speed="0.00"/>
        <vehicle id="always_right.0" lane="4o_0" pos="242.17" x="501.65" y="753.52" speed="11.03"/>
        <vehicle id="always_right.1" lane="4o_0" pos="141.13" x="501.65" y="652.48" speed="11.07"/>
        <vehicle id="always_right.2" lane="4o_0" pos="87.08" x="501.65" y="598.43" speed="10.86"/>
        <vehicle id="always_right.3" lane="1si_2" pos="232.92" x="484.42" y="498.35" speed="6.13"/>
        <vehicle id="always_right.4" lane="1si_2" pos="105.42" x="356.92" y="498.35" speed="13.69"/>
        <vehicle id="always_right.5" lane="1fi_0" pos="225.06" x="225.06" y="498.35" speed="10.89"/>
        <vehicle id="always_right.6" lane="1fi_0" pos="119.10" x="119.10" y="498.35" speed="10.65"/>
        <vehicle id="always_right.7" lane="1fi_0" pos="39.68" x="39.68" y="498.35" speed="6.14"/>
        <vehicle id="always_right.8" lane="1fi_0" pos="5.10" x="5.10" y="498.35" speed="0.00"/>
        <vehicle id="horizontal.0" lane="1o_0" pos="316.17" x="172.48" y="501.65" speed="11.01"/>
        <vehicle id="horizontal.1" lane="1o_0" pos="198.88" x="289.77" y="501.65" speed="10.94"/>
        <vehicle id="horizontal.2" lane="2si_1" pos="237.14" x="511.36" y="504.95" speed="0.00"/>
        <vehicle id="horizontal.3" lane="2si_1" pos="227.71" x="520.79" y="504.95" speed="5.74"/>
        <vehicle id="horizontal.4" lane="2si_1" pos="106.16" x="642.34" y="504.95" speed="13.87"/>
        <vehicle id="horizontal.5" lane="2fi_0" pos="234.54" x="765.46" y="501.65" speed="10.92"/>
        <vehicle id="horizontal.6" lane="2fi_0" pos="125.26" x="874.74" y="501.65" speed="10.78"/>
        <vehicle id="horizontal.7" lane="2fi_0" pos="38.55" x="961.45" y="501.65" speed="5.91"/>
        <vehicle id="horizontal.8" lane="2fi_0" pos="5.10" x="994.90" y="501.65" speed="0.00"/>
        <vehicle id="vertical.0" lane=":0_9_0" pos="0.74" x="504.90" y="489.39" speed="0.75"/>
        <vehicle id="vertical.1" lane="3si_1" pos="232.14" x="504.95" y="483.64" speed="0.00"/>
        <vehicle id="vertical.2" lane="3si_1" pos="227.14" x="504.95" y="478.64" speed="0.00"/>
        <vehicle id="vertical.3" lane="3si_1" pos="190.87" x="504.95" y="442.37" speed="13.80"/>
        <vehicle id="vertical.4" lane="3si_1" pos="40.35" x="504.95" y="291.85" speed="12.70"/>
        <vehicle id="vertical.5" lane="3fi_0" pos="175.01" x="501.65" y="175.01" speed="10.83"/>
        <vehicle id="vertical.6" lane="3fi_0" pos="77.50" x="501.65" y="77.50" speed="8.75"/>
        <vehicle id="vertical.7" lane="3fi_0" pos="18.60" x="501.65" y="18.60" speed="3.79"/>
    </timestep>
    <timestep time="190.00" id="test1" vtype="SUMO_DEFAULT_TYPE">
        <vehicle id="always_left.0" lane="2o_0" pos="27.10" x="538.45" y="498.35" speed="6.34"/>
        <vehicle id="always_left.1" lane="2o_0" pos="12.47" x="523.82" y="498.35" speed="5.01"/>
        <vehicle id="always_left.2" lane=":0_8_0" pos="10.81" x="511.28" y="498.32" speed="4.20"/>
        <vehicle id="always_left.3" lane=":0_8_0" pos="0.12" x="508.26" y="488.77" speed="3.42"/>
        <vehicle id="always_left.4" lane="3si_0" pos="225.74" x="508.25" y="477.24" speed="4.69"/>
        <vehicle id="always_left.5" lane="3si_0" pos="103.14" x="508.25" y="354.64" speed="13.87"/>
        <vehicle id="always_left.6" lane="3fi_0" pos="218.41" x="501.65" y="218.41" speed="11.09"/>
        <vehicle id="always_left.7" lane="3fi_0" pos="130.85" x="501.65" y="130.85" speed="11.09"/>
        <vehicle id="always_left.8" lane="3fi_0" pos="39.54" x="501.65" y="39.54" speed="6.32"/>
        <vehicle id="always_left.9" lane="3fi_0" pos="5.10" x="501.65" y="5.10" speed="0.00"/>
        <vehicle id="always_right.0" lane="4o_0" pos="351.47" x="501.65" y="862.82" speed="10.86"/>
        <vehicle id="always_right.1" lane="4o_0" pos="250.37" x="501.65" y="761.72" speed="10.89"/>
        <vehicle id="always_right.2" lane="4o_0" pos="195.91" x="501.65" y="707.26" speed="10.84"/>
        <vehicle id="always_right.3" lane="1si_2" pos="237.15" x="488.65" y="498.35" speed="0.00"/>
        <vehicle id="always_right.4" lane="1si_2" pos="228.27" x="479.77" y="498.35" speed="5.30"/>
        <vehicle id="always_right.5" lane="1si_2" pos="96.73" x="348.23" y="498.35" speed="13.82"/>
        <vehicle id="always_right.6" lane="1fi_0" pos="228.55" x="228.55" y="498.35" speed="10.91"/>
        <vehicle id="always_right.7" lane="1fi_0" pos="133.13" x="133.13" y="498.35" speed="10.93"/>
        <vehicle id="always_right.8" lane="1fi_0" pos="37.24" x="37.24" y="498.35" speed="5.99"/>
        <vehicle id="always_right.9" lane="1fi_0" pos="5.10" x="5.10" y="498.35" speed="0.00"/>
        <vehicle id="horizontal.0" lane="1o_0" pos="425.91" x="62.74" y="501.65" speed="11.11"/>
        <vehicle id="horizontal.1" lane="1o_0" pos="308.68" x="179.97" y="501.65" speed="10.95"/>
        <vehicle id="horizontal.2" lane="2si_1" pos="237.14" x="511.36" y="504.95" speed="0.00"/>
        <vehicle id="horizontal.3" lane="2si_1" pos="232.14" x="516.36" y="504.95" speed="0.00"/>
        <vehicle id="horizontal.4" lane="2si_1" pos="224.91" x="523.59" y="504.95" speed="4.31"/>
        <vehicle id="horizontal.5" lane="2si_1" pos="108.47" x="640.03" y="504.95" speed="13.71"/>
        <vehicle id="horizontal.6" lane="2fi_0" pos="235.14" x="764.86" y="501.65" speed="11.06"/>
        <vehicle id="horizontal.7" lane="2fi_0" pos="126.58" x="873.42" y="501.65" speed="10.78"/>
        <vehicle id="horizontal.8" lane="2fi_0" pos="37.73" x="962.27" y="501.65" speed="5.78"/>
        <vehicle id="horizontal.9" lane="2fi_0" pos="5.10" x="994.90" y="501.65" speed="0.00"/>
        <vehicle id="vertical.0" lane="4o_0" pos="19.96" x="501.65" y="531.31" speed="6.79"/>
        <vehicle id="vertical.1" lane="4o_0" pos="0.17" x="501.65" y="511.52" speed="5.47"/>
        <vehicle id="vertical.2" lane=":0_9_0" pos="10.34" x="503.95" y="498.92" speed="4.51"/>
        <vehicle id="vertical.3" lane="3si_1" pos="236.21" x="504.95" y="487.71" speed="3.34"/>
        <vehicle id="vertical.4" lane="3si_1" pos="177.76" x="504.95" y="429.26" speed="13.79"/>
        <vehicle id="vertical.5" lane="3si_1" pos="33.48" x="504.95" y="284.98" speed="12.20"/>
        <vehicle id="vertical.6" lane="3fi_0" pos="182.57" x="501.65" y="182.57" speed="10.78"/>
        <vehicle id="vertical.7" lane="3fi_0" pos="84.77" x="501.65" y="84.77" speed="8.95"/>
        <vehicle id="vertical.8" lane="3fi_0" pos="16.65" x="501.65" y="16.65" speed="3.27"/>
    </timestep>
    <timestep time="200.00" id="test1" vtype="SUMO_DEFAULT_TYPE">
        <vehicle id="always_left.0" lane="2o_0" pos="121.11" x="632.46" y="498.35" speed="10.94"/>
        <vehicle id="always_left.1" lane="2o_0" pos="88.40" x="599.75" y="498.35" speed="9.57"/>
        <vehicle id="always_left.10" lane="3fi_0" pos="5.10" x="501.65" y="5.10" speed="0.00"/>
        <vehicle id="always_left.2" lane="2o_0" pos="69.16" x="580.51" y="498.35" speed="8.87"/>
        <vehicle id="always_left.3" lane="2o_0" pos="51.25" x="562.60" y="498.35" speed="7.84"/>
        <vehicle id="always_left.4" lane="2o_0" pos="34.65" x="546.00" y="498.35" speed="7.74"/>
        <vehicle id="always_left.5" lane=":0_8_0" pos="2.11" x="508.34" y="490.76" speed="12.35"/>
        <vehicle id="always_left.6" lane="3si_0" pos="83.49" x="508.25" y="334.99" speed="13.81"/>
        <vehicle id="always_left.7" lane="3fi_0" pos="240.16" x="501.65" y="240.16" speed="10.96"/>
        <vehicle id="always_left.8" lane="3fi_0" pos="132.96" x="501.65" y="132.96" speed="10.98"/>
        <vehicle id="always_left.9" lane="3fi_0" pos="39.48" x="501.65" y="39.48" speed="6.36"/>
        <vehicle id="always_right.0" lane="4o_0" pos="461.05" x="501.65" y="972.40" speed="11.09"/>
        <vehicle id="always_right.1" lane="4o_0" pos="359.64" x="501.65" y="870.99" speed="10.80"/>
        <vehicle id="always_right.10" lane="1fi_0" pos="5.10" x="5.10" y="498.35" speed="0.00"/>
        <vehicle id="always_right.2" lane="4o_0" pos="305.15" x="501.65" y="816.50" speed="10.81"/>
        <vehicle id="always_right.3" lane="1si_2" pos="237.15" x="488.65" y="498.35" speed="0.00"/>
        <vehicle id="always_right.4" lane="1si_2" pos="232.14" x="483.64" y="498.35" speed="0.00"/>
        <vehicle id="always_right.5" lane="1si_2" pos="222.48" x="473.98" y="498.35" speed="6.34"/>
        <vehicle id="always_right.6" lane="1si_2" pos="102.41" x="353.91" y="498.35" speed="13.76"/>
        <vehicle id="always_right.7" lane="1fi_0" pos="243.12" x="243.12" y="498.35" speed="11.00"/>
        <vehicle id="always_right.8" lane="1fi_0" pos="124.08" x="124.08" y="498.35" speed="10.84"/>
        <vehicle id="always_right.9" lane="1fi_0" pos="34.66" x="34.66" y="498.35" speed="5.34"/>
        <vehicle id="horizontal.0" lane="1fi_0" pos="21.08" x="21.08" y="498.35" speed="5.20"/>
        <vehicle id="horizontal.1" lane="1o_0" pos="418.29" x="70.36" y="501.65" speed="11.07"/>
        <vehicle id="horizontal.10" lane="2fi_0" pos="5.10" x="994.90" y="501.65" speed="0.00"/>
        <vehicle id="horizontal.2" lane="2si_1" pos="237.14" x="511.36" y="504.95" speed="0.00"/>
        <vehicle id="horizontal.3" lane="2si_1" pos="232.14" x="516.36" y="504.95" speed="0.00"/>
        <vehicle id="horizontal.4" lane="2si_1" pos="227.13" x="521.37" y="504.95" speed="0.00"/>
        <vehicle id="horizontal.5" lane="2si_1" pos="221.18" x="527.32" y="504.95" speed="2.84"/>
        <vehicle id="horizontal.6" lane="2si_1" pos="107.37" x="641.13" y="504.95" speed="13.67"/>
        <vehicle id="horizontal.7" lane="2fi_0" pos="236.01" x="763.99" y="501.65" speed="10.78"/>
        <vehicle id="horizontal.8" lane="2fi_0" pos="123.85" x="876.15" y="501.65" speed="10.94"/>
        <vehicle id="horizontal.9" lane="2fi_0" pos="40.11" x="959.89" y="501.65" speed="6.34"/>
        <vehicle id="vertical.0" lane="4o_0" pos="114.81" x="501.65" y="626.16" speed="10.94"/>
        <vehicle id="vertical.1" lane="4o_0" pos="85.29" x="501.65" y="596.64" speed="10.80"/>
        <vehicle id="vertical.2" lane="4o_0" pos="63.09" x="501.65" y="574.44" speed="9.86"/>
        <vehicle id="vertical.3" lane="4o_0" pos="43.58" x="501.65" y="554.93" speed="8.87"/>
        <vehicle id="vertical.4" lane="4o_0" pos="24.67" x="501.65" y="536.02" speed="8.54"/>
        <vehicle id="vertical.5" lane="3si_1" pos="168.66" x="504.95" y="420.16" speed="13.67"/>
        <vehicle id="vertical.6" lane="3si_1" pos="42.11" x="504.95" y="293.61" speed="12.51"/>
        <vehicle id="vertical.7" lane="3fi_0" pos="190.76" x="501.65" y="190.76" speed="10.92"/>
        <vehicle id="vertical.8" lane="3fi_0" pos="78.23" x="501.65" y="78.23" speed="8.54"/>
        <vehicle id="vertical.9" lane="3fi_0" pos="17.04" x="501.65" y="17.04" speed="3.45"/>
    </timestep>
    <timestep time="210.00" id="test1" vtype="SUMO_DEFAULT_TYPE">
        <vehicle id="always_left.0" lane="2o_0" pos="230.46" x="741.81" y="498.35" speed="11.05"/>
        <vehicle id="always_left.1" lane="2o_0" pos="196.29" x="707.64" y="498.35" speed="10.88"/>
        <vehicle id="always_left.10" lane="3fi_0" pos="35.98" x="501.65" y="35.98" speed="5.69"/>
        <vehicle id="always_left.11" lane="3fi_0" pos="5.10" x="501.65" y="5.10" speed="0.00"/>
        <vehicle id="always_left.2" lane="2o_0" pos="174.20" x="685.55" y="498.35" speed="10.94"/>
        <vehicle id="always_left.3" lane="2o_0" pos="152.57" x="663.92" y="498.35" speed="10.98"/>
        <vehicle id="always_left.4" lane="2o_0" pos="130.93" x="642.28" y="498.35" speed="10.95"/>
        <vehicle id="always_left.5" lane="2o_0" pos="100.30" x="611.65" y="498.35" speed="10.94"/>
        <vehicle id="always_left.6" lane="3si_0" pos="221.11" x="508.25" y="472.61" speed="13.74"/>
        <vehicle id="always_left.7" lane="3si_0" pos="112.75" x="508.25" y="364.25" speed="13.88"/>
        <vehicle id="always_left.8" lane="3fi_0" pos="242.16" x="501.65" y="242.16" speed="10.93"/>
        <vehicle id="always_left.9" lane="3fi_0" pos="129.98" x="501.65" y="129.98" speed="11.07"/>
        <vehicle id="always_right.0" lane="4fi_0" pos="76.97" x="498.35" y="923.03" speed="10.90"/>
        <vehicle id="always_right.1" lane="4o_0" pos="469.11" x="501.65" y="980.46" speed="10.98"/>
        <vehicle id="always_right.10" lane="1fi_0" pos="36.31" x="36.31" y="498.35" speed="5.64"/>
        <vehicle id="always_right.11" lane="1fi_0" pos="5.10" x="5.10" y="498.35" speed="0.00"/>
        <vehicle id="always_right.2" lane="4o_0" pos="414.50" x="501.65" y="925.85" speed="11.06"/>
        <vehicle id="always_right.3" lane="1si_2" pos="237.15" x="488.65" y="498.35" speed="0.00"/>
        <vehicle id="always_right.4" lane="1si_2" pos="232.14" x="483.64" y="498.35" speed="0.00"/>
        <vehicle id="always_right.5" lane="1si_2" pos="227.13" x="478.63" y="498.35" speed="0.00"/>
        <vehicle id="always_right.6" lane="1si_2" pos="219.96" x="471.46" y="498.35" speed="4.02"/>
        <vehicle id="always_right.7" lane="1si_2" pos="119.24" x="370.74" y="498.35" speed="13.80"/>
        <vehicle id="always_right.8" lane="1fi_0" pos="233.68" x="233.68" y="498.35" speed="10.86"/>
        <vehicle id="always_right.9" lane="1fi_0" pos="115.68" x="115.68" y="498.35" speed="10.25"/>
        <vehicle id="horizontal.0" lane="1fi_0" pos="95.35" x="95.35" y="498.35" speed="9.63"/>
        <vehicle id="horizontal.1" lane="1fi_0" pos="21.34" x="21.34" y="498.35" speed="6.23"/>
        <vehicle id="horizontal.10" lane="2fi_0" pos="35.64" x="964.36" y="501.65" speed="5.47"/>
        <vehicle id="horizontal.11" lane="2fi_0" pos="5.10" x="994.90" y="501.65" speed="0.00"/>