<?xml version="1.0"?>

<!-- generated on 11/17/11 10:17:05 by SUMO sumo Version dev-SVN-r11517
<?xml version="1.0" encoding="UTF-8"?>

<configuration xmlns:xsi="http://www.w3.org/2001/XMLSchema-instance" xsi:noNamespaceSchemaLocation="http://sumo.sf.net/xsd/sumoConfiguration.xsd">

    <input>
        <net-file value="net.net.xml"/>
        <route-files value="input_routes.rou.xml"/>
        <additional-files value="input_additional.add.xml"/>
    </input>

    <time>
        <begin value="0"/>
        <end value="220"/>
    </time>

    <report>
        <no-duration-log value="true"/>
        <no-step-log value="true"/>
    </report>

</configuration>
-->

<vehicle-type-probes>
    <timestep time="0.00" id="test1" vType="SUMO_DEFAULT_TYPE">
    </timestep>
    <timestep time="10.00" id="test1" vType="SUMO_DEFAULT_TYPE">
    </timestep>
    <timestep time="20.00" id="test1" vType="SUMO_DEFAULT_TYPE">
    </timestep>
    <timestep time="30.00" id="test1" vType="SUMO_DEFAULT_TYPE">
    </timestep>
    <timestep time="40.00" id="test1" vType="SUMO_DEFAULT_TYPE">
    </timestep>
    <timestep time="50.00" id="test1" vType="SUMO_DEFAULT_TYPE">
    </timestep>
    <timestep time="60.00" id="test1" vType="SUMO_DEFAULT_TYPE">
    </timestep>
    <timestep time="70.00" id="test1" vType="SUMO_DEFAULT_TYPE">
    </timestep>
    <timestep time="80.00" id="test1" vType="SUMO_DEFAULT_TYPE">
    </timestep>
    <timestep time="90.00" id="test1" vType="SUMO_DEFAULT_TYPE">
    </timestep>
    <timestep time="100.00" id="test1" vType="SUMO_DEFAULT_TYPE">
        <vehicle id="always_left.0" lane="3fi_0" pos="5.10" x="501.65" y="5.10" speed="0.00"/>
        <vehicle id="always_right.0" lane="1fi_0" pos="5.10" x="5.10" y="498.35" speed="0.00"/>
        <vehicle id="horizontal.0" lane="2fi_0" pos="5.10" x="994.90" y="501.65" speed="0.00"/>
    </timestep>
    <timestep time="110.00" id="test1" vType="SUMO_DEFAULT_TYPE">
        <vehicle id="always_left.0" lane="3fi_0" pos="41.39" x="501.65" y="41.39" speed="6.55"/>
        <vehicle id="always_left.1" lane="3fi_0" pos="5.10" x="501.65" y="5.10" speed="0.00"/>
        <vehicle id="always_right.0" lane="1fi_0" pos="36.12" x="36.12" y="498.35" speed="5.72"/>
        <vehicle id="always_right.1" lane="1fi_0" pos="5.10" x="5.10" y="498.35" speed="0.00"/>
        <vehicle id="horizontal.0" lane="2fi_0" pos="38.42" x="961.58" y="501.65" speed="6.15"/>
        <vehicle id="horizontal.1" lane="2fi_0" pos="5.10" x="994.90" y="501.65" speed="0.00"/>
        <vehicle id="vertical.0" lane="3fi_0" pos="17.93" x="501.65" y="17.93" speed="3.57"/>
    </timestep>
    <timestep time="120.00" id="test1" vType="SUMO_DEFAULT_TYPE">
        <vehicle id="always_left.0" lane="3fi_0" pos="137.57" x="501.65" y="137.57" speed="10.85"/>
        <vehicle id="always_left.1" lane="3fi_0" pos="35.73" x="501.65" y="35.73" speed="5.94"/>
        <vehicle id="always_left.2" lane="3fi_0" pos="5.10" x="501.65" y="5.10" speed="0.00"/>
        <vehicle id="always_right.0" lane="1fi_0" pos="127.25" x="127.25" y="498.35" speed="10.99"/>
        <vehicle id="always_right.1" lane="1fi_0" pos="38.75" x="38.75" y="498.35" speed="5.98"/>
        <vehicle id="always_right.2" lane="1fi_0" pos="5.10" x="5.10" y="498.35" speed="0.00"/>
        <vehicle id="horizontal.0" lane="2fi_0" pos="133.04" x="866.96" y="501.65" speed="10.97"/>
        <vehicle id="horizontal.1" lane="2fi_0" pos="36.91" x="963.09" y="501.65" speed="5.83"/>
        <vehicle id="horizontal.2" lane="2fi_0" pos="5.10" x="994.90" y="501.65" speed="0.00"/>
        <vehicle id="vertical.0" lane="3fi_0" pos="88.03" x="501.65" y="88.03" speed="9.77"/>
        <vehicle id="vertical.1" lane="3fi_0" pos="16.95" x="501.65" y="16.95" speed="3.46"/>
    </timestep>
    <timestep time="130.00" id="test1" vType="SUMO_DEFAULT_TYPE">
        <vehicle id="always_left.0" lane="3fi_0" pos="245.92" x="501.65" y="245.92" speed="10.75"/>
        <vehicle id="always_left.1" lane="3fi_0" pos="126.36" x="501.65" y="126.36" speed="10.89"/>
        <vehicle id="always_left.2" lane="3fi_0" pos="34.88" x="501.65" y="34.88" speed="5.62"/>
        <vehicle id="always_left.3" lane="3fi_0" pos="5.10" x="501.65" y="5.10" speed="0.00"/>
        <vehicle id="always_right.0" lane="1fi_0" pos="235.62" x="235.62" y="498.35" speed="10.72"/>
        <vehicle id="always_right.1" lane="1fi_0" pos="129.25" x="129.25" y="498.35" speed="11.03"/>
        <vehicle id="always_right.2" lane="1fi_0" pos="35.74" x="35.74" y="498.35" speed="5.81"/>
        <vehicle id="always_right.3" lane="1fi_0" pos="5.10" x="5.10" y="498.35" speed="0.00"/>
        <vehicle id="horizontal.0" lane="2fi_0" pos="242.44" x="757.56" y="501.65" speed="10.90"/>
        <vehicle id="horizontal.1" lane="2fi_0" pos="126.00" x="874.00" y="501.65" speed="11.07"/>
        <vehicle id="horizontal.2" lane="2fi_0" pos="43.36" x="956.64" y="501.65" speed="6.65"/>
        <vehicle id="horizontal.3" lane="2fi_0" pos="5.10" x="994.90" y="501.65" speed="0.00"/>
        <vehicle id="vertical.0" lane="3fi_0" pos="196.99" x="501.65" y="196.99" speed="10.73"/>
        <vehicle id="vertical.1" lane="3fi_0" pos="84.76" x="501.65" y="84.76" speed="9.66"/>
        <vehicle id="vertical.2" lane="3fi_0" pos="14.73" x="501.65" y="14.73" speed="3.36"/>
    </timestep>
    <timestep time="140.00" id="test1" vType="SUMO_DEFAULT_TYPE">
        <vehicle id="always_left.0" lane="3si_0" pos="110.91" x="508.25" y="362.41" speed="12.49"/>
        <vehicle id="always_left.1" lane="3fi_0" pos="235.59" x="501.65" y="235.59" speed="11.03"/>
        <vehicle id="always_left.2" lane="3fi_0" pos="122.23" x="501.65" y="122.23" speed="10.81"/>
        <vehicle id="always_left.3" lane="3fi_0" pos="33.79" x="501.65" y="33.79" speed="5.31"/>
        <vehicle id="always_left.4" lane="3fi_0" pos="5.10" x="501.65" y="5.10" speed="0.00"/>
        <vehicle id="always_right.0" lane="1si_2" pos="103.74" x="355.24" y="498.35" speed="12.27"/>
        <vehicle id="always_right.1" lane="1fi_0" pos="238.11" x="238.11" y="498.35" speed="11.09"/>
        <vehicle id="always_right.2" lane="1fi_0" pos="123.25" x="123.25" y="498.35" speed="10.79"/>
        <vehicle id="always_right.3" lane="1fi_0" pos="40.43" x="40.43" y="498.35" speed="6.10"/>
        <vehicle id="always_right.4" lane="1fi_0" pos="5.10" x="5.10" y="498.35" speed="0.00"/>
        <vehicle id="horizontal.0" lane="2si_1" pos="110.48" x="638.02" y="504.95" speed="12.45"/>
        <vehicle id="horizontal.1" lane="2fi_0" pos="235.27" x="764.73" y="501.65" speed="10.72"/>
        <vehicle id="horizontal.2" lane="2fi_0" pos="140.43" x="859.57" y="501.65" speed="11.09"/>
        <vehicle id="horizontal.3" lane="2fi_0" pos="39.89" x="960.11" y="501.65" speed="6.33"/>
        <vehicle id="horizontal.4" lane="2fi_0" pos="5.10" x="994.90" y="501.65" speed="0.00"/>
        <vehicle id="vertical.0" lane="3si_1" pos="59.89" x="504.95" y="311.39" speed="12.44"/>
        <vehicle id="vertical.1" lane="3fi_0" pos="192.93" x="501.65" y="192.93" speed="10.90"/>
        <vehicle id="vertical.2" lane="3fi_0" pos="82.23" x="501.65" y="82.23" speed="9.51"/>
        <vehicle id="vertical.3" lane="3fi_0" pos="14.28" x="501.65" y="14.28" speed="3.07"/>
    </timestep>
    <timestep time="150.00" id="test1" vType="SUMO_DEFAULT_TYPE">
        <vehicle id="always_left.0" lane="3si_0" pos="229.17" x="508.25" y="480.67" speed="8.13"/>
        <vehicle id="always_left.1" lane="3si_0" pos="106.78" x="508.25" y="358.28" speed="13.51"/>
        <vehicle id="always_left.2" lane="3fi_0" pos="231.25" x="501.65" y="231.25" speed="11.01"/>
        <vehicle id="always_left.3" lane="3fi_0" pos="117.18" x="501.65" y="117.18" speed="10.79"/>
        <vehicle id="always_left.4" lane="3fi_0" pos="41.37" x="501.65" y="41.37" speed="6.56"/>
        <vehicle id="always_left.5" lane="3fi_0" pos="5.10" x="501.65" y="5.10" speed="0.00"/>
        <vehicle id="always_right.0" lane="1si_2" pos="225.02" x="476.52" y="498.35" speed="10.01"/>
        <vehicle id="always_right.1" lane="1si_2" pos="114.26" x="365.76" y="498.35" speed="13.87"/>
        <vehicle id="always_right.2" lane="1fi_0" pos="231.99" x="231.99" y="498.35" speed="10.81"/>
        <vehicle id="always_right.3" lane="1fi_0" pos="133.54" x="133.54" y="498.35" speed="11.10"/>
        <vehicle id="always_right.4" lane="1fi_0" pos="35.52" x="35.52" y="498.35" speed="5.89"/>
        <vehicle id="always_right.5" lane="1fi_0" pos="5.10" x="5.10" y="498.35" speed="0.00"/>
        <vehicle id="horizontal.0" lane="2si_1" pos="231.00" x="517.50" y="504.95" speed="10.72"/>
        <vehicle id="horizontal.1" lane="2si_1" pos="107.14" x="641.36" y="504.95" speed="13.74"/>
        <vehicle id="horizontal.2" lane=":m2_1_0" pos="0.61" x="751.09" y="502.10" speed="10.80"/>
        <vehicle id="horizontal.3" lane="2fi_0" pos="130.82" x="869.18" y="501.65" speed="10.76"/>
        <vehicle id="horizontal.4" lane="2fi_0" pos="39.94" x="960.06" y="501.65" speed="6.25"/>
        <vehicle id="horizontal.5" lane="2fi_0" pos="5.10" x="994.90" y="501.65" speed="0.00"/>
        <vehicle id="vertical.0" lane="3si_1" pos="182.60" x="504.95" y="434.10" speed="12.36"/>
        <vehicle id="vertical.1" lane="3si_1" pos="55.01" x="504.95" y="306.51" speed="13.45"/>
        <vehicle id="vertical.2" lane="3fi_0" pos="189.90" x="501.65" y="189.90" speed="11.00"/>
        <vehicle id="vertical.3" lane="3fi_0" pos="80.38" x="501.65" y="80.38" speed="9.39"/>
        <vehicle id="vertical.4" lane="3fi_0" pos="15.35" x="501.65" y="15.35" speed="3.07"/>
    </timestep>
    <timestep time="160.00" id="test1" vType="SUMO_DEFAULT_TYPE">
        <vehicle id="always_left.0" lane="3si_0" pos="237.14" x="508.25" y="488.64" speed="0.00"/>
        <vehicle id="always_left.1" lane="3si_0" pos="228.39" x="508.25" y="479.89" speed="5.25"/>
        <vehicle id="always_left.2" lane="3si_0" pos="100.99" x="508.25" y="352.49" speed="13.51"/>
        <vehicle id="always_left.3" lane="3fi_0" pos="227.00" x="501.65" y="227.00" speed="11.06"/>
        <vehicle id="always_left.4" lane="3fi_0" pos="136.83" x="501.65" y="136.83" speed="10.87"/>
        <vehicle id="always_left.5" lane="3fi_0" pos="34.24" x="501.65" y="34.24" speed="5.45"/>
        <vehicle id="always_left.6" lane="3fi_0" pos="5.10" x="501.65" y="5.10" speed="0.00"/>
        <vehicle id="always_right.0" lane="4o_0" pos="18.77" x="501.65" y="530.12" speed="7.21"/>
        <vehicle id="always_right.1" lane="1si_2" pos="232.52" x="484.02" y="498.35" speed="5.92"/>
        <vehicle id="always_right.2" lane="1si_2" pos="107.43" x="358.93" y="498.35" speed="13.59"/>
        <vehicle id="always_right.3" lane="1fi_0" pos="242.51" x="242.51" y="498.35" speed="10.92"/>
        <vehicle id="always_right.4" lane="1fi_0" pos="126.24" x="126.24" y="498.35" speed="11.11"/>
        <vehicle id="always_right.5" lane="1fi_0" pos="37.64" x="37.64" y="498.35" speed="6.08"/>
        <vehicle id="always_right.6" lane="1fi_0" pos="5.10" x="5.10" y="498.35" speed="0.00"/>
        <vehicle id="horizontal.0" lane="1o_0" pos="79.52" x="409.13" y="501.65" speed="10.78"/>
        <vehicle id="horizontal.1" lane="2si_1" pos="227.65" x="520.85" y="504.95" speed="10.93"/>
        <vehicle id="horizontal.2" lane="2si_1" pos="127.06" x="621.44" y="504.95" speed="13.82"/>
        <vehicle id="horizontal.3" lane="2fi_0" pos="239.82" x="760.18" y="501.65" speed="10.93"/>
        <vehicle id="horizontal.4" lane="2fi_0" pos="130.00" x="870.00" y="501.65" speed="10.77"/>
        <vehicle id="horizontal.5" lane="2fi_0" pos="41.85" x="958.15" y="501.65" speed="6.43"/>
        <vehicle id="horizontal.6" lane="2fi_0" pos="5.10" x="994.90" y="501.65" speed="0.00"/>
        <vehicle id="vertical.0" lane="3si_1" pos="237.15" x="504.95" y="488.65" speed="0.00"/>
        <vehicle id="vertical.1" lane="3si_1" pos="192.13" x="504.95" y="443.63" speed="13.58"/>
        <vehicle id="vertical.2" lane="3si_1" pos="52.93" x="504.95" y="304.43" speed="13.54"/>
        <vehicle id="vertical.3" lane="3fi_0" pos="187.82" x="501.65" y="187.82" speed="10.81"/>
        <vehicle id="vertical.4" lane="3fi_0" pos="81.61" x="501.65" y="81.61" speed="9.50"/>
        <vehicle id="vertical.5" lane="3fi_0" pos="16.44" x="501.65" y="16.44" speed="3.67"/>
    </timestep>
    <timestep time="170.00" id="test1" vType="SUMO_DEFAULT_TYPE">
        <vehicle id="always_left.0" lane="3si_0" pos="237.14" x="508.25" y="488.64" speed="0.00"/>
        <vehicle id="always_left.1" lane="3si_0" pos="232.14" x="508.25" y="483.64" speed="0.00"/>
        <vehicle id="always_left.2" lane="3si_0" pos="223.35" x="508.25" y="474.85" speed="5.21"/>
        <vehicle id="always_left.3" lane="3si_0" pos="99.09" x="508.25" y="350.59" speed="13.89"/>
        <vehicle id="always_left.4" lane="3fi_0" pos="245.72" x="501.65" y="245.72" speed="10.98"/>
        <vehicle id="always_left.5" lane="3fi_0" pos="121.84" x="501.65" y="121.84" speed="10.78"/>
        <vehicle id="always_left.6" lane="3fi_0" pos="41.27" x="501.65" y="41.27" speed="6.69"/>
        <vehicle id="always_left.7" lane="3fi_0" pos="5.10" x="501.65" y="5.10" speed="0.00"/>
        <vehicle id="always_right.0" lane="4o_0" pos="117.35" x="501.65" y="628.70" speed="10.99"/>
        <vehicle id="always_right.1" lane="4o_0" pos="29.95" x="501.65" y="541.30" speed="8.12"/>
        <vehicle id="always_right.2" lane="1si_2" pos="231.65" x="483.15" y="498.35" speed="10.73"/>
        <vehicle id="always_right.3" lane="1si_2" pos="119.14" x="370.64" y="498.35" speed="13.61"/>
        <vehicle id="always_right.4" lane="1fi_0" pos="235.80" x="235.80" y="498.35" speed="10.96"/>
        <vehicle id="always_right.5" lane="1fi_0" pos="127.32" x="127.32" y="498.35" speed="10.95"/>
        <vehicle id="always_right.6" lane="1fi_0" pos="36.48" x="36.48" y="498.35" speed="5.71"/>
        <vehicle id="always_right.7" lane="1fi_0" pos="5.10" x="5.10" y="498.35" speed="0.00"/>
        <vehicle id="horizontal.0" lane="1o_0" pos="188.05" x="300.60" y="501.65" speed="10.96"/>
        <vehicle id="horizontal.1" lane="1o_0" pos="76.94" x="411.71" y="501.65" speed="11.08"/>
        <vehicle id="horizontal.2" lane="2si_1" pos="235.34" x="513.16" y="504.95" speed="4.01"/>
        <vehicle id="horizontal.3" lane="2si_1" pos="116.03" x="632.47" y="504.95" speed="13.70"/>
        <vehicle id="horizontal.4" lane="2fi_0" pos="238.37" x="761.63" y="501.65" speed="10.74"/>
        <vehicle id="horizontal.5" lane="2fi_0" pos="136.26" x="863.74" y="501.65" speed="11.09"/>
        <vehicle id="horizontal.6" lane="2fi_0" pos="42.10" x="957.90" y="501.65" speed="6.32"/>
        <vehicle id="horizontal.7" lane="2fi_0" pos="5.10" x="994.90" y="501.65" speed="0.00"/>
        <vehicle id="vertical.0" lane="3si_1" pos="237.15" x="504.95" y="488.65" speed="0.00"/>
        <vehicle id="vertical.1" lane="3si_1" pos="232.14" x="504.95" y="483.64" speed="0.00"/>
        <vehicle id="vertical.2" lane="3si_1" pos="189.94" x="504.95" y="441.44" speed="13.66"/>
        <vehicle id="vertical.3" lane="3si_1" pos="50.22" x="504.95" y="301.72" speed="13.35"/>
        <vehicle id="vertical.4" lane="3fi_0" pos="189.94" x="501.65" y="189.94" speed="10.85"/>
        <vehicle id="vertical.5" lane="3fi_0" pos="85.77" x="501.65" y="85.77" speed="9.49"/>
        <vehicle id="vertical.6" lane="3fi_0" pos="15.56" x="501.65" y="15.56" speed="2.97"/>
    </timestep>
    <timestep time="180.00" id="test1" vType="SUMO_DEFAULT_TYPE">
        <vehicle id="always_left.0" lane=":0_8_0" pos="0.70" x="508.28" y="489.35" speed="0.71"/>
        <vehicle id="always_left.1" lane="3si_0" pos="232.14" x="508.25" y="483.64" speed="0.00"/>
        <vehicle id="always_left.2" lane="3si_0" pos="227.13" x="508.25" y="478.63" speed="0.00"/>
        <vehicle id="always_left.3" lane="3si_0" pos="219.10" x="508.25" y="470.60" speed="4.87"/>
        <vehicle id="always_left.4" lane="3si_0" pos="117.57" x="508.25" y="369.07" speed="13.78"/>
        <vehicle id="always_left.5" lane="3fi_0" pos="231.11" x="501.65" y="231.11" speed="10.91"/>
        <vehicle id="always_left.6" lane="3fi_0" pos="140.57" x="501.65" y="140.57" speed="10.78"/>
        <vehicle id="always_left.7" lane="3fi_0" pos="34.30" x="501.65" y="34.30" speed="5.52"/>
        <vehicle id="always_left.8" lane="3fi_0" pos="5.10" x="501.65" y="5.10" speed="0.00"/>
        <vehicle id="always_right.0" lane="4o_0" pos="227.06" x="501.65" y="738.41" speed="11.10"/>
        <vehicle id="always_right.1" lane="4o_0" pos="134.02" x="501.65" y="645.37" speed="11.02"/>
        <vehicle id="always_right.2" lane="4o_0" pos="82.20" x="501.65" y="593.55" speed="11.06"/>
        <vehicle id="always_right.3" lane="1si_2" pos="233.10" x="484.60" y="498.35" speed="5.66"/>
        <vehicle id="always_right.4" lane="1si_2" pos="110.79" x="362.29" y="498.35" speed="13.54"/>
        <vehicle id="always_right.5" lane="1fi_0" pos="236.49" x="236.49" y="498.35" speed="10.93"/>
        <vehicle id="always_right.6" lane="1fi_0" pos="126.36" x="126.36" y="498.35" speed="10.85"/>
        <vehicle id="always_right.7" lane="1fi_0" pos="38.18" x="38.18" y="498.35" speed="6.13"/>
        <vehicle id="always_right.8" lane="1fi_0" pos="5.10" x="5.10" y="498.35" speed="0.00"/>
        <vehicle id="horizontal.0" lane="1o_0" pos="297.14" x="191.51" y="501.65" speed="10.81"/>
        <vehicle id="horizontal.1" lane="1o_0" pos="186.37" x="302.28" y="501.65" speed="10.99"/>
        <vehicle id="horizontal.2" lane="2si_1" pos="237.14" x="511.36" y="504.95" speed="0.00"/>
        <vehicle id="horizontal.3" lane="2si_1" pos="230.91" x="517.59" y="504.95" speed="3.27"/>
        <vehicle id="horizontal.4" lane="2si_1" pos="113.70" x="634.80" y="504.95" speed="13.64"/>
        <vehicle id="horizontal.5" lane="2fi_0" pos="245.89" x="754.11" y="501.65" speed="11.02"/>
        <vehicle id="horizontal.6" lane="2fi_0" pos="138.39" x="861.61" y="501.65" speed="10.88"/>
        <vehicle id="horizontal.7" lane="2fi_0" pos="37.03" x="962.97" y="501.65" speed="5.67"/>
        <vehicle id="horizontal.8" lane="2fi_0" pos="5.10" x="994.90" y="501.65" speed="0.00"/>
        <vehicle id="vertical.0" lane=":0_9_0" pos="0.72" x="504.90" y="489.37" speed="0.72"/>
        <vehicle id="vertical.1" lane="3si_1" pos="232.14" x="504.95" y="483.64" speed="0.00"/>
        <vehicle id="vertical.2" lane="3si_1" pos="227.14" x="504.95" y="478.64" speed="0.00"/>
        <vehicle id="vertical.3" lane="3si_1" pos="187.18" x="504.95" y="438.68" speed="13.63"/>
        <vehicle id="vertical.4" lane="3si_1" pos="52.87" x="504.95" y="304.37" speed="13.67"/>
        <vehicle id="vertical.5" lane="3fi_0" pos="194.65" x="501.65" y="194.65" speed="11.10"/>
        <vehicle id="vertical.6" lane="3fi_0" pos="73.96" x="501.65" y="73.96" speed="8.33"/>
        <vehicle id="vertical.7" lane="3fi_0" pos="14.50" x="501.65" y="14.50" speed="3.29"/>
    </timestep>
    <timestep time="190.00" id="test1" vType="SUMO_DEFAULT_TYPE">
        <vehicle id="always_left.0" lane="2o_0" pos="32.30" x="543.65" y="498.35" speed="6.88"/>
        <vehicle id="always_left.1" lane="2o_0" pos="14.58" x="525.93" y="498.35" speed="5.72"/>
        <vehicle id="always_left.2" lane="2o_0" pos="0.97" x="512.32" y="498.35" speed="4.53"/>
        <vehicle id="always_left.3" lane=":0_8_0" pos="0.73" x="508.28" y="489.38" speed="3.75"/>
        <vehicle id="always_left.4" lane="3si_0" pos="226.69" x="508.25" y="478.19" speed="4.61"/>
        <vehicle id="always_left.5" lane="3si_0" pos="102.49" x="508.25" y="353.99" speed="13.80"/>
        <vehicle id="always_left.6" lane=":m3_0_0" pos="1.61" x="503.12" y="249.17" speed="10.92"/>
        <vehicle id="always_left.7" lane="3fi_0" pos="119.93" x="501.65" y="119.93" speed="10.72"/>
        <vehicle id="always_left.8" lane="3fi_0" pos="36.90" x="501.65" y="36.90" speed="5.87"/>
        <vehicle id="always_left.9" lane="3fi_0" pos="5.10" x="501.65" y="5.10" speed="0.00"/>
        <vehicle id="always_right.0" lane="4o_0" pos="336.57" x="501.65" y="847.92" speed="11.08"/>
        <vehicle id="always_right.1" lane="4o_0" pos="242.99" x="501.65" y="754.34" speed="10.81"/>
        <vehicle id="always_right.2" lane="4o_0" pos="191.17" x="501.65" y="702.52" speed="10.85"/>
        <vehicle id="always_right.3" lane="1si_2" pos="237.15" x="488.65" y="498.35" speed="0.00"/>
        <vehicle id="always_right.4" lane="1si_2" pos="229.90" x="481.40" y="498.35" speed="4.26"/>
        <vehicle id="always_right.5" lane="1si_2" pos="110.60" x="362.10" y="498.35" speed="13.55"/>
        <vehicle id="always_right.6" lane="1fi_0" pos="235.31" x="235.31" y="498.35" speed="10.94"/>
        <vehicle id="always_right.7" lane="1fi_0" pos="132.12" x="132.12" y="498.35" speed="10.87"/>
        <vehicle id="always_right.8" lane="1fi_0" pos="38.25" x="38.25" y="498.35" speed="6.11"/>
        <vehicle id="always_right.9" lane="1fi_0" pos="5.10" x="5.10" y="498.35" speed="0.00"/>
        <vehicle id="horizontal.0" lane="1o_0" pos="405.68" x="82.97" y="501.65" speed="10.79"/>
        <vehicle id="horizontal.1" lane="1o_0" pos="295.55" x="193.10" y="501.65" speed="11.11"/>
        <vehicle id="horizontal.2" lane="2si_1" pos="237.14" x="511.36" y="504.95" speed="0.00"/>
        <vehicle id="horizontal.3" lane="2si_1" pos="232.14" x="516.36" y="504.95" speed="0.00"/>
        <vehicle id="horizontal.4" lane="2si_1" pos="225.82" x="522.68" y="504.95" speed="2.54"/>
        <vehicle id="horizontal.5" lane="2si_1" pos="121.89" x="626.61" y="504.95" speed="13.80"/>
        <vehicle id="horizontal.6" lane="2fi_0" pos="247.30" x="752.70" y="501.65" speed="10.75"/>
        <vehicle id="horizontal.7" lane="2fi_0" pos="128.28" x="871.72" y="501.65" speed="11.06"/>
        <vehicle id="horizontal.8" lane="2fi_0" pos="37.17" x="962.83" y="501.65" speed="5.89"/>
        <vehicle id="horizontal.9" lane="2fi_0" pos="5.10" x="994.90" y="501.65" speed="0.00"/>
        <vehicle id="vertical.0" lane="4o_0" pos="17.18" x="501.65" y="528.53" speed="6.34"/>
        <vehicle id="vertical.1" lane="4o_0" pos="2.87" x="501.65" y="514.22" speed="5.48"/>
        <vehicle id="vertical.2" lane=":0_9_0" pos="11.25" x="503.78" y="499.83" speed="4.84"/>
        <vehicle id="vertical.3" lane="3si_1" pos="236.90" x="504.95" y="488.40" speed="3.83"/>
        <vehicle id="vertical.4" lane="3si_1" pos="189.52" x="504.95" y="441.02" speed="13.62"/>
        <vehicle id="vertical.5" lane="3si_1" pos="60.01" x="504.95" y="311.51" speed="13.77"/>
        <vehicle id="vertical.6" lane="3fi_0" pos="177.86" x="501.65" y="177.86" speed="11.08"/>
        <vehicle id="vertical.7" lane="3fi_0" pos="79.22" x="501.65" y="79.22" speed="9.31"/>
        <vehicle id="vertical.8" lane="3fi_0" pos="16.36" x="501.65" y="16.36" speed="3.47"/>
    </timestep>
    <timestep time="200.00" id="test1" vType="SUMO_DEFAULT_TYPE">
        <vehicle id="always_left.0" lane="2o_0" pos="131.55" x="642.90" y="498.35" speed="11.10"/>
        <vehicle id="always_left.1" lane="2o_0" pos="106.40" x="617.75" y="498.35" speed="10.91"/>
        <vehicle id="always_left.10" lane="3fi_0" pos="5.10" x="501.65" y="5.10" speed="0.00"/>
        <vehicle id="always_left.2" lane="2o_0" pos="75.27" x="586.62" y="498.35" speed="9.76"/>
        <vehicle id="always_left.3" lane="2o_0" pos="55.61" x="566.96" y="498.35" speed="9.18"/>
        <vehicle id="always_left.4" lane="2o_0" pos="37.13" x="548.48" y="498.35" speed="7.98"/>
        <vehicle id="always_left.5" lane="3si_0" pos="227.34" x="508.25" y="478.84" speed="10.75"/>
        <vehicle id="always_left.6" lane="3si_0" pos="125.89" x="508.25" y="377.39" speed="13.63"/>
        <vehicle id="always_left.7" lane="3fi_0" pos="229.21" x="501.65" y="229.21" speed="11.06"/>
        <vehicle id="always_left.8" lane="3fi_0" pos="126.20" x="501.65" y="126.20" speed="10.88"/>
        <vehicle id="always_left.9" lane="3fi_0" pos="37.30" x="501.65" y="37.30" speed="6.10"/>
        <vehicle id="always_right.0" lane="4o_0" pos="445.90" x="501.65" y="957.25" speed="10.93"/>
        <vehicle id="always_right.1" lane="4o_0" pos="352.40" x="501.65" y="863.75" speed="11.09"/>
        <vehicle id="always_right.10" lane="1fi_0" pos="5.10" x="5.10" y="498.35" speed="0.00"/>
        <vehicle id="always_right.2" lane="4o_0" pos="299.82" x="501.65" y="811.17" speed="10.75"/>
        <vehicle id="always_right.3" lane="1si_2" pos="237.15" x="488.65" y="498.35" speed="0.00"/>
        <vehicle id="always_right.4" lane="1si_2" pos="232.14" x="483.64" y="498.35" speed="0.00"/>
        <vehicle id="always_right.5" lane="1si_2" pos="225.46" x="476.96" y="498.35" speed="3.29"/>
        <vehicle id="always_right.6" lane="1si_2" pos="109.71" x="361.21" y="498.35" speed="13.71"/>
        <vehicle id="always_right.7" lane="1fi_0" pos="241.63" x="241.63" y="498.35" speed="11.10"/>
        <vehicle id="always_right.8" lane="1fi_0" pos="131.36" x="131.36" y="498.35" speed="10.98"/>
        <vehicle id="always_right.9" lane="1fi_0" pos="40.22" x="40.22" y="498.35" speed="6.19"/>
        <vehicle id="horizontal.0" lane="1fi_0" pos="19.92" x="19.92" y="498.35" speed="9.23"/>
        <vehicle id="horizontal.1" lane="1o_0" pos="404.65" x="84.00" y="501.65" speed="10.74"/>
        <vehicle id="horizontal.10" lane="2fi_0" pos="5.10" x="994.90" y="501.65" speed="0.00"/>
        <vehicle id="horizontal.2" lane="2si_1" pos="237.14" x="511.36" y="504.95" speed="0.00"/>
        <vehicle id="horizontal.3" lane="2si_1" pos="232.14" x="516.36" y="504.95" speed="0.00"/>
        <vehicle id="horizontal.4" lane="2si_1" pos="227.14" x="521.36" y="504.95" speed="0.00"/>
        <vehicle id="horizontal.5" lane="2si_1" pos="221.94" x="526.56" y="504.95" speed="0.89"/>
        <vehicle id="horizontal.6" lane="2si_1" pos="123.06" x="625.44" y="504.95" speed="13.73"/>
        <vehicle id="horizontal.7" lane="2fi_0" pos="237.48" x="762.52" y="501.65" speed="10.82"/>
        <vehicle id="horizontal.8" lane="2fi_0" pos="128.45" x="871.55" y="501.65" speed="10.71"/>
        <vehicle id="horizontal.9" lane="2fi_0" pos="40.81" x="959.19" y="501.65" speed="6.44"/>
        <vehicle id="vertical.0" lane="4o_0" pos="110.34" x="501.65" y="621.69" speed="10.75"/>
        <vehicle id="vertical.1" lane="4o_0" pos="88.93" x="501.65" y="600.28" speed="10.87"/>
        <vehicle id="vertical.2" lane="4o_0" pos="67.51" x="501.65" y="578.86" speed="10.33"/>
        <vehicle id="vertical.3" lane="4o_0" pos="47.33" x="501.65" y="558.68" speed="9.61"/>
        <vehicle id="vertical.4" lane="4o_0" pos="27.51" x="501.65" y="538.86" speed="8.77"/>
        <vehicle id="vertical.5" lane="3si_1" pos="189.64" x="504.95" y="441.14" speed="12.39"/>
        <vehicle id="vertical.6" lane="3si_1" pos="37.28" x="504.95" y="288.78" speed="12.62"/>
        <vehicle id="vertical.7" lane="3fi_0" pos="186.73" x="501.65" y="186.73" speed="10.93"/>
        <vehicle id="vertical.8" lane="3fi_0" pos="81.27" x="501.65" y="81.27" speed="8.88"/>
        <vehicle id="vertical.9" lane="3fi_0" pos="19.16" x="501.65" y="19.16" speed="4.04"/>
    </timestep>
    <timestep time="210.00" id="test1" vType="SUMO_DEFAULT_TYPE">
        <vehicle id="always_left.0" lane="2o_0" pos="240.41" x="751.76" y="498.35" speed="10.86"/>
        <vehicle id="always_left.1" lane="2o_0" pos="215.42" x="726.77" y="498.35" speed="11.04"/>
        <vehicle id="always_left.10" lane="3fi_0" pos="42.39" x="501.65" y="42.39" speed="6.70"/>
        <vehicle id="always_left.11" lane="3fi_0" pos="5.10" x="501.65" y="5.10" speed="0.00"/>
        <vehicle id="always_left.2" lane="2o_0" pos="183.59" x="694.94" y="498.35" speed="10.84"/>
        <vehicle id="always_left.3" lane="2o_0" pos="161.81" x="673.16" y="498.35" speed="10.91"/>
        <vehicle id="always_left.4" lane="2o_0" pos="139.63" x="650.98" y="498.35" speed="10.96"/>
        <vehicle id="always_left.5" lane="2o_0" pos="88.38" x="599.73" y="498.35" speed="10.92"/>
        <vehicle id="always_left.6" lane=":0_8_0" pos="7.41" x="509.06" y="495.99" speed="11.05"/>
        <vehicle id="always_left.7" lane="3si_0" pos="99.21" x="508.25" y="350.71" speed="13.85"/>
        <vehicle id="always_left.8" lane="3fi_0" pos="235.36" x="501.65" y="235.36" speed="10.92"/>
        <vehicle id="always_left.9" lane="3fi_0" pos="126.61" x="501.65" y="126.61" speed="10.88"/>
        <vehicle id="always_right.0" lane="4fi_0" pos="61.74" x="498.35" y="938.26" speed="10.87"/>
        <vehicle id="always_right.1" lane="4o_0" pos="461.08" x="501.65" y="972.43" speed="10.91"/>
        <vehicle id="always_right.10" lane="1fi_0" pos="40.12" x="40.12" y="498.35" speed="6.10"/>
        <vehicle id="always_right.11" lane="1fi_0" pos="5.10" x="5.10" y="498.35" speed="0.00"/>
        <vehicle id="always_right.2" lane="4o_0" pos="408.39" x="501.65" y="919.74" speed="10.96"/>
        <vehicle id="always_right.3" lane="1si_2" pos="237.15" x="488.65" y="498.35" speed="0.00"/>
        <vehicle id="always_right.4" lane="1si_2" pos="232.14" x="483.64" y="498.35" speed="0.00"/>
        <vehicle id="always_right.5" lane="1si_2" pos="227.14" x="478.64" y="498.35" speed="0.00"/>
        <vehicle id="always_right.6" lane="1si_2" pos="221.14" x="472.64" y="498.35" speed="2.28"/>
        <vehicle id="always_right.7" lane="1si_2" pos="118.33" x="369.83" y="498.35" speed="13.70"/>
        <vehicle id="always_right.8" lane="1fi_0" pos="240.21" x="240.21" y="498.35" speed="10.71"/>
        <vehicle id="always_right.9" lane="1fi_0" pos="134.86" x="134.86" y="498.35" speed="10.81"/>
        <vehicle id="horizontal.0" lane="1fi_0" pos="113.58" x="113.58" y="498.35" speed="10.52"/>
        <vehicle id="horizontal.1" lane="1fi_0" pos="19.12" x="19.12" y="498.35" speed="9.64"/>
        <vehicle id="horizontal.10" lane="2fi_0" pos="40.57" x="959.43" y="501.65" speed="6.25"/>
        <vehicle id="horizontal.11" lane="2fi_0" pos="5.10" x="994.90" y="501.65" speed="0.00"/>