<?xml version="1.0" encoding="UTF-8"?>

<!-- generated on 2023-01-26 15:52:58 by Eclipse SUMO netconvert Version v1_15_0+1990-019f60057a9
<configuration xmlns:xsi="http://www.w3.org/2001/XMLSchema-instance" xsi:noNamespaceSchemaLocation="http://sumo.dlr.de/xsd/netconvertConfiguration.xsd">

    <input>
        <sumo-net-file value="D:/SUMO/tests/netedit\dataelements/net.net.xml"/>
    </input>

    <output>
        <plain-output-prefix value="D:/SUMO/tests/netedit\dataelements/net"/>
    </output>

    <processing>
        <geometry.min-radius.fix.railways value="false"/>
        <geometry.max-grade.fix value="false"/>
        <offset.disable-normalization value="true"/>
        <lefthand value="0"/>
    </processing>

    <junctions>
        <no-turnarounds value="true"/>
        <junctions.corner-detail value="5"/>
        <junctions.limit-turn-speed value="5.50"/>
        <rectangular-lane-cut value="0"/>
    </junctions>

    <pedestrian>
        <walkingareas value="0"/>
    </pedestrian>

</configuration>
-->

<edges version="1.16" xmlns:xsi="http://www.w3.org/2001/XMLSchema-instance" xsi:noNamespaceSchemaLocation="http://sumo.dlr.de/xsd/edges_file.xsd">
    <edge id="-gneE14" from="gneJ12" to="gneJ11" priority="-1" numLanes="3" speed="13.89"/>
    <edge id="-gneE15" from="gneJ13" to="gneJ11" priority="-1" numLanes="3" speed="13.89"/>
    <edge id="-gneE16" from="gneJ14" to="gneJ11" priority="-1" numLanes="3" speed="13.89"/>
    <edge id="gneE12" from="gneJ10" to="gneJ11" priority="-1" numLanes="3" speed="13.89"/>
    <edge id="gneE13" from="gneJ11" to="gneJ10" priority="-1" numLanes="3" speed="13.89"/>
    <edge id="gneE14" from="gneJ11" to="gneJ12" priority="-1" numLanes="3" speed="13.89"/>
    <edge id="gneE15" from="gneJ11" to="gneJ13" priority="-1" numLanes="3" speed="13.89"/>
    <edge id="gneE16" from="gneJ11" to="gneJ14" priority="-1" numLanes="3" speed="13.89"/>
</edges>
