<routes>   
    <person id="p0" depart="0">
        <walk edges="AB BC CD DE" departPos="0.0"/>
    </person>
    <person id="p1" depart="1">
        <walk edges="AB BC CD DE" departPos="0.0"/>
    </person>
    <person id="p2" depart="2">
        <walk edges="AB BC CD DE" departPos="0.0"/>
    </person>
    <person id="p3" depart="4">
        <walk edges="AB BC CD DE" departPos="0.0"/>
    </person>
    <person id="p4" depart="5">
        <walk edges="AB BC CD DE" departPos="0.0"/>
    </person>
    <person id="p5" depart="6">
        <walk edges="AB BC CD DE" departPos="0.0"/>
    </person>
    <person id="p6" depart="7">
        <walk edges="AB BC CD DE" departPos="0.0"/>
    </person>
    <person id="p7" depart="8">
        <walk edges="AB BC CD DE" departPos="0.0"/>
    </person>
    <person id="p8" depart="9">
        <walk edges="AB BC CD DE" departPos="0.0"/>
    </person>
    <person id="p9" depart="11">
        <walk edges="AB BC CD DE" departPos="0.0"/>
    </person>
    <person id="p10" depart="12">
        <walk edges="AB BC CD DE" departPos="0.0"/>
    </person>
    <person id="p11" depart="13">
        <walk edges="AB BC CD DE" departPos="0.0"/>
    </person>
    <person id="p12" depart="14">
        <walk edges="AB BC CD DE" departPos="0.0"/>
    </person>
    <person id="p13" depart="15">
        <walk edges="AB BC CD DE" departPos="0.0"/>
    </person>
    <person id="p14" depart="16">
        <walk edges="AB BC CD DE" departPos="0.0"/>
    </person>
    <person id="p15" depart="17">
        <walk edges="AB BC CD DE" departPos="0.0"/>
    </person>
    <person id="p16" depart="18">
        <walk edges="AB BC CD DE" departPos="0.0"/>
    </person>
    <person id="p17" depart="19">
        <walk edges="AB BC CD DE" departPos="0.0"/>
    </person>
    <person id="p18" depart="20">
        <walk edges="AB BC CD DE" departPos="0.0"/>
    </person>
    <person id="p19" depart="21">
        <walk edges="AB BC CD DE" departPos="0.0"/>
    </person>
    <person id="p20" depart="23">
        <walk edges="AB BC CD DE" departPos="0.0"/>
    </person>
    <person id="p21" depart="24">
        <walk edges="AB BC CD DE" departPos="0.0"/>
    </person>
    <person id="p22" depart="25">
        <walk edges="AB BC CD DE" departPos="0.0"/>
    </person>
    <person id="p23" depart="26">
        <walk edges="AB BC CD DE" departPos="0.0"/>
    </person>
    <person id="p24" depart="27">
        <walk edges="AB BC CD DE" departPos="0.0"/>
    </person>
    <person id="p25" depart="28">
        <walk edges="AB BC CD DE" departPos="0.0"/>
    </person>
    <person id="p26" depart="29">
        <walk edges="AB BC CD DE" departPos="0.0"/>
    </person>
    <person id="p27" depart="31">
        <walk edges="AB BC CD DE" departPos="0.0"/>
    </person>
    <person id="p28" depart="32">
        <walk edges="AB BC CD DE" departPos="0.0"/>
    </person>
    <person id="p29" depart="34">
        <walk edges="AB BC CD DE" departPos="0.0"/>
    </person>
    <person id="p30" depart="35">
        <walk edges="AB BC CD DE" departPos="0.0"/>
    </person>
    <person id="p31" depart="36">
        <walk edges="AB BC CD DE" departPos="0.0"/>
    </person>
    <person id="p32" depart="38">
        <walk edges="AB BC CD DE" departPos="0.0"/>
    </person>
    <person id="p33" depart="39">
        <walk edges="AB BC CD DE" departPos="0.0"/>
    </person>
    <person id="p34" depart="40">
        <walk edges="AB BC CD DE" departPos="0.0"/>
    </person>
    <person id="p35" depart="41">
        <walk edges="AB BC CD DE" departPos="0.0"/>
    </person>
    <person id="p36" depart="42">
        <walk edges="AB BC CD DE" departPos="0.0"/>
    </person>
    <person id="p37" depart="44">
        <walk edges="AB BC CD DE" departPos="0.0"/>
    </person>
    <person id="p38" depart="45">
        <walk edges="AB BC CD DE" departPos="0.0"/>
    </person>
    <person id="p39" depart="46">
        <walk edges="AB BC CD DE" departPos="0.0"/>
    </person>
    <person id="p40" depart="48">
        <walk edges="AB BC CD DE" departPos="0.0"/>
    </person>
    <person id="p41" depart="50">
        <walk edges="AB BC CD DE" departPos="0.0"/>
    </person>
    <person id="p42" depart="51">
        <walk edges="AB BC CD DE" departPos="0.0"/>
    </person>
    <person id="p43" depart="53">
        <walk edges="AB BC CD DE" departPos="0.0"/>
    </person>
    <person id="p44" depart="54">
        <walk edges="AB BC CD DE" departPos="0.0"/>
    </person>
    <person id="p45" depart="56">
        <walk edges="AB BC CD DE" departPos="0.0"/>
    </person>
    <person id="p46" depart="57">
        <walk edges="AB BC CD DE" departPos="0.0"/>
    </person>
    <person id="p47" depart="58">
        <walk edges="AB BC CD DE" departPos="0.0"/>
    </person>
    <person id="p48" depart="59">
        <walk edges="AB BC CD DE" departPos="0.0"/>
    </person>
    <person id="p49" depart="60">
        <walk edges="AB BC CD DE" departPos="0.0"/>
    </person>
    <person id="p50" depart="62">
        <walk edges="AB BC CD DE" departPos="0.0"/>
    </person>
    <person id="p51" depart="64">
        <walk edges="AB BC CD DE" departPos="0.0"/>
    </person>
    <person id="p52" depart="66">
        <walk edges="AB BC CD DE" departPos="0.0"/>
    </person>
    <person id="p53" depart="67">
        <walk edges="AB BC CD DE" departPos="0.0"/>
    </person>
    <person id="p54" depart="68">
        <walk edges="AB BC CD DE" departPos="0.0"/>
    </person>
    <person id="p55" depart="69">
        <walk edges="AB BC CD DE" departPos="0.0"/>
    </person>
    <person id="p56" depart="71">
        <walk edges="AB BC CD DE" departPos="0.0"/>
    </person>
    <person id="p57" depart="74">
        <walk edges="AB BC CD DE" departPos="0.0"/>
    </person>
    <person id="p58" depart="76">
        <walk edges="AB BC CD DE" departPos="0.0"/>
    </person>
    <person id="p59" depart="78">
        <walk edges="AB BC CD DE" departPos="0.0"/>
    </person>
    <person id="p60" depart="79">
        <walk edges="AB BC CD DE" departPos="0.0"/>
    </person>
    <person id="p61" depart="80">
        <walk edges="AB BC CD DE" departPos="0.0"/>
    </person>
    <person id="p62" depart="83">
        <walk edges="AB BC CD DE" departPos="0.0"/>
    </person>
    <person id="p63" depart="84">
        <walk edges="AB BC CD DE" departPos="0.0"/>
    </person>
    <person id="p64" depart="87">
        <walk edges="AB BC CD DE" departPos="0.0"/>
    </person>
    <person id="p65" depart="88">
        <walk edges="AB BC CD DE" departPos="0.0"/>
    </person>
    <person id="p66" depart="90">
        <walk edges="AB BC CD DE" departPos="0.0"/>
    </person>
    <person id="p67" depart="91">
        <walk edges="AB BC CD DE" departPos="0.0"/>
    </person>
    <person id="p68" depart="92">
        <walk edges="AB BC CD DE" departPos="0.0"/>
    </person>
    <person id="p69" depart="96">
        <walk edges="AB BC CD DE" departPos="0.0"/>
    </person>
    <person id="p70" depart="97">
        <walk edges="AB BC CD DE" departPos="0.0"/>
    </person>
    <person id="p71" depart="98">
        <walk edges="AB BC CD DE" departPos="0.0"/>
    </person>
    <person id="p72" depart="99">
        <walk edges="AB BC CD DE" departPos="0.0"/>
    </person>
    <person id="p73" depart="100">
        <walk edges="AB BC CD DE" departPos="0.0"/>
    </person>
    <person id="p74" depart="101">
        <walk edges="AB BC CD DE" departPos="0.0"/>
    </person>
    <person id="p75" depart="102">
        <walk edges="AB BC CD DE" departPos="0.0"/>
    </person>
    <person id="p76" depart="103">
        <walk edges="AB BC CD DE" departPos="0.0"/>
    </person>
    <person id="p77" depart="104">
        <walk edges="AB BC CD DE" departPos="0.0"/>
    </person>
    <person id="p78" depart="105">
        <walk edges="AB BC CD DE" departPos="0.0"/>
    </person>
    <person id="p79" depart="106">
        <walk edges="AB BC CD DE" departPos="0.0"/>
    </person>
    <person id="p80" depart="109">
        <walk edges="AB BC CD DE" departPos="0.0"/>
    </person>
    <person id="p81" depart="110">
        <walk edges="AB BC CD DE" departPos="0.0"/>
    </person>
    <person id="p82" depart="113">
        <walk edges="AB BC CD DE" departPos="0.0"/>
    </person>
    <person id="p83" depart="115">
        <walk edges="AB BC CD DE" departPos="0.0"/>
    </person>
    <person id="p84" depart="116">
        <walk edges="AB BC CD DE" departPos="0.0"/>
    </person>
    <person id="p85" depart="117">
        <walk edges="AB BC CD DE" departPos="0.0"/>
    </person>
    <person id="p86" depart="118">
        <walk edges="AB BC CD DE" departPos="0.0"/>
    </person>
    <person id="p87" depart="120">
        <walk edges="AB BC CD DE" departPos="0.0"/>
    </person>
    <person id="p88" depart="121">
        <walk edges="AB BC CD DE" departPos="0.0"/>
    </person>
    <person id="p89" depart="122">
        <walk edges="AB BC CD DE" departPos="0.0"/>
    </person>
    <person id="p90" depart="123">
        <walk edges="AB BC CD DE" departPos="0.0"/>
    </person>
    <person id="p91" depart="125">
        <walk edges="AB BC CD DE" departPos="0.0"/>
    </person>
    <person id="p92" depart="126">
        <walk edges="AB BC CD DE" departPos="0.0"/>
    </person>
    <person id="p93" depart="127">
        <walk edges="AB BC CD DE" departPos="0.0"/>
    </person>
    <person id="p94" depart="128">
        <walk edges="AB BC CD DE" departPos="0.0"/>
    </person>
    <person id="p95" depart="130">
        <walk edges="AB BC CD DE" departPos="0.0"/>
    </person>
    <person id="p96" depart="131">
        <walk edges="AB BC CD DE" departPos="0.0"/>
    </person>
    <person id="p97" depart="132">
        <walk edges="AB BC CD DE" departPos="0.0"/>
    </person>
    <person id="p98" depart="133">
        <walk edges="AB BC CD DE" departPos="0.0"/>
    </person>
    <person id="p99" depart="134">
        <walk edges="AB BC CD DE" departPos="0.0"/>
    </person>
    <person id="p100" depart="135">
        <walk edges="AB BC CD DE" departPos="0.0"/>
    </person>
    <person id="p101" depart="136">
        <walk edges="AB BC CD DE" departPos="0.0"/>
    </person>
    <person id="p102" depart="137">
        <walk edges="AB BC CD DE" departPos="0.0"/>
    </person>
    <person id="p103" depart="138">
        <walk edges="AB BC CD DE" departPos="0.0"/>
    </person>
    <person id="p104" depart="139">
        <walk edges="AB BC CD DE" departPos="0.0"/>
    </person>
    <person id="p105" depart="141">
        <walk edges="AB BC CD DE" departPos="0.0"/>
    </person>
    <person id="p106" depart="142">
        <walk edges="AB BC CD DE" departPos="0.0"/>
    </person>
    <person id="p107" depart="144">
        <walk edges="AB BC CD DE" departPos="0.0"/>
    </person>
    <person id="p108" depart="145">
        <walk edges="AB BC CD DE" departPos="0.0"/>
    </person>
    <person id="p109" depart="146">
        <walk edges="AB BC CD DE" departPos="0.0"/>
    </person>
    <person id="p110" depart="147">
        <walk edges="AB BC CD DE" departPos="0.0"/>
    </person>
    <person id="p111" depart="148">
        <walk edges="AB BC CD DE" departPos="0.0"/>
    </person>
    <person id="p112" depart="149">
        <walk edges="AB BC CD DE" departPos="0.0"/>
    </person>
    <person id="p113" depart="150">
        <walk edges="AB BC CD DE" departPos="0.0"/>
    </person>
    <person id="p114" depart="151">
        <walk edges="AB BC CD DE" departPos="0.0"/>
    </person>
    <person id="p115" depart="152">
        <walk edges="AB BC CD DE" departPos="0.0"/>
    </person>
    <person id="p116" depart="153">
        <walk edges="AB BC CD DE" departPos="0.0"/>
    </person>
    <person id="p117" depart="154">
        <walk edges="AB BC CD DE" departPos="0.0"/>
    </person>
    <person id="p118" depart="155">
        <walk edges="AB BC CD DE" departPos="0.0"/>
    </person>
    <person id="p119" depart="156">
        <walk edges="AB BC CD DE" departPos="0.0"/>
    </person>
    <person id="p120" depart="158">
        <walk edges="AB BC CD DE" departPos="0.0"/>
    </person>
    <person id="p121" depart="161">
        <walk edges="AB BC CD DE" departPos="0.0"/>
    </person>
    <person id="p122" depart="163">
        <walk edges="AB BC CD DE" departPos="0.0"/>
    </person>
    <person id="p123" depart="166">
        <walk edges="AB BC CD DE" departPos="0.0"/>
    </person>
    <person id="p124" depart="168">
        <walk edges="AB BC CD DE" departPos="0.0"/>
    </person>
    <person id="p125" depart="170">
        <walk edges="AB BC CD DE" departPos="0.0"/>
    </person>
    <person id="p126" depart="173">
        <walk edges="AB BC CD DE" departPos="0.0"/>
    </person>
    <person id="p127" depart="174">
        <walk edges="AB BC CD DE" departPos="0.0"/>
    </person>
    <person id="p128" depart="176">
        <walk edges="AB BC CD DE" departPos="0.0"/>
    </person>
    <person id="p129" depart="177">
        <walk edges="AB BC CD DE" departPos="0.0"/>
    </person>
    <person id="p130" depart="178">
        <walk edges="AB BC CD DE" departPos="0.0"/>
    </person>
    <person id="p131" depart="179">
        <walk edges="AB BC CD DE" departPos="0.0"/>
    </person>
    <person id="p132" depart="180">
        <walk edges="AB BC CD DE" departPos="0.0"/>
    </person>
    <person id="p133" depart="182">
        <walk edges="AB BC CD DE" departPos="0.0"/>
    </person>
    <person id="p134" depart="184">
        <walk edges="AB BC CD DE" departPos="0.0"/>
    </person>
    <person id="p135" depart="185">
        <walk edges="AB BC CD DE" departPos="0.0"/>
    </person>
    <person id="p136" depart="186">
        <walk edges="AB BC CD DE" departPos="0.0"/>
    </person>
    <person id="p137" depart="187">
        <walk edges="AB BC CD DE" departPos="0.0"/>
    </person>
    <person id="p138" depart="188">
        <walk edges="AB BC CD DE" departPos="0.0"/>
    </person>
    <person id="p139" depart="189">
        <walk edges="AB BC CD DE" departPos="0.0"/>
    </person>
    <person id="p140" depart="191">
        <walk edges="AB BC CD DE" departPos="0.0"/>
    </person>
    <person id="p141" depart="192">
        <walk edges="AB BC CD DE" departPos="0.0"/>
    </person>
    <person id="p142" depart="193">
        <walk edges="AB BC CD DE" departPos="0.0"/>
    </person>
    <person id="p143" depart="195">
        <walk edges="AB BC CD DE" departPos="0.0"/>
    </person>
    <person id="p144" depart="196">
        <walk edges="AB BC CD DE" departPos="0.0"/>
    </person>
    <person id="p145" depart="197">
        <walk edges="AB BC CD DE" departPos="0.0"/>
    </person>
    <person id="p146" depart="199">
        <walk edges="AB BC CD DE" departPos="0.0"/>
    </person>
    <person id="p147" depart="200">
        <walk edges="AB BC CD DE" departPos="0.0"/>
    </person>
    <person id="p148" depart="201">
        <walk edges="AB BC CD DE" departPos="0.0"/>
    </person>
    <person id="p149" depart="202">
        <walk edges="AB BC CD DE" departPos="0.0"/>
    </person>
    <person id="p150" depart="203">
        <walk edges="AB BC CD DE" departPos="0.0"/>
    </person>
    <person id="p151" depart="204">
        <walk edges="AB BC CD DE" departPos="0.0"/>
    </person>
    <person id="p152" depart="205">
        <walk edges="AB BC CD DE" departPos="0.0"/>
    </person>
    <person id="p153" depart="206">
        <walk edges="AB BC CD DE" departPos="0.0"/>
    </person>
    <person id="p154" depart="207">
        <walk edges="AB BC CD DE" departPos="0.0"/>
    </person>
    <person id="p155" depart="208">
        <walk edges="AB BC CD DE" departPos="0.0"/>
    </person>
    <person id="p156" depart="209">
        <walk edges="AB BC CD DE" departPos="0.0"/>
    </person>
    <person id="p157" depart="210">
        <walk edges="AB BC CD DE" departPos="0.0"/>
    </person>
    <person id="p158" depart="211">
        <walk edges="AB BC CD DE" departPos="0.0"/>
    </person>
    <person id="p159" depart="213">
        <walk edges="AB BC CD DE" departPos="0.0"/>
    </person>
    <person id="p160" depart="214">
        <walk edges="AB BC CD DE" departPos="0.0"/>
    </person>
    <person id="p161" depart="215">
        <walk edges="AB BC CD DE" departPos="0.0"/>
    </person>
    <person id="p162" depart="216">
        <walk edges="AB BC CD DE" departPos="0.0"/>
    </person>
    <person id="p163" depart="217">
        <walk edges="AB BC CD DE" departPos="0.0"/>
    </person>
    <person id="p164" depart="220">
        <walk edges="AB BC CD DE" departPos="0.0"/>
    </person>
    <person id="p165" depart="223">
        <walk edges="AB BC CD DE" departPos="0.0"/>
    </person>
    <person id="p166" depart="224">
        <walk edges="AB BC CD DE" departPos="0.0"/>
    </person>
    <person id="p167" depart="225">
        <walk edges="AB BC CD DE" departPos="0.0"/>
    </person>
    <person id="p168" depart="226">
        <walk edges="AB BC CD DE" departPos="0.0"/>
    </person>
    <person id="p169" depart="228">
        <walk edges="AB BC CD DE" departPos="0.0"/>
    </person>
    <person id="p170" depart="229">
        <walk edges="AB BC CD DE" departPos="0.0"/>
    </person>
    <person id="p171" depart="230">
        <walk edges="AB BC CD DE" departPos="0.0"/>
    </person>
    <person id="p172" depart="234">
        <walk edges="AB BC CD DE" departPos="0.0"/>
    </person>
    <person id="p173" depart="238">
        <walk edges="AB BC CD DE" departPos="0.0"/>
    </person>
    <person id="p174" depart="239">
        <walk edges="AB BC CD DE" departPos="0.0"/>
    </person>
    <person id="p175" depart="240">
        <walk edges="AB BC CD DE" departPos="0.0"/>
    </person>
    <person id="p176" depart="242">
        <walk edges="AB BC CD DE" departPos="0.0"/>
    </person>
    <person id="p177" depart="243">
        <walk edges="AB BC CD DE" departPos="0.0"/>
    </person>
    <person id="p178" depart="244">
        <walk edges="AB BC CD DE" departPos="0.0"/>
    </person>
    <person id="p179" depart="245">
        <walk edges="AB BC CD DE" departPos="0.0"/>
    </person>
    <person id="p180" depart="248">
        <walk edges="AB BC CD DE" departPos="0.0"/>
    </person>
    <person id="p181" depart="249">
        <walk edges="AB BC CD DE" departPos="0.0"/>
    </person>
    <person id="p182" depart="251">
        <walk edges="AB BC CD DE" departPos="0.0"/>
    </person>
    <person id="p183" depart="252">
        <walk edges="AB BC CD DE" departPos="0.0"/>
    </person>
    <person id="p184" depart="254">
        <walk edges="AB BC CD DE" departPos="0.0"/>
    </person>
    <person id="p185" depart="257">
        <walk edges="AB BC CD DE" departPos="0.0"/>
    </person>
    <person id="p186" depart="258">
        <walk edges="AB BC CD DE" departPos="0.0"/>
    </person>
    <person id="p187" depart="259">
        <walk edges="AB BC CD DE" departPos="0.0"/>
    </person>
    <person id="p188" depart="260">
        <walk edges="AB BC CD DE" departPos="0.0"/>
    </person>
    <person id="p189" depart="263">
        <walk edges="AB BC CD DE" departPos="0.0"/>
    </person>
    <person id="p190" depart="264">
        <walk edges="AB BC CD DE" departPos="0.0"/>
    </person>
    <person id="p191" depart="267">
        <walk edges="AB BC CD DE" departPos="0.0"/>
    </person>
    <person id="p192" depart="268">
        <walk edges="AB BC CD DE" departPos="0.0"/>
    </person>
    <person id="p193" depart="272">
        <walk edges="AB BC CD DE" departPos="0.0"/>
    </person>
    <person id="p194" depart="273">
        <walk edges="AB BC CD DE" departPos="0.0"/>
    </person>
    <person id="p195" depart="276">
        <walk edges="AB BC CD DE" departPos="0.0"/>
    </person>
    <person id="p196" depart="279">
        <walk edges="AB BC CD DE" departPos="0.0"/>
    </person>
    <person id="p197" depart="281">
        <walk edges="AB BC CD DE" departPos="0.0"/>
    </person>
    <person id="p198" depart="283">
        <walk edges="AB BC CD DE" departPos="0.0"/>
    </person>
    <person id="p199" depart="284">
        <walk edges="AB BC CD DE" departPos="0.0"/>
    </person>
    <person id="p200" depart="285">
        <walk edges="AB BC CD DE" departPos="0.0"/>
    </person>
    <person id="p201" depart="288">
        <walk edges="AB BC CD DE" departPos="0.0"/>
    </person>
    <person id="p202" depart="289">
        <walk edges="AB BC CD DE" departPos="0.0"/>
    </person>
    <person id="p203" depart="291">
        <walk edges="AB BC CD DE" departPos="0.0"/>
    </person>
    <person id="p204" depart="293">
        <walk edges="AB BC CD DE" departPos="0.0"/>
    </person>
    <person id="p205" depart="294">
        <walk edges="AB BC CD DE" departPos="0.0"/>
    </person>
    <person id="p206" depart="295">
        <walk edges="AB BC CD DE" departPos="0.0"/>
    </person>
    <person id="p207" depart="296">
        <walk edges="AB BC CD DE" departPos="0.0"/>
    </person>
    <person id="p208" depart="297">
        <walk edges="AB BC CD DE" departPos="0.0"/>
    </person>
    <person id="p209" depart="299">
        <walk edges="AB BC CD DE" departPos="0.0"/>
    </person>
</routes>
