<?xml version="1.0" encoding="UTF-8"?>
<connections version="1.3" xmlns:xsi="http://www.w3.org/2001/XMLSchema-instance" xsi:noNamespaceSchemaLocation="http://sumo.dlr.de/xsd/connections_file.xsd">
    <connection from="gneE6" to="-gneE3" fromLane="1" toLane="1" pass="1"/>
</connections>
