<?xml version="1.0" encoding="UTF-8"?>

<!-- generated on 2022-03-07 09:54:05 by Eclipse SUMO netedit Version v1_12_0+1177-f6b46b7e4a3
-->

<routes xmlns:xsi="http://www.w3.org/2001/XMLSchema-instance" xsi:noNamespaceSchemaLocation="http://sumo.dlr.de/xsd/routes_file.xsd">
    <!-- Vehicles, persons and containers (sorted by depart) -->
    <trip id="trip_0" depart="0.00" from="gneE0" to="gneE1">
        <stop containerStop="containerStop" speed="10.00"/>
    </trip>
</routes>
