<?xml version="1.0" encoding="UTF-8"?>

<!-- generated on 2023-11-07 13:17:06 by Eclipse SUMO netedit Version 1.19.0
-->

<routes xmlns:xsi="http://www.w3.org/2001/XMLSchema-instance" xsi:noNamespaceSchemaLocation="http://sumo.dlr.de/xsd/routes_file.xsd">
    <!-- Vehicles, persons and containers (sorted by depart) -->
    <container id="c_0" depart="7.30">
        <tranship from="Edge0" containerStop="containerStopA"/>
    </container>
</routes>
