<?xml version="1.0"?>

<!-- generated on 11/16/09 11:40:38 by SUMO sumo Version dev-SVN-r7969
<configuration>

    <input>
        <net-file value="net.net.xml"/>
        <additional-files value="input_routes.rou.xml,input_additional.add.xml,input_additional2.add.xml"/>
    </input>

    <time>
        <begin value="0"/>
        <end value="150"/>
    </time>

    <report>
        <no-duration-log value="true"/>
        <no-step-log value="true"/>
    </report>

</configuration>
-->

<netstats>
   <interval begin="0" end="15" id="dump_15">
      <edge id="4/1to3/1">
         <lane id="4/1to3/1_0" sampledSeconds="23" CO_abs="0" CO2_abs="3.9e+004" HC_abs="6.8" PMx_abs="2.3" NOx_abs="61" fuel_abs="15"
            CO_normed="0" CO2_normed="2.4e+004" HC_normed="4.2" PMx_normed="1.4" NOx_normed="38" fuel_normed="9.5"
            CO_perVeh="0" CO2_perVeh="66" HC_perVeh="0.011" PMx_perVeh="0.0038" NOx_perVeh="0.1" fuel_perVeh="0.026"/>
      </edge>
   </interval>
</netstats>
