<?xml version="1.0" encoding="UTF-8"?>

<!-- generated on 2021-11-16 09:47:08 by Eclipse SUMO netedit Version v1_10_0+2302-18d2c1dce6e
-->

<additional xmlns:xsi="http://www.w3.org/2001/XMLSchema-instance" xsi:noNamespaceSchemaLocation="http://sumo.dlr.de/xsd/additional_file.xsd">
    <routeProbe id="routeProbe_01" begin="0.00" freq="100.00" edge="gneE1" file="fileA.txt">
        <param key="keyFinal1" value="value1"/>
        <param key="keyFinal2" value="value2"/>
        <param key="keyFinal3" value="value3"/>
    </routeProbe>
    <routeProbe id="routeProbe_02" begin="3.00" freq="120.00" edge="gneE1" file="fileB.txt">
        <param key="keyFinal1" value="value1"/>
        <param key="keyFinal2" value="value2"/>
        <param key="keyFinal3" value="value3"/>
    </routeProbe>
</additional>
