<?xml version="1.0" encoding="UTF-8"?>

<!-- generated on Mon Dec 14 11:32:57 2020 by Eclipse SUMO netconvert Version v1_8_0+0240-6f1f621077
This data file and the accompanying materials
are made available under the terms of the Eclipse Public License v2.0
which accompanies this distribution, and is available at
http://www.eclipse.org/legal/epl-v20.html
SPDX-License-Identifier: EPL-2.0
<configuration xmlns:xsi="http://www.w3.org/2001/XMLSchema-instance" xsi:noNamespaceSchemaLocation="http://sumo.dlr.de/xsd/netconvertConfiguration.xsd">

    <input>
        <node-files value="input_plain.nod.xml"/>
        <edge-files value="input_plain.edg.xml"/>
    </input>

    <output>
        <write-license value="true"/>
        <plain-output-prefix value="plain"/>
    </output>

    <junctions>
        <no-turnarounds value="true"/>
    </junctions>

    <pedestrian>
        <crossings.guess value="true"/>
    </pedestrian>

    <report>
        <xml-validation value="never"/>
        <aggregate-warnings value="5"/>
    </report>

</configuration>
-->

<nodes version="1.16" xmlns:xsi="http://www.w3.org/2001/XMLSchema-instance" xsi:noNamespaceSchemaLocation="http://sumo.dlr.de/xsd/nodes_file.xsd">
    <location netOffset="200.00,103.00" convBoundary="0.00,0.00,200.00,7.00" origBoundary="-10000000000.00,-10000000000.00,10000000000.00,10000000000.00" projParameter="!"/>

    <node id="gneJ0" x="0.00" y="3.00" type="dead_end"/>
    <node id="gneJ1" x="100.00" y="3.00" type="priority"/>
    <node id="gneJ3" x="200.00" y="7.00" type="dead_end"/>
    <node id="gneJ4" x="200.00" y="0.00" type="dead_end"/>
</nodes>
