<?xml version="1.0" encoding="UTF-8"?>

<!-- generated on 2024-09-25 13:36:24 by Eclipse SUMO sumo Version v1_20_0+0593-8dcc4e49145
This data file and the accompanying materials
are made available under the terms of the Eclipse Public License v2.0
which accompanies this distribution, and is available at
http://www.eclipse.org/legal/epl-v20.html
This file may also be made available under the following Secondary
Licenses when the conditions for such availability set forth in the Eclipse
Public License 2.0 are satisfied: GNU General Public License, version 2
or later which is available at
https://www.gnu.org/licenses/old-licenses/gpl-2.0-standalone.html
SPDX-License-Identifier: EPL-2.0 OR GPL-2.0-or-later
<configuration xmlns:xsi="http://www.w3.org/2001/XMLSchema-instance" xsi:noNamespaceSchemaLocation="http://sumo.dlr.de/xsd/sumoConfiguration.xsd">

    <input>
        <net-file value="net.net.xml"/>
        <route-files value="input_routes.rou.xml"/>
        <additional-files value="input_additional.add.xml"/>
    </input>

    <output>
        <write-license value="true"/>
        <tripinfo-output value="tripinfos.xml"/>
        <railsignal-block-output value="railsignal_blocks.xml"/>
    </output>

    <time>
        <end value="200"/>
    </time>

    <processing>
        <default.speeddev value="0"/>
    </processing>

    <report>
        <xml-validation value="never"/>
        <duration-log.disable value="true"/>
        <no-step-log value="true"/>
    </report>

</configuration>
-->

<railsignal-block-output>
    <railSignal id="gneJ2">
        <link linkIndex="0" from="gneE9_0" to="gneE2_0">
            <driveWay id="gneJ2.2" vehicle="rail3" edges="gneE2 gneE3">
                <forward lanes="gneE2_0 gneE3_0"/>
                <bidi lanes=""/>
                <flank lanes=""/>
                <conflictLinks signals="gneJ2_1 gneJ2_2"/>
                <foes driveWays="gneJ2.0 gneJ2.1 gneJ2.2"/>
            </driveWay>
        </link>
        <link linkIndex="1" from="gneE1_0" to="gneE2_0">
            <driveWay id="gneJ2.0" vehicle="rail1" edges="gneE2 gneE3">
                <forward lanes="gneE2_0 gneE3_0"/>
                <bidi lanes=""/>
                <flank lanes=""/>
                <conflictLinks signals="gneJ2_0 gneJ2_2"/>
                <foes driveWays="gneJ2.0 gneJ2.1 gneJ2.2"/>
            </driveWay>
        </link>
        <link linkIndex="2" from="gneE7_0" to="gneE2_0">
            <driveWay id="gneJ2.1" vehicle="rail2" edges="gneE2 gneE3">
                <forward lanes="gneE2_0 gneE3_0"/>
                <bidi lanes=""/>
                <flank lanes=""/>
                <conflictLinks signals="gneJ2_0 gneJ2_1"/>
                <foes driveWays="gneJ2.0 gneJ2.1 gneJ2.2"/>
            </driveWay>
        </link>
    </railSignal>
    <departJunction id="gneJ0">
        <driveWay id="gneJ0.d0" vehicle="rail1" edges="gneE0 gneE1">
            <forward lanes="gneE0_0 gneE1_0"/>
            <bidi lanes=""/>
            <flank lanes=""/>
            <conflictLinks signals=""/>
            <foes driveWays="gneJ0.d0"/>
        </driveWay>
    </departJunction>
    <departJunction id="gneJ8">
        <driveWay id="gneJ8.d1" vehicle="rail2" edges="gneE6 gneE7">
            <forward lanes="gneE6_0 gneE7_0"/>
            <bidi lanes=""/>
            <flank lanes=""/>
            <conflictLinks signals=""/>
            <foes driveWays="gneJ8.d1"/>
        </driveWay>
    </departJunction>
    <departJunction id="gneJ10">
        <driveWay id="gneJ10.d2" vehicle="rail3" edges="gneE8 gneE9">
            <forward lanes="gneE8_0 gneE9_0"/>
            <bidi lanes=""/>
            <flank lanes=""/>
            <conflictLinks signals=""/>
            <foes driveWays="gneJ10.d2"/>
        </driveWay>
    </departJunction>
</railsignal-block-output>
