<?xml version="1.0" encoding="UTF-8"?>

<!-- generated on Mon Aug 19 14:16:21 2019 by Eclipse SUMO Version v1_2_0+1650-ca2c95c
This data file and the accompanying materials
are made available under the terms of the Eclipse Public License v2.0
which accompanies this distribution, and is available at
http://www.eclipse.org/legal/epl-v20.html
SPDX-License-Identifier: EPL-2.0
<configuration xmlns:xsi="http://www.w3.org/2001/XMLSchema-instance" xsi:noNamespaceSchemaLocation="http://sumo.dlr.de/xsd/sumoConfiguration.xsd">

    <input>
        <net-file value="net.net.xml"/>
        <route-files value="input_routes.rou.xml"/>
        <additional-files value="input_additional.add.xml"/>
    </input>

    <output>
        <write-license value="true"/>
        <tripinfo-output value="tripinfos.xml"/>
        <railsignal-block-output value="railsignal_blocks.xml"/>
    </output>

    <time>
        <end value="200"/>
    </time>

    <processing>
        <default.speeddev value="0"/>
    </processing>

    <report>
        <xml-validation value="never"/>
        <duration-log.disable value="true"/>
        <no-step-log value="true"/>
    </report>

</configuration>
-->

<tlsStates xmlns:xsi="http://www.w3.org/2001/XMLSchema-instance" xsi:noNamespaceSchemaLocation="http://sumo.dlr.de/xsd/tlsstates_file.xsd">
    <tlsState time="0.00" id="gneJ2" programID="0" phase="1" state="GGG"/>
    <tlsState time="1.00" id="gneJ2" programID="0" phase="1" state="GGG"/>
    <tlsState time="2.00" id="gneJ2" programID="0" phase="0" state="rGr"/>
    <tlsState time="3.00" id="gneJ2" programID="0" phase="0" state="rGr"/>
    <tlsState time="4.00" id="gneJ2" programID="0" phase="0" state="rGr"/>
    <tlsState time="5.00" id="gneJ2" programID="0" phase="0" state="rGr"/>
    <tlsState time="6.00" id="gneJ2" programID="0" phase="0" state="rGr"/>
    <tlsState time="7.00" id="gneJ2" programID="0" phase="0" state="rGr"/>
    <tlsState time="8.00" id="gneJ2" programID="0" phase="0" state="rGr"/>
    <tlsState time="9.00" id="gneJ2" programID="0" phase="0" state="rGr"/>
    <tlsState time="10.00" id="gneJ2" programID="0" phase="0" state="rGr"/>
    <tlsState time="11.00" id="gneJ2" programID="0" phase="0" state="rGr"/>
    <tlsState time="12.00" id="gneJ2" programID="0" phase="0" state="rGr"/>
    <tlsState time="13.00" id="gneJ2" programID="0" phase="0" state="rGr"/>
    <tlsState time="14.00" id="gneJ2" programID="0" phase="0" state="rGr"/>
    <tlsState time="15.00" id="gneJ2" programID="0" phase="0" state="rGr"/>
    <tlsState time="16.00" id="gneJ2" programID="0" phase="0" state="rGr"/>
    <tlsState time="17.00" id="gneJ2" programID="0" phase="0" state="rGr"/>
    <tlsState time="18.00" id="gneJ2" programID="0" phase="0" state="rGr"/>
    <tlsState time="19.00" id="gneJ2" programID="0" phase="0" state="rGr"/>
    <tlsState time="20.00" id="gneJ2" programID="0" phase="0" state="rGr"/>
    <tlsState time="21.00" id="gneJ2" programID="0" phase="0" state="rGr"/>
    <tlsState time="22.00" id="gneJ2" programID="0" phase="0" state="rGr"/>
    <tlsState time="23.00" id="gneJ2" programID="0" phase="0" state="rGr"/>
    <tlsState time="24.00" id="gneJ2" programID="0" phase="0" state="rGr"/>
    <tlsState time="25.00" id="gneJ2" programID="0" phase="0" state="rGr"/>
    <tlsState time="26.00" id="gneJ2" programID="0" phase="0" state="rGr"/>
    <tlsState time="27.00" id="gneJ2" programID="0" phase="0" state="rGr"/>
    <tlsState time="28.00" id="gneJ2" programID="0" phase="0" state="rGr"/>
    <tlsState time="29.00" id="gneJ2" programID="0" phase="0" state="rGr"/>
    <tlsState time="30.00" id="gneJ2" programID="0" phase="0" state="rGr"/>
    <tlsState time="31.00" id="gneJ2" programID="0" phase="0" state="rGr"/>
    <tlsState time="32.00" id="gneJ2" programID="0" phase="0" state="rGr"/>
    <tlsState time="33.00" id="gneJ2" programID="0" phase="0" state="rGr"/>
    <tlsState time="34.00" id="gneJ2" programID="0" phase="0" state="rGr"/>
    <tlsState time="35.00" id="gneJ2" programID="0" phase="0" state="rGr"/>
    <tlsState time="36.00" id="gneJ2" programID="0" phase="0" state="rGr"/>
    <tlsState time="37.00" id="gneJ2" programID="0" phase="0" state="rGr"/>
    <tlsState time="38.00" id="gneJ2" programID="0" phase="0" state="rGr"/>
    <tlsState time="39.00" id="gneJ2" programID="0" phase="0" state="rGr"/>
    <tlsState time="40.00" id="gneJ2" programID="0" phase="0" state="rGr"/>
    <tlsState time="41.00" id="gneJ2" programID="0" phase="0" state="rGr"/>
    <tlsState time="42.00" id="gneJ2" programID="0" phase="1" state="rrr"/>
    <tlsState time="43.00" id="gneJ2" programID="0" phase="1" state="rrr"/>
    <tlsState time="44.00" id="gneJ2" programID="0" phase="1" state="rrr"/>
    <tlsState time="45.00" id="gneJ2" programID="0" phase="1" state="rrr"/>
    <tlsState time="46.00" id="gneJ2" programID="0" phase="1" state="rrr"/>
    <tlsState time="47.00" id="gneJ2" programID="0" phase="1" state="rrr"/>
    <tlsState time="48.00" id="gneJ2" programID="0" phase="1" state="rrr"/>
    <tlsState time="49.00" id="gneJ2" programID="0" phase="1" state="rrr"/>
    <tlsState time="50.00" id="gneJ2" programID="0" phase="1" state="rrr"/>
    <tlsState time="51.00" id="gneJ2" programID="0" phase="1" state="rrr"/>
    <tlsState time="52.00" id="gneJ2" programID="0" phase="1" state="rrr"/>
    <tlsState time="53.00" id="gneJ2" programID="0" phase="1" state="rrr"/>
    <tlsState time="54.00" id="gneJ2" programID="0" phase="1" state="rrr"/>
    <tlsState time="55.00" id="gneJ2" programID="0" phase="1" state="rrr"/>
    <tlsState time="56.00" id="gneJ2" programID="0" phase="1" state="rrr"/>
    <tlsState time="57.00" id="gneJ2" programID="0" phase="1" state="rrr"/>
    <tlsState time="58.00" id="gneJ2" programID="0" phase="1" state="rrr"/>
    <tlsState time="59.00" id="gneJ2" programID="0" phase="1" state="rrr"/>
    <tlsState time="60.00" id="gneJ2" programID="0" phase="1" state="rrr"/>
    <tlsState time="61.00" id="gneJ2" programID="0" phase="1" state="rrr"/>
    <tlsState time="62.00" id="gneJ2" programID="0" phase="1" state="rrr"/>
    <tlsState time="63.00" id="gneJ2" programID="0" phase="1" state="rrr"/>
    <tlsState time="64.00" id="gneJ2" programID="0" phase="1" state="rrr"/>
    <tlsState time="65.00" id="gneJ2" programID="0" phase="1" state="rrr"/>
    <tlsState time="66.00" id="gneJ2" programID="0" phase="1" state="rrr"/>
    <tlsState time="67.00" id="gneJ2" programID="0" phase="1" state="rrr"/>
    <tlsState time="68.00" id="gneJ2" programID="0" phase="1" state="rrr"/>
    <tlsState time="69.00" id="gneJ2" programID="0" phase="1" state="rrr"/>
    <tlsState time="70.00" id="gneJ2" programID="0" phase="0" state="rrG"/>
    <tlsState time="71.00" id="gneJ2" programID="0" phase="0" state="rrG"/>
    <tlsState time="72.00" id="gneJ2" programID="0" phase="0" state="rrG"/>
    <tlsState time="73.00" id="gneJ2" programID="0" phase="1" state="rrr"/>
    <tlsState time="74.00" id="gneJ2" programID="0" phase="1" state="rrr"/>
    <tlsState time="75.00" id="gneJ2" programID="0" phase="1" state="rrr"/>
    <tlsState time="76.00" id="gneJ2" programID="0" phase="1" state="rrr"/>
    <tlsState time="77.00" id="gneJ2" programID="0" phase="1" state="rrr"/>
    <tlsState time="78.00" id="gneJ2" programID="0" phase="1" state="rrr"/>
    <tlsState time="79.00" id="gneJ2" programID="0" phase="1" state="rrr"/>
    <tlsState time="80.00" id="gneJ2" programID="0" phase="1" state="rrr"/>
    <tlsState time="81.00" id="gneJ2" programID="0" phase="1" state="rrr"/>
    <tlsState time="82.00" id="gneJ2" programID="0" phase="1" state="rrr"/>
    <tlsState time="83.00" id="gneJ2" programID="0" phase="1" state="rrr"/>
    <tlsState time="84.00" id="gneJ2" programID="0" phase="1" state="rrr"/>
    <tlsState time="85.00" id="gneJ2" programID="0" phase="1" state="rrr"/>
    <tlsState time="86.00" id="gneJ2" programID="0" phase="1" state="rrr"/>
    <tlsState time="87.00" id="gneJ2" programID="0" phase="1" state="rrr"/>
    <tlsState time="88.00" id="gneJ2" programID="0" phase="1" state="rrr"/>
    <tlsState time="89.00" id="gneJ2" programID="0" phase="1" state="rrr"/>
    <tlsState time="90.00" id="gneJ2" programID="0" phase="1" state="rrr"/>
    <tlsState time="91.00" id="gneJ2" programID="0" phase="1" state="rrr"/>
    <tlsState time="92.00" id="gneJ2" programID="0" phase="1" state="rrr"/>
    <tlsState time="93.00" id="gneJ2" programID="0" phase="1" state="rrr"/>
    <tlsState time="94.00" id="gneJ2" programID="0" phase="1" state="rrr"/>
    <tlsState time="95.00" id="gneJ2" programID="0" phase="1" state="rrr"/>
    <tlsState time="96.00" id="gneJ2" programID="0" phase="1" state="rrr"/>
    <tlsState time="97.00" id="gneJ2" programID="0" phase="1" state="rrr"/>
    <tlsState time="98.00" id="gneJ2" programID="0" phase="1" state="rrr"/>
    <tlsState time="99.00" id="gneJ2" programID="0" phase="1" state="rrr"/>
    <tlsState time="100.00" id="gneJ2" programID="0" phase="1" state="rrr"/>
    <tlsState time="101.00" id="gneJ2" programID="0" phase="1" state="rrr"/>
    <tlsState time="102.00" id="gneJ2" programID="0" phase="1" state="rrr"/>
    <tlsState time="103.00" id="gneJ2" programID="0" phase="1" state="rrr"/>
    <tlsState time="104.00" id="gneJ2" programID="0" phase="1" state="rrr"/>
    <tlsState time="105.00" id="gneJ2" programID="0" phase="1" state="rrr"/>
    <tlsState time="106.00" id="gneJ2" programID="0" phase="1" state="rrr"/>
    <tlsState time="107.00" id="gneJ2" programID="0" phase="1" state="rrr"/>
    <tlsState time="108.00" id="gneJ2" programID="0" phase="1" state="rrr"/>
    <tlsState time="109.00" id="gneJ2" programID="0" phase="1" state="rrr"/>
    <tlsState time="110.00" id="gneJ2" programID="0" phase="1" state="rrr"/>
    <tlsState time="111.00" id="gneJ2" programID="0" phase="1" state="rrr"/>
    <tlsState time="112.00" id="gneJ2" programID="0" phase="1" state="rrr"/>
    <tlsState time="113.00" id="gneJ2" programID="0" phase="1" state="rrr"/>
    <tlsState time="114.00" id="gneJ2" programID="0" phase="1" state="rrr"/>
    <tlsState time="115.00" id="gneJ2" programID="0" phase="1" state="rrr"/>
    <tlsState time="116.00" id="gneJ2" programID="0" phase="1" state="rrr"/>
    <tlsState time="117.00" id="gneJ2" programID="0" phase="1" state="rrr"/>
    <tlsState time="118.00" id="gneJ2" programID="0" phase="1" state="rrr"/>
    <tlsState time="119.00" id="gneJ2" programID="0" phase="1" state="rrr"/>
    <tlsState time="120.00" id="gneJ2" programID="0" phase="1" state="rrr"/>
    <tlsState time="121.00" id="gneJ2" programID="0" phase="1" state="rrr"/>
    <tlsState time="122.00" id="gneJ2" programID="0" phase="1" state="rrr"/>
    <tlsState time="123.00" id="gneJ2" programID="0" phase="0" state="Grr"/>
    <tlsState time="124.00" id="gneJ2" programID="0" phase="0" state="Grr"/>
    <tlsState time="125.00" id="gneJ2" programID="0" phase="0" state="Grr"/>
    <tlsState time="126.00" id="gneJ2" programID="0" phase="1" state="rrr"/>
    <tlsState time="127.00" id="gneJ2" programID="0" phase="1" state="rrr"/>
    <tlsState time="128.00" id="gneJ2" programID="0" phase="1" state="rrr"/>
    <tlsState time="129.00" id="gneJ2" programID="0" phase="1" state="rrr"/>
    <tlsState time="130.00" id="gneJ2" programID="0" phase="1" state="rrr"/>
    <tlsState time="131.00" id="gneJ2" programID="0" phase="1" state="rrr"/>
    <tlsState time="132.00" id="gneJ2" programID="0" phase="1" state="rrr"/>
    <tlsState time="133.00" id="gneJ2" programID="0" phase="1" state="rrr"/>
    <tlsState time="134.00" id="gneJ2" programID="0" phase="1" state="rrr"/>
    <tlsState time="135.00" id="gneJ2" programID="0" phase="1" state="rrr"/>
    <tlsState time="136.00" id="gneJ2" programID="0" phase="1" state="rrr"/>
    <tlsState time="137.00" id="gneJ2" programID="0" phase="1" state="rrr"/>
    <tlsState time="138.00" id="gneJ2" programID="0" phase="1" state="rrr"/>
    <tlsState time="139.00" id="gneJ2" programID="0" phase="1" state="rrr"/>
    <tlsState time="140.00" id="gneJ2" programID="0" phase="1" state="rrr"/>
    <tlsState time="141.00" id="gneJ2" programID="0" phase="1" state="rrr"/>
    <tlsState time="142.00" id="gneJ2" programID="0" phase="1" state="rrr"/>
    <tlsState time="143.00" id="gneJ2" programID="0" phase="1" state="rrr"/>
    <tlsState time="144.00" id="gneJ2" programID="0" phase="1" state="rrr"/>
    <tlsState time="145.00" id="gneJ2" programID="0" phase="1" state="rrr"/>
    <tlsState time="146.00" id="gneJ2" programID="0" phase="1" state="rrr"/>
    <tlsState time="147.00" id="gneJ2" programID="0" phase="1" state="rrr"/>
    <tlsState time="148.00" id="gneJ2" programID="0" phase="1" state="rrr"/>
    <tlsState time="149.00" id="gneJ2" programID="0" phase="1" state="rrr"/>
    <tlsState time="150.00" id="gneJ2" programID="0" phase="1" state="rrr"/>
    <tlsState time="151.00" id="gneJ2" programID="0" phase="1" state="rrr"/>
    <tlsState time="152.00" id="gneJ2" programID="0" phase="1" state="rrr"/>
    <tlsState time="153.00" id="gneJ2" programID="0" phase="1" state="rrr"/>
    <tlsState time="154.00" id="gneJ2" programID="0" phase="1" state="rrr"/>
    <tlsState time="155.00" id="gneJ2" programID="0" phase="1" state="rrr"/>
    <tlsState time="156.00" id="gneJ2" programID="0" phase="1" state="rrr"/>
    <tlsState time="157.00" id="gneJ2" programID="0" phase="1" state="rrr"/>
    <tlsState time="158.00" id="gneJ2" programID="0" phase="1" state="rrr"/>
    <tlsState time="159.00" id="gneJ2" programID="0" phase="1" state="rrr"/>
    <tlsState time="160.00" id="gneJ2" programID="0" phase="1" state="rrr"/>
    <tlsState time="161.00" id="gneJ2" programID="0" phase="1" state="rrr"/>
    <tlsState time="162.00" id="gneJ2" programID="0" phase="1" state="rrr"/>
    <tlsState time="163.00" id="gneJ2" programID="0" phase="1" state="rrr"/>
    <tlsState time="164.00" id="gneJ2" programID="0" phase="1" state="rrr"/>
    <tlsState time="165.00" id="gneJ2" programID="0" phase="1" state="rrr"/>
    <tlsState time="166.00" id="gneJ2" programID="0" phase="1" state="rrr"/>
    <tlsState time="167.00" id="gneJ2" programID="0" phase="1" state="rrr"/>
    <tlsState time="168.00" id="gneJ2" programID="0" phase="1" state="rrr"/>
    <tlsState time="169.00" id="gneJ2" programID="0" phase="1" state="rrr"/>
    <tlsState time="170.00" id="gneJ2" programID="0" phase="1" state="rrr"/>
    <tlsState time="171.00" id="gneJ2" programID="0" phase="1" state="rrr"/>
    <tlsState time="172.00" id="gneJ2" programID="0" phase="1" state="rrr"/>
    <tlsState time="173.00" id="gneJ2" programID="0" phase="1" state="rrr"/>
    <tlsState time="174.00" id="gneJ2" programID="0" phase="1" state="rrr"/>
    <tlsState time="175.00" id="gneJ2" programID="0" phase="1" state="rrr"/>
    <tlsState time="176.00" id="gneJ2" programID="0" phase="0" state="GGG"/>
    <tlsState time="177.00" id="gneJ2" programID="0" phase="0" state="GGG"/>
    <tlsState time="178.00" id="gneJ2" programID="0" phase="0" state="GGG"/>
    <tlsState time="179.00" id="gneJ2" programID="0" phase="0" state="GGG"/>
    <tlsState time="180.00" id="gneJ2" programID="0" phase="0" state="GGG"/>
    <tlsState time="181.00" id="gneJ2" programID="0" phase="0" state="GGG"/>
    <tlsState time="182.00" id="gneJ2" programID="0" phase="0" state="GGG"/>
    <tlsState time="183.00" id="gneJ2" programID="0" phase="0" state="GGG"/>
    <tlsState time="184.00" id="gneJ2" programID="0" phase="0" state="GGG"/>
    <tlsState time="185.00" id="gneJ2" programID="0" phase="0" state="GGG"/>
    <tlsState time="186.00" id="gneJ2" programID="0" phase="0" state="GGG"/>
    <tlsState time="187.00" id="gneJ2" programID="0" phase="0" state="GGG"/>
    <tlsState time="188.00" id="gneJ2" programID="0" phase="0" state="GGG"/>
    <tlsState time="189.00" id="gneJ2" programID="0" phase="0" state="GGG"/>
    <tlsState time="190.00" id="gneJ2" programID="0" phase="0" state="GGG"/>
    <tlsState time="191.00" id="gneJ2" programID="0" phase="0" state="GGG"/>
    <tlsState time="192.00" id="gneJ2" programID="0" phase="0" state="GGG"/>
    <tlsState time="193.00" id="gneJ2" programID="0" phase="0" state="GGG"/>
    <tlsState time="194.00" id="gneJ2" programID="0" phase="0" state="GGG"/>
    <tlsState time="195.00" id="gneJ2" programID="0" phase="0" state="GGG"/>
    <tlsState time="196.00" id="gneJ2" programID="0" phase="0" state="GGG"/>
    <tlsState time="197.00" id="gneJ2" programID="0" phase="0" state="GGG"/>
    <tlsState time="198.00" id="gneJ2" programID="0" phase="0" state="GGG"/>
    <tlsState time="199.00" id="gneJ2" programID="0" phase="0" state="GGG"/>
</tlsStates>
