<?xml version="1.0" encoding="UTF-8"?>

<!-- generated on Mon Nov 28 14:38:27 2016 by SUMO netconvert Version dev-SVN-r22106
<?xml version="1.0" encoding="UTF-8"?>

<configuration xmlns:xsi="http://www.w3.org/2001/XMLSchema-instance" xsi:noNamespaceSchemaLocation="http://sumo.dlr.de/xsd/netconvertConfiguration.xsd">

    <input>
        <node-files value="input_plain.nod.xml"/>
        <edge-files value="input_plain.edg.xml"/>
    </input>

    <output>
        <output-file value="net.net.xml"/>
    </output>

    <processing>
        <crossings.guess value="true"/>
    </processing>

    <report>
        <xml-validation value="never"/>
    </report>

</configuration>
-->

<net version="0.27" xmlns:xsi="http://www.w3.org/2001/XMLSchema-instance" xsi:noNamespaceSchemaLocation="http://sumo.dlr.de/xsd/net_file.xsd">

    <location netOffset="-392549.87,-5819736.98" convBoundary="0.00,0.00,111.45,224.07" origBoundary="13.354338,52.488705,13.527397,52.569279" projParameter="+proj=utm +zone=33 +ellps=WGS84 +datum=WGS84 +units=m +no_defs"/>

    <edge id=":21487229_0" function="internal">
        <lane id=":21487229_0_0" index="0" disallow="rail_urban rail rail_electric pedestrian" speed="13.89" length="9.98" shape="100.08,96.59 102.57,98.77 104.08,101.17 104.64,103.80 104.24,106.64"/>
        <lane id=":21487229_0_1" index="1" disallow="rail_urban rail rail_electric pedestrian" speed="13.89" length="9.98" shape="100.08,96.59 101.30,97.97 101.87,99.94 101.80,102.52 101.08,105.69"/>
        <lane id=":21487229_0_2" index="2" disallow="rail_urban rail rail_electric pedestrian" speed="13.89" length="9.98" shape="100.08,96.59 100.13,97.97 99.41,100.52 98.49,103.14 97.91,104.74"/>
    </edge>
    <edge id=":21487229_3" function="internal">
        <lane id=":21487229_3_0" index="0" disallow="rail_urban rail rail_electric pedestrian" speed="13.89" length="4.82" shape="100.08,96.59 100.63,97.98 100.49,98.89 99.68,99.33 98.19,99.29"/>
    </edge>
    <edge id=":21487229_c0" function="crossing" crossingEdges="-4615548 4615548">
        <lane id=":21487229_c0_0" index="0" allow="pedestrian" speed="1.00" length="6.50" width="4.00" shape="98.91,101.75 102.64,96.43"/>
    </edge>
    <edge id=":21487229_w0" function="walkingarea">
        <lane id=":21487229_w0_0" index="0" allow="pedestrian" speed="1.00" length="9.57" width="4.00" shape="105.86,107.13 108.74,107.99 102.21,93.56 101.06,95.20 104.28,97.57"/>
    </edge>
    <edge id=":21487229_w1" function="walkingarea">
        <lane id=":21487229_w1_0" index="0" allow="pedestrian" speed="1.00" length="2.28" width="4.00" shape="100.55,102.90 97.22,100.69 96.07,102.33"/>
    </edge>
    <edge id=":29215077_0" function="internal">
        <lane id=":29215077_0_0" index="0" disallow="rail_urban rail rail_electric pedestrian" speed="11.11" length="16.21" shape="98.03,99.18 94.09,96.42 91.36,94.58 88.53,92.89 84.31,90.59"/>
    </edge>
    <edge id=":29215077_1" function="internal">
        <lane id=":29215077_1_0" index="0" disallow="rail_urban rail rail_electric pedestrian" speed="13.89" length="3.48" shape="98.03,99.18 96.82,97.52 96.58,96.12"/>
    </edge>
    <edge id=":29215077_2" function="internal">
        <lane id=":29215077_2_0" index="0" disallow="rail_urban rail rail_electric pedestrian" speed="13.89" length="2.41" shape="98.03,99.18 97.49,97.79 97.62,96.88"/>
    </edge>
    <edge id=":29215077_10" function="internal">
        <lane id=":29215077_10_0" index="0" speed="13.89" length="10.42" shape="96.58,96.12 96.34,94.74 96.59,90.84 97.57,85.82"/>
    </edge>
    <edge id=":29215077_11" function="internal">
        <lane id=":29215077_11_0" index="0" speed="13.89" length="2.41" shape="97.62,96.88 98.43,96.44 99.92,96.48"/>
    </edge>
    <edge id=":29215077_3" function="internal">
        <lane id=":29215077_3_0" index="0" disallow="rail_urban rail rail_electric pedestrian" speed="11.11" length="6.21" shape="86.11,87.81 89.14,88.99 91.53,88.92 91.98,88.58"/>
    </edge>
    <edge id=":29215077_4" function="internal">
        <lane id=":29215077_4_0" index="0" disallow="rail_urban rail rail_electric pedestrian" speed="11.11" length="16.33" shape="86.11,87.81 90.36,90.13 93.20,91.84 95.95,93.69 99.92,96.48"/>
    </edge>
    <edge id=":29215077_5" function="internal">
        <lane id=":29215077_5_0" index="0" disallow="rail_urban rail rail_electric pedestrian" speed="8.33" length="2.42" shape="86.11,87.81 86.70,89.17 86.60,90.09"/>
    </edge>
    <edge id=":29215077_12" function="internal">
        <lane id=":29215077_12_0" index="0" speed="11.11" length="4.41" shape="91.98,88.58 93.27,87.61 94.37,85.04"/>
    </edge>
    <edge id=":29215077_13" function="internal">
        <lane id=":29215077_13_0" index="0" speed="8.33" length="2.42" shape="86.60,90.09 85.80,90.56 84.31,90.59"/>
    </edge>
    <edge id=":29215077_6" function="internal">
        <lane id=":29215077_6_0" index="0" disallow="rail_urban rail rail_electric pedestrian" speed="11.11" length="9.70" shape="90.05,101.84 90.42,98.47 89.59,95.47 87.63,92.95"/>
    </edge>
    <edge id=":29215077_7" function="internal">
        <lane id=":29215077_7_0" index="0" disallow="rail_urban rail rail_electric pedestrian" speed="13.89" length="17.40" shape="90.05,101.84 94.37,85.04"/>
        <lane id=":29215077_7_1" index="1" disallow="rail_urban rail rail_electric pedestrian" speed="13.89" length="17.40" shape="93.23,102.72 97.57,85.82"/>
    </edge>
    <edge id=":29215077_9" function="internal">
        <lane id=":29215077_9_0" index="0" disallow="rail_urban rail rail_electric pedestrian" speed="13.89" length="10.92" shape="93.23,102.72 94.59,98.89 96.16,96.57 97.93,95.77 99.92,96.48"/>
    </edge>
    <edge id=":29215077_14" function="internal">
        <lane id=":29215077_14_0" index="0" speed="11.11" length="4.08" shape="87.63,92.95 87.55,92.84 84.31,90.59"/>
    </edge>
    <edge id=":29215077_c0" function="crossing" crossingEdges="4615548 -4615548">
        <lane id=":29215077_c0_0" index="0" allow="pedestrian" speed="1.00" length="6.50" width="4.00" shape="99.20,94.02 95.47,99.34"/>
    </edge>
    <edge id=":29215077_c1" function="crossing" crossingEdges="246044848#2">
        <lane id=":29215077_c1_0" index="0" allow="pedestrian" speed="1.00" length="6.50" width="4.00" shape="92.34,86.61 98.66,88.14"/>
    </edge>
    <edge id=":29215077_c2" function="crossing" crossingEdges="-194962398#2 194962398#2">
        <lane id=":29215077_c2_0" index="0" allow="pedestrian" speed="1.00" length="6.51" width="4.00" shape="85.31,92.94 88.63,87.34"/>
    </edge>
    <edge id=":29215077_c3" function="crossing" crossingEdges="246044848#1">
        <lane id=":29215077_c3_0" index="0" allow="pedestrian" speed="1.00" length="6.50" width="4.00" shape="95.30,101.21 89.03,99.49"/>
    </edge>
    <edge id=":29215077_w0" function="walkingarea">
        <lane id=":29215077_w0_0" index="0" allow="pedestrian" speed="1.00" length="1.78" width="4.00" shape="95.83,99.28 94.77,103.14 95.91,102.21 97.05,100.57 97.11,100.49 93.83,98.20"/>
    </edge>
    <edge id=":29215077_w1" function="walkingarea">
        <lane id=":29215077_w1_0" index="0" allow="pedestrian" speed="1.00" length="4.97" width="4.00" shape="97.56,92.87 100.84,95.16 100.90,95.08 102.04,93.44 99.13,86.20 98.19,90.08"/>
    </edge>
    <edge id=":29215077_w2" function="walkingarea">
        <lane id=":29215077_w2_0" index="0" allow="pedestrian" speed="1.00" length="3.54" width="4.00" shape="91.87,88.56 92.81,84.67 92.71,84.65 89.80,83.94 88.05,84.65 87.10,86.41 86.91,86.32 90.35,88.36"/>
    </edge>
    <edge id=":29215077_w3" function="walkingarea">
        <lane id=":29215077_w3_0" index="0" allow="pedestrian" speed="1.00" length="6.50" width="4.00" shape="87.03,93.96 83.59,91.92 83.31,91.98 82.36,93.74 85.51,100.60 88.41,101.40 88.50,101.42 89.56,97.56"/>
    </edge>
    <edge id=":735963263_0" function="internal">
        <lane id=":735963263_0_0" index="0" disallow="rail_urban rail rail_electric pedestrian" speed="8.33" length="4.82" shape="-0.78,44.83 -1.48,43.52 -1.45,42.60 -0.70,42.07 0.78,41.93"/>
    </edge>
    <edge id=":735963263_w0" function="walkingarea">
        <lane id=":735963263_w0_0" index="0" allow="pedestrian" speed="1.00" length="8.70" width="2.00" shape="1.59,40.43 2.53,38.67 -2.53,48.09 -1.59,46.33"/>
    </edge>

    <edge id="-194962398#2" from="29215077" to="735963263" priority="4" shape="93.79,94.20 90.22,91.89 0.00,43.38">
        <lane id="-194962398#2_0" index="0" allow="pedestrian" speed="8.33" length="96.50" width="2.00" shape="82.84,92.86 -2.06,47.21"/>
        <lane id="-194962398#2_1" index="1" disallow="rail_urban rail rail_electric pedestrian" speed="8.33" length="96.50" shape="84.31,90.59 -0.78,44.83"/>
    </edge>
    <edge id="-4615548" from="21487229" to="29215077" priority="4">
        <lane id="-4615548_0" index="0" allow="pedestrian" speed="13.89" length="0.20" width="2.00" shape="96.65,101.51 96.48,101.39"/>
        <lane id="-4615548_1" index="1" disallow="rail_urban rail rail_electric pedestrian" speed="13.89" length="0.20" shape="98.19,99.29 98.03,99.18"/>
    </edge>
    <edge id="194962398#2" from="735963263" to="29215077" priority="4" shape="0.00,43.38 90.22,91.89 93.79,94.20">
        <lane id="194962398#2_0" index="0" allow="pedestrian" speed="8.33" length="96.99" width="2.00" shape="2.06,39.55 87.58,85.53"/>
        <lane id="194962398#2_1" index="1" disallow="rail_urban rail rail_electric pedestrian" speed="8.33" length="96.99" shape="0.78,41.93 86.11,87.81"/>
    </edge>
    <edge id="246044848#1" from="cluster_2531313425_2531313439" to="29215077" priority="7" spreadType="center" shape="40.00,220.76 50.86,200.28 58.93,183.24 68.56,161.38 77.93,138.56 87.86,110.20 92.35,93.81">
        <lane id="246044848#1_0" index="0" allow="pedestrian" speed="13.89" length="129.50" width="3.00" shape="36.97,219.42 47.91,198.80 55.93,181.87 65.52,160.09 74.84,137.39 84.71,109.22 86.96,101.00"/>
        <lane id="246044848#1_1" index="1" disallow="rail_urban rail rail_electric pedestrian" speed="13.89" length="129.50" shape="39.80,220.92 50.77,200.24 58.84,183.20 68.47,161.34 77.84,138.52 87.76,110.17 90.05,101.84"/>
        <lane id="246044848#1_2" index="2" disallow="rail_urban rail rail_electric pedestrian" speed="13.89" length="129.50" shape="42.72,222.47 53.72,201.72 61.84,184.57 71.50,162.63 80.92,139.70 90.92,111.15 93.23,102.72"/>
    </edge>
    <edge id="246044848#2" from="29215077" to="539782072" priority="7" spreadType="center" shape="92.34,93.85 96.12,78.21 100.97,54.18 103.09,41.67 105.92,23.66 109.98,0.00">
        <lane id="246044848#2_0" index="0" allow="pedestrian" speed="13.89" length="86.49" width="3.00" shape="91.25,84.29 92.90,77.50 97.73,53.58 99.83,41.14 102.66,23.12 106.73,-0.56"/>
        <lane id="246044848#2_1" index="1" disallow="rail_urban rail rail_electric pedestrian" speed="13.89" length="86.49" shape="94.37,85.04 96.02,78.19 100.87,54.16 102.99,41.65 105.82,23.64 109.88,-0.02"/>
        <lane id="246044848#2_2" index="2" disallow="rail_urban rail rail_electric pedestrian" speed="13.89" length="86.49" shape="97.57,85.82 99.24,78.90 104.12,54.76 106.25,42.19 109.08,24.18 113.13,0.54"/>
    </edge>
    <edge id="312533962#0" from="21487229" to="1193560217" priority="7" spreadType="center" shape="104.14,100.87 100.23,113.90 98.05,121.02 91.47,139.58">
        <lane id="312533962#0_0" index="0" allow="pedestrian" speed="13.89" length="35.25" width="3.00" shape="107.30,107.56 104.97,115.33 102.75,122.57 96.14,141.23"/>
        <lane id="312533962#0_1" index="1" disallow="rail_urban rail rail_electric pedestrian" speed="13.89" length="35.25" shape="104.24,106.64 101.91,114.41 99.71,121.57 93.12,140.16"/>
        <lane id="312533962#0_2" index="2" disallow="rail_urban rail rail_electric pedestrian" speed="13.89" length="35.25" shape="101.08,105.69 98.75,113.45 96.58,120.53 90.01,139.06"/>
        <lane id="312533962#0_3" index="3" disallow="rail_urban rail rail_electric pedestrian" speed="13.89" length="35.25" shape="97.91,104.74 95.59,112.50 93.44,119.50 86.90,137.96"/>
    </edge>
    <edge id="4615548" from="29215077" to="21487229" priority="4">
        <lane id="4615548_0" index="0" allow="pedestrian" speed="13.89" length="0.20" width="2.00" shape="101.47,94.26 101.63,94.38"/>
        <lane id="4615548_1" index="1" disallow="rail_urban rail rail_electric pedestrian" speed="13.89" length="0.20" shape="99.92,96.48 100.08,96.59"/>
    </edge>

    <tlLogic id="joinedS_7" type="static" programID="0" offset="0">
        <phase duration="66" state="GGGGggggggGGGGrrrrr"/>
        <phase duration="4" state="yyyyggggggyyyyrrrrr"/>
        <phase duration="6" state="GGGGGggGGgrrrrrrrrr"/>
        <phase duration="4" state="yyyyyyyyyyrrrrrrrrr"/>
        <phase duration="5" state="rrrrrrrrrrrrrrGGGGG"/>
        <phase duration="5" state="rrrrrrrrrrrrrrrrrrr"/>
    </tlLogic>

    <junction id="1193560217" type="unregulated" x="90.06" y="139.08" incLanes="312533962#0_0 312533962#0_1 312533962#0_2 312533962#0_3" intLanes="" shape="97.55,141.74 85.39,137.42"/>
    <junction id="21487229" type="traffic_light" x="102.71" y="100.44" incLanes="4615548_0 4615548_1 :21487229_w1_0" intLanes=":21487229_0_0 :21487229_0_1 :21487229_0_2 :21487229_3_0 :21487229_c0_0" shape="101.72,93.22 95.58,101.98 96.38,104.28 108.74,107.99">
        <request index="0" response="10000" foes="10000" cont="0"/>
        <request index="1" response="10000" foes="10000" cont="0"/>
        <request index="2" response="10000" foes="10000" cont="0"/>
        <request index="3" response="10000" foes="10000" cont="0"/>
        <request index="4" response="00000" foes="01111" cont="0"/>
    </junction>
    <junction id="29215077" type="traffic_light" x="93.79" y="94.20" incLanes="-4615548_0 -4615548_1 194962398#2_0 194962398#2_1 246044848#1_0 246044848#1_1 246044848#1_2 :29215077_w1_0 :29215077_w2_0 :29215077_w3_0 :29215077_w0_0" intLanes=":29215077_0_0 :29215077_10_0 :29215077_11_0 :29215077_12_0 :29215077_4_0 :29215077_13_0 :29215077_14_0 :29215077_7_0 :29215077_7_1 :29215077_9_0 :29215077_c0_0 :29215077_c1_0 :29215077_c2_0 :29215077_c3_0" shape="96.40,102.55 102.53,93.78 99.13,86.20 89.80,83.94 88.12,84.69 82.29,93.70 85.51,100.60 94.77,103.14">
        <request index="0" response="01011111000000" foes="01011111100000" cont="0"/>
        <request index="1" response="00111110011000" foes="00111110011000" cont="1"/>
        <request index="2" response="00011000010000" foes="00011000010000" cont="1"/>
        <request index="3" response="01100110000000" foes="01100110000010" cont="1"/>
        <request index="4" response="01011110000000" foes="01011110000110" cont="0"/>
        <request index="5" response="01000001000001" foes="01000001000001" cont="1"/>
        <request index="6" response="11000000000000" foes="11000000100001" cont="1"/>
        <request index="7" response="10100000000000" foes="10100000011011" cont="0"/>
        <request index="8" response="10100000000000" foes="10100000011011" cont="0"/>
        <request index="9" response="10010000000000" foes="10010000010111" cont="0"/>
        <request index="10" response="00000000000000" foes="00001000010111" cont="0"/>
        <request index="11" response="00000000000000" foes="00000110001010" cont="0"/>
        <request index="12" response="00000000000000" foes="00000001111001" cont="0"/>
        <request index="13" response="00000000000000" foes="00001111000000" cont="0"/>
    </junction>
    <junction id="539782072" type="unregulated" x="111.45" y="0.26" incLanes="246044848#2_0 246044848#2_1 246044848#2_2" intLanes="" shape="105.25,-0.80 114.71,0.82"/>
    <junction id="735963263" type="right_before_left" x="0.00" y="43.38" incLanes="-194962398#2_0 -194962398#2_1" intLanes=":735963263_0_0" shape="0.02,43.34 -2.53,48.09 -0.02,43.42">
        <request index="0" response="0" foes="0" cont="0"/>
    </junction>
    <junction id="cluster_2531313425_2531313439" type="unregulated" x="45.74" y="224.07" incLanes="" intLanes="" shape="44.13,223.22 35.65,218.72"/>

    <junction id=":29215077_10_0" type="internal" x="96.58" y="96.12" incLanes=":29215077_1_0 194962398#2_1 246044848#1_1 246044848#1_2" intLanes=":29215077_3_0 :29215077_4_0 :29215077_7_0 :29215077_7_1 :29215077_9_0 :29215077_c0_0 :29215077_c1_0"/>
    <junction id=":29215077_11_0" type="internal" x="97.62" y="96.88" incLanes=":29215077_2_0 194962398#2_1 246044848#1_2" intLanes=":29215077_4_0 :29215077_9_0 :29215077_c0_0 :29215077_c0_0"/>
    <junction id=":29215077_12_0" type="internal" x="91.98" y="88.58" incLanes=":29215077_3_0" intLanes=":29215077_1_0 :29215077_7_0 :29215077_7_1 :29215077_c1_0 :29215077_c2_0"/>
    <junction id=":29215077_13_0" type="internal" x="86.60" y="90.09" incLanes=":29215077_5_0 -4615548_1 246044848#1_1" intLanes=":29215077_0_0 :29215077_6_0 :29215077_c2_0 :29215077_c2_0"/>
    <junction id=":29215077_14_0" type="internal" x="87.63" y="92.95" incLanes=":29215077_6_0" intLanes=":29215077_0_0 :29215077_5_0 :29215077_c2_0 :29215077_c3_0"/>

    <connection from="-194962398#2" to="194962398#2" fromLane="1" toLane="1" via=":735963263_0_0" dir="t" state="="/>
    <connection from="-4615548" to="-194962398#2" fromLane="1" toLane="1" via=":29215077_0_0" tl="joinedS_7" linkIndex="4" dir="s" state="o"/>
    <connection from="-4615548" to="246044848#2" fromLane="1" toLane="2" via=":29215077_1_0" tl="joinedS_7" linkIndex="5" dir="l" state="o"/>
    <connection from="-4615548" to="4615548" fromLane="1" toLane="1" via=":29215077_2_0" tl="joinedS_7" linkIndex="6" dir="t" state="o"/>
    <connection from="194962398#2" to="246044848#2" fromLane="1" toLane="1" via=":29215077_3_0" tl="joinedS_7" linkIndex="7" dir="r" state="o"/>
    <connection from="194962398#2" to="4615548" fromLane="1" toLane="1" via=":29215077_4_0" tl="joinedS_7" linkIndex="8" dir="s" state="o"/>
    <connection from="194962398#2" to="-194962398#2" fromLane="1" toLane="1" via=":29215077_5_0" tl="joinedS_7" linkIndex="9" dir="t" state="o"/>
    <connection from="246044848#1" to="-194962398#2" fromLane="1" toLane="1" via=":29215077_6_0" tl="joinedS_7" linkIndex="10" dir="r" state="o"/>
    <connection from="246044848#1" to="246044848#2" fromLane="1" toLane="1" via=":29215077_7_0" tl="joinedS_7" linkIndex="11" dir="s" state="o"/>
    <connection from="246044848#1" to="246044848#2" fromLane="2" toLane="2" via=":29215077_7_1" tl="joinedS_7" linkIndex="12" dir="s" state="o"/>
    <connection from="246044848#1" to="4615548" fromLane="2" toLane="1" via=":29215077_9_0" tl="joinedS_7" linkIndex="13" dir="l" state="o"/>
    <connection from="4615548" to="312533962#0" fromLane="1" toLane="1" via=":21487229_0_0" tl="joinedS_7" linkIndex="0" dir="l" state="o"/>
    <connection from="4615548" to="312533962#0" fromLane="1" toLane="2" via=":21487229_0_1" tl="joinedS_7" linkIndex="1" dir="l" state="o"/>
    <connection from="4615548" to="312533962#0" fromLane="1" toLane="3" via=":21487229_0_2" tl="joinedS_7" linkIndex="2" dir="l" state="o"/>
    <connection from="4615548" to="-4615548" fromLane="1" toLane="1" via=":21487229_3_0" tl="joinedS_7" linkIndex="3" dir="t" state="o"/>

    <connection from=":21487229_0" to="312533962#0" fromLane="0" toLane="1" dir="s" state="M"/>
    <connection from=":21487229_0" to="312533962#0" fromLane="1" toLane="2" dir="s" state="M"/>
    <connection from=":21487229_0" to="312533962#0" fromLane="2" toLane="3" dir="s" state="M"/>
    <connection from=":21487229_3" to="-4615548" fromLane="0" toLane="1" dir="s" state="M"/>
    <connection from=":29215077_0" to="-194962398#2" fromLane="0" toLane="1" dir="s" state="M"/>
    <connection from=":29215077_1" to="246044848#2" fromLane="0" toLane="2" via=":29215077_10_0" dir="s" state="m"/>
    <connection from=":29215077_10" to="246044848#2" fromLane="0" toLane="2" dir="s" state="M"/>
    <connection from=":29215077_2" to="4615548" fromLane="0" toLane="1" via=":29215077_11_0" dir="s" state="m"/>
    <connection from=":29215077_11" to="4615548" fromLane="0" toLane="1" dir="s" state="M"/>
    <connection from=":29215077_3" to="246044848#2" fromLane="0" toLane="1" via=":29215077_12_0" dir="s" state="m"/>
    <connection from=":29215077_12" to="246044848#2" fromLane="0" toLane="1" dir="s" state="M"/>
    <connection from=":29215077_4" to="4615548" fromLane="0" toLane="1" dir="s" state="M"/>
    <connection from=":29215077_5" to="-194962398#2" fromLane="0" toLane="1" via=":29215077_13_0" dir="s" state="m"/>
    <connection from=":29215077_13" to="-194962398#2" fromLane="0" toLane="1" dir="s" state="M"/>
    <connection from=":29215077_6" to="-194962398#2" fromLane="0" toLane="1" via=":29215077_14_0" dir="s" state="m"/>
    <connection from=":29215077_14" to="-194962398#2" fromLane="0" toLane="1" dir="s" state="M"/>
    <connection from=":29215077_7" to="246044848#2" fromLane="0" toLane="1" dir="s" state="M"/>
    <connection from=":29215077_7" to="246044848#2" fromLane="1" toLane="2" dir="s" state="M"/>
    <connection from=":29215077_9" to="4615548" fromLane="0" toLane="1" dir="s" state="M"/>
    <connection from=":735963263_0" to="194962398#2" fromLane="0" toLane="1" dir="s" state="M"/>

    <connection from=":21487229_c0" to=":21487229_w0" fromLane="0" toLane="0" dir="s" state="M"/>
    <connection from=":21487229_w0" to="312533962#0" fromLane="0" toLane="0" dir="s" state="M"/>
    <connection from="4615548" to=":21487229_w0" fromLane="0" toLane="0" dir="s" state="M"/>
    <connection from=":21487229_w1" to=":21487229_c0" fromLane="0" toLane="0" tl="joinedS_7" linkIndex="14" dir="s" state="M"/>
    <connection from=":21487229_w1" to="-4615548" fromLane="0" toLane="0" dir="s" state="M"/>
    <connection from=":29215077_c0" to=":29215077_w0" fromLane="0" toLane="0" dir="s" state="M"/>
    <connection from=":29215077_c1" to=":29215077_w1" fromLane="0" toLane="0" dir="s" state="M"/>
    <connection from=":29215077_c2" to=":29215077_w2" fromLane="0" toLane="0" dir="s" state="M"/>
    <connection from=":29215077_c3" to=":29215077_w3" fromLane="0" toLane="0" dir="s" state="M"/>
    <connection from=":29215077_w0" to=":29215077_c3" fromLane="0" toLane="0" tl="joinedS_7" linkIndex="18" dir="s" state="M"/>
    <connection from="-4615548" to=":29215077_w0" fromLane="0" toLane="0" dir="s" state="M"/>
    <connection from=":29215077_w1" to=":29215077_c0" fromLane="0" toLane="0" tl="joinedS_7" linkIndex="15" dir="s" state="M"/>
    <connection from=":29215077_w1" to="4615548" fromLane="0" toLane="0" dir="s" state="M"/>
    <connection from=":29215077_w2" to=":29215077_c1" fromLane="0" toLane="0" tl="joinedS_7" linkIndex="16" dir="s" state="M"/>
    <connection from=":29215077_w2" to="246044848#2" fromLane="0" toLane="0" dir="s" state="M"/>
    <connection from="194962398#2" to=":29215077_w2" fromLane="0" toLane="0" dir="s" state="M"/>
    <connection from=":29215077_w3" to=":29215077_c2" fromLane="0" toLane="0" tl="joinedS_7" linkIndex="17" dir="s" state="M"/>
    <connection from=":29215077_w3" to="-194962398#2" fromLane="0" toLane="0" dir="s" state="M"/>
    <connection from="246044848#1" to=":29215077_w3" fromLane="0" toLane="0" dir="s" state="M"/>
    <connection from=":735963263_w0" to="194962398#2" fromLane="0" toLane="0" dir="s" state="M"/>
    <connection from="-194962398#2" to=":735963263_w0" fromLane="0" toLane="0" dir="s" state="M"/>
</net>
