<?xml version="1.0" encoding="UTF-8"?>

<!-- generated on 2022-10-04 15:57:56 by Eclipse SUMO netedit Version v1_14_1+1411-dc2522155a5
-->

<routes xmlns:xsi="http://www.w3.org/2001/XMLSchema-instance" xsi:noNamespaceSchemaLocation="http://sumo.dlr.de/xsd/routes_file.xsd">
    <!-- Routes -->
    <route id="route_0" edges="gneE2 gneE4 gneE5" color="yellow"/>
    <!-- Vehicles, persons and containers (sorted by depart) -->
    <vehicle id="vehicle_1" depart="20.00" arrivalPosLat="-12.00" route="route_0"/>
    <vehicle id="vehicle_2" depart="20.00" arrivalPosLat="0.00" route="route_0"/>
    <vehicle id="vehicle_3" depart="20.00" arrivalPosLat="500.00" route="route_0"/>
    <vehicle id="vehicle_4" depart="20.00" arrivalPosLat="1.00" route="route_0"/>
    <vehicle id="vehicle_5" depart="20.00" arrivalPosLat="left" route="route_0"/>
    <vehicle id="vehicle_6" depart="20.00" arrivalPosLat="right" route="route_0"/>
    <vehicle id="vehicle_7" depart="20.00" arrivalPosLat="center" route="route_0"/>
</routes>
