<?xml version="1.0" encoding="UTF-8"?>

<!-- generated on 2023-06-29 14:40:37.361031 by routeSampler.py v1_17_0+1318-85f891f765f
<configuration>
    <route-files value="input_routes.rou.xml"/>
    <turn-files value="input_turns.xml"/>
    <write-flows value="probability"/>
</configuration>
-->

<routes xmlns:xsi="http://www.w3.org/2001/XMLSchema-instance" xsi:noNamespaceSchemaLocation="http://sumo.dlr.de/xsd/routes_file.xsd">
<!-- begin="0.0" end="200.0" -->
    <flow id="0_2" begin="0.00" end="200.00" probability="0.0500">
        <route edges="-3 -3.180.00 5"/>
    </flow>
<!-- begin="200.0" end="400.0" -->
    <flow id="200_0" begin="200.00" end="400.00" probability="0.0400">
        <route edges="-3 -3.180.00 11"/>
    </flow>
</routes>
