<?xml version="1.0" encoding="UTF-8"?>

<!-- generated on 2021-11-12 17:20:29 by Eclipse SUMO sumo Version v1_10_0+1679-b93cd5866ee
This data file and the accompanying materials
are made available under the terms of the Eclipse Public License v2.0
which accompanies this distribution, and is available at
http://www.eclipse.org/legal/epl-v20.html
SPDX-License-Identifier: EPL-2.0
<configuration xmlns:xsi="http://www.w3.org/2001/XMLSchema-instance" xsi:noNamespaceSchemaLocation="http://sumo.dlr.de/xsd/sumoConfiguration.xsd">

    <input>
        <net-file value="elechybrid_1.net.xml"/>
        <route-files value="trolleybus.rou.xml"/>
        <additional-files value="busstop.add.xml,overheadwires.add.xml"/>
    </input>

    <output>
        <write-license value="true"/>
        <elechybrid-output value="elechybrid_out.xml"/>
        <elechybrid-output.precision value="4"/>
        <elechybrid-output.aggregated value="true"/>
        <overheadwiresegments-output value="overheadwires_out.xml"/>
        <substations-output value="substation_out.xml"/>
    </output>

    <time>
        <end value="100"/>
    </time>

    <processing>
        <default.speeddev value="0"/>
        <overhead-wire-solver value="true"/>
    </processing>

    <report>
        <xml-validation value="never"/>
        <xml-validation.routes value="never"/>
        <duration-log.disable value="true"/>
        <no-step-log value="true"/>
    </report>

    <elechybrid_device>
        <device.elechybrid.explicit value="test1,test3"/>
    </elechybrid_device>

</configuration>
-->

<elecHybrid-export-aggregated xmlns:xsi="http://www.w3.org/2001/XMLSchema-instance" xsi:noNamespaceSchemaLocation="http://sumo.dlr.de/xsd/" recuperationEnabled="1">
    <timestep time="0.00">
        <vehicle id="test1" maximumBatteryCapacity="50000.0000" actualBatteryCapacity="23000.0000" energyConsumed="0.0000" energyCharged="0.0000" power="-nan(ind)" overheadWireId="" tractionSubstationId="" current="-nan(ind)" circuitVoltage="-nan(ind)" alphaCircuitSolver="-nan(ind)" speed="0.0000" acceleration="0.0000" distance="0.0000" x="11.9185" y="-1.6000" z="0.0000" slope="0.0000" lane="gneE0_0" posOnLane="12.1000"/>
        <vehicle id="test3" maximumBatteryCapacity="50000.0000" actualBatteryCapacity="23000.0000" energyConsumed="0.0000" energyCharged="0.0000" power="-nan(ind)" overheadWireId="" tractionSubstationId="" current="-nan(ind)" circuitVoltage="-nan(ind)" alphaCircuitSolver="-nan(ind)" speed="0.0000" acceleration="0.0000" distance="0.0000" x="-88.2630" y="-108.0000" z="0.0000" slope="0.0000" lane="gneE6_0" posOnLane="12.1000"/>
    </timestep>
    <timestep time="1.00">
        <vehicle id="test1" maximumBatteryCapacity="50000.0000" actualBatteryCapacity="22996.4868" energyConsumed="3.5132" energyCharged="-3.5132" power="-nan(ind)" overheadWireId="" tractionSubstationId="" current="-nan(ind)" circuitVoltage="-nan(ind)" alphaCircuitSolver="-nan(ind)" speed="0.8000" acceleration="0.8000" distance="0.8000" x="12.7065" y="-1.6000" z="0.0000" slope="0.0000" lane="gneE0_0" posOnLane="12.9000"/>
        <vehicle id="test3" maximumBatteryCapacity="50000.0000" actualBatteryCapacity="22996.4868" energyConsumed="3.5132" energyCharged="-3.5132" power="-nan(ind)" overheadWireId="" tractionSubstationId="" current="-nan(ind)" circuitVoltage="-nan(ind)" alphaCircuitSolver="-nan(ind)" speed="0.8000" acceleration="0.8000" distance="0.8000" x="-87.4870" y="-104.8000" z="0.0000" slope="0.0000" lane="gneE6_1" posOnLane="12.9000"/>
    </timestep>
    <timestep time="2.00">
        <vehicle id="test1" maximumBatteryCapacity="50000.0000" actualBatteryCapacity="22988.4826" energyConsumed="8.0042" energyCharged="-8.0042" power="-nan(ind)" overheadWireId="" tractionSubstationId="" current="-nan(ind)" circuitVoltage="-nan(ind)" alphaCircuitSolver="-nan(ind)" speed="1.6000" acceleration="0.8000" distance="2.4000" x="14.2825" y="-1.6000" z="0.0000" slope="0.0000" lane="gneE0_0" posOnLane="14.5000"/>
        <vehicle id="test3" maximumBatteryCapacity="50000.0000" actualBatteryCapacity="23006.4868" energyConsumed="8.0042" energyCharged="10.0000" power="68815.1102" overheadWireId="ovrhdWrSgmnt_gneE6_2_0" tractionSubstationId="substation" current="116.2661" circuitVoltage="591.8758" alphaCircuitSolver="1.0000" speed="1.6000" acceleration="0.8000" distance="2.4000" x="-85.9350" y="-104.8000" z="0.0000" slope="0.0000" lane="gneE6_1" posOnLane="14.5000"/>
    </timestep>
    <timestep time="3.00">
        <vehicle id="test1" maximumBatteryCapacity="50000.0000" actualBatteryCapacity="22975.9824" energyConsumed="12.5003" energyCharged="-12.5003" power="-nan(ind)" overheadWireId="" tractionSubstationId="" current="-nan(ind)" circuitVoltage="-nan(ind)" alphaCircuitSolver="-nan(ind)" speed="2.4000" acceleration="0.8000" distance="4.8000" x="16.6465" y="-1.6000" z="0.0000" slope="0.0000" lane="gneE0_0" posOnLane="16.9000"/>
        <vehicle id="test3" maximumBatteryCapacity="50000.0000" actualBatteryCapacity="23016.4868" energyConsumed="12.5003" energyCharged="10.0000" power="85000.9560" overheadWireId="ovrhdWrSgmnt_gneE6_2_0" tractionSubstationId="substation" current="144.0666" circuitVoltage="590.0114" alphaCircuitSolver="1.0000" speed="2.4000" acceleration="0.8000" distance="4.8000" x="-83.6070" y="-104.8000" z="0.0000" slope="0.0000" lane="gneE6_1" posOnLane="16.9000"/>
    </timestep>
    <timestep time="4.00">
        <vehicle id="test1" maximumBatteryCapacity="50000.0000" actualBatteryCapacity="22958.9784" energyConsumed="17.0039" energyCharged="-17.0039" power="-nan(ind)" overheadWireId="" tractionSubstationId="" current="-nan(ind)" circuitVoltage="-nan(ind)" alphaCircuitSolver="-nan(ind)" speed="3.2000" acceleration="0.8000" distance="8.0000" x="19.7985" y="-1.6000" z="0.0000" slope="0.0000" lane="gneE0_0" posOnLane="20.1000"/>
        <vehicle id="test3" maximumBatteryCapacity="50000.0000" actualBatteryCapacity="23026.4868" energyConsumed="17.0039" energyCharged="10.0000" power="101214.0819" overheadWireId="ovrhdWrSgmnt_gneE6_2_0" tractionSubstationId="substation" current="172.0761" circuitVoltage="588.1939" alphaCircuitSolver="1.0000" speed="3.2000" acceleration="0.8000" distance="8.0000" x="-80.5030" y="-104.8000" z="0.0000" slope="0.0000" lane="gneE6_1" posOnLane="20.1000"/>
    </timestep>
    <timestep time="5.00">
        <vehicle id="test1" maximumBatteryCapacity="50000.0000" actualBatteryCapacity="22937.4608" energyConsumed="21.5177" energyCharged="-21.5177" power="-nan(ind)" overheadWireId="" tractionSubstationId="" current="-nan(ind)" circuitVoltage="-nan(ind)" alphaCircuitSolver="-nan(ind)" speed="4.0000" acceleration="0.8000" distance="12.0000" x="23.7385" y="-1.6000" z="0.0000" slope="0.0000" lane="gneE0_0" posOnLane="24.1000"/>
        <vehicle id="test3" maximumBatteryCapacity="50000.0000" actualBatteryCapacity="23036.4868" energyConsumed="21.5177" energyCharged="10.0000" power="117463.5813" overheadWireId="ovrhdWrSgmnt_gneE6_2_0" tractionSubstationId="substation" current="200.2999" circuitVoltage="586.4385" alphaCircuitSolver="1.0000" speed="4.0000" acceleration="0.8000" distance="12.0000" x="-76.6230" y="-104.8000" z="0.0000" slope="0.0000" lane="gneE6_1" posOnLane="24.1000"/>
    </timestep>
    <timestep time="6.00">
        <vehicle id="test1" maximumBatteryCapacity="50000.0000" actualBatteryCapacity="22911.4167" energyConsumed="26.0440" energyCharged="-26.0440" power="-nan(ind)" overheadWireId="" tractionSubstationId="" current="-nan(ind)" circuitVoltage="-nan(ind)" alphaCircuitSolver="-nan(ind)" speed="4.8000" acceleration="0.8000" distance="16.8000" x="28.4665" y="-1.6000" z="0.0000" slope="0.0000" lane="gneE0_0" posOnLane="28.9000"/>
        <vehicle id="test3" maximumBatteryCapacity="50000.0000" actualBatteryCapacity="23046.4868" energyConsumed="26.0440" energyCharged="10.0000" power="133758.5475" overheadWireId="ovrhdWrSgmnt_gneE6_2_0" tractionSubstationId="substation" current="228.7405" circuitVoltage="584.7610" alphaCircuitSolver="1.0000" speed="4.8000" acceleration="0.8000" distance="16.8000" x="-71.9670" y="-104.8000" z="0.0000" slope="0.0000" lane="gneE6_1" posOnLane="28.9000"/>
    </timestep>
    <timestep time="7.00">
        <vehicle id="test1" maximumBatteryCapacity="50000.0000" actualBatteryCapacity="22880.8312" energyConsumed="30.5856" energyCharged="-30.5856" power="-nan(ind)" overheadWireId="" tractionSubstationId="" current="-nan(ind)" circuitVoltage="-nan(ind)" alphaCircuitSolver="-nan(ind)" speed="5.6000" acceleration="0.8000" distance="22.4000" x="33.9825" y="-1.6000" z="0.0000" slope="0.0000" lane="gneE0_0" posOnLane="34.5000"/>
        <vehicle id="test3" maximumBatteryCapacity="50000.0000" actualBatteryCapacity="23056.4868" energyConsumed="30.5856" energyCharged="10.0000" power="150108.0738" overheadWireId="ovrhdWrSgmnt_gneE6_2_0" tractionSubstationId="substation" current="257.3968" circuitVoltage="583.1777" alphaCircuitSolver="1.0000" speed="5.6000" acceleration="0.8000" distance="22.4000" x="-66.5350" y="-104.8000" z="0.0000" slope="0.0000" lane="gneE6_1" posOnLane="34.5000"/>
    </timestep>
    <timestep time="8.00">
        <vehicle id="test1" maximumBatteryCapacity="50000.0000" actualBatteryCapacity="22845.6864" energyConsumed="35.1448" energyCharged="-35.1448" power="-nan(ind)" overheadWireId="" tractionSubstationId="" current="-nan(ind)" circuitVoltage="-nan(ind)" alphaCircuitSolver="-nan(ind)" speed="6.4000" acceleration="0.8000" distance="28.8000" x="40.2865" y="-1.6000" z="0.0000" slope="0.0000" lane="gneE0_0" posOnLane="40.9000"/>
        <vehicle id="test3" maximumBatteryCapacity="50000.0000" actualBatteryCapacity="23066.4868" energyConsumed="35.1448" energyCharged="10.0000" power="166521.2537" overheadWireId="ovrhdWrSgmnt_gneE6_2_0" tractionSubstationId="substation" current="286.2640" circuitVoltage="581.7051" alphaCircuitSolver="1.0000" speed="6.4000" acceleration="0.8000" distance="28.8000" x="-60.3270" y="-104.8000" z="0.0000" slope="0.0000" lane="gneE6_1" posOnLane="40.9000"/>
    </timestep>
    <timestep time="9.00">
        <vehicle id="test1" maximumBatteryCapacity="50000.0000" actualBatteryCapacity="22805.9622" energyConsumed="39.7242" energyCharged="-39.7242" power="-nan(ind)" overheadWireId="" tractionSubstationId="" current="-nan(ind)" circuitVoltage="-nan(ind)" alphaCircuitSolver="-nan(ind)" speed="7.2000" acceleration="0.8000" distance="36.0000" x="47.3785" y="-1.6000" z="0.0000" slope="0.0000" lane="gneE0_0" posOnLane="48.1000"/>
        <vehicle id="test3" maximumBatteryCapacity="50000.0000" actualBatteryCapacity="23076.4868" energyConsumed="39.7242" energyCharged="10.0000" power="183007.1806" overheadWireId="ovrhdWrSgmnt_gneE6_2_0" tractionSubstationId="substation" current="315.3337" circuitVoltage="580.3604" alphaCircuitSolver="1.0000" speed="7.2000" acceleration="0.8000" distance="36.0000" x="-53.3430" y="-104.8000" z="0.0000" slope="0.0000" lane="gneE6_1" posOnLane="48.1000"/>
    </timestep>
    <timestep time="10.00">
        <vehicle id="test1" maximumBatteryCapacity="50000.0000" actualBatteryCapacity="22761.6358" energyConsumed="44.3264" energyCharged="-44.3264" power="-nan(ind)" overheadWireId="" tractionSubstationId="" current="-nan(ind)" circuitVoltage="-nan(ind)" alphaCircuitSolver="-nan(ind)" speed="8.0000" acceleration="0.8000" distance="44.0000" x="55.2585" y="-1.6000" z="0.0000" slope="0.0000" lane="gneE0_0" posOnLane="56.1000"/>
        <vehicle id="test3" maximumBatteryCapacity="50000.0000" actualBatteryCapacity="23086.4868" energyConsumed="44.3264" energyCharged="10.0000" power="199574.9476" overheadWireId="ovrhdWrSgmnt_gneE7_0_1" tractionSubstationId="substation" current="344.5487" circuitVoltage="579.2359" alphaCircuitSolver="1.0000" speed="8.0000" acceleration="0.8000" distance="44.0000" x="-46.0184" y="-104.8000" z="0.0000" slope="0.0000" lane="gneE7_0" posOnLane="2.6400"/>
    </timestep>
    <timestep time="11.00">
        <vehicle id="test1" maximumBatteryCapacity="50000.0000" actualBatteryCapacity="22712.6820" energyConsumed="48.9538" energyCharged="-48.9538" power="-nan(ind)" overheadWireId="" tractionSubstationId="" current="-nan(ind)" circuitVoltage="-nan(ind)" alphaCircuitSolver="-nan(ind)" speed="8.8000" acceleration="0.8000" distance="52.8000" x="63.9265" y="-1.6000" z="0.0000" slope="0.0000" lane="gneE0_0" posOnLane="64.9000"/>
        <vehicle id="test3" maximumBatteryCapacity="50000.0000" actualBatteryCapacity="23096.4868" energyConsumed="48.9538" energyCharged="10.0000" power="216233.6484" overheadWireId="ovrhdWrSgmnt_gneE7_0_1" tractionSubstationId="substation" current="373.9731" circuitVoltage="578.2064" alphaCircuitSolver="1.0000" speed="8.8000" acceleration="0.8000" distance="52.8000" x="-37.7464" y="-104.8000" z="0.0000" slope="0.0000" lane="gneE7_0" posOnLane="11.4400"/>
    </timestep>
    <timestep time="12.00">
        <vehicle id="test1" maximumBatteryCapacity="50000.0000" actualBatteryCapacity="22659.0730" energyConsumed="53.6090" energyCharged="-53.6090" power="-nan(ind)" overheadWireId="" tractionSubstationId="" current="-nan(ind)" circuitVoltage="-nan(ind)" alphaCircuitSolver="-nan(ind)" speed="9.6000" acceleration="0.8000" distance="62.4000" x="73.3825" y="-1.6000" z="0.0000" slope="0.0000" lane="gneE0_0" posOnLane="74.5000"/>
        <vehicle id="test3" maximumBatteryCapacity="50000.0000" actualBatteryCapacity="23106.4868" energyConsumed="53.6090" energyCharged="10.0000" power="232992.3761" overheadWireId="ovrhdWrSgmnt_gneE7_0_1" tractionSubstationId="substation" current="403.5490" circuitVoltage="577.3584" alphaCircuitSolver="1.0000" speed="9.6000" acceleration="0.8000" distance="62.4000" x="-28.7224" y="-104.8000" z="0.0000" slope="0.0000" lane="gneE7_0" posOnLane="21.0400"/>
    </timestep>
    <timestep time="13.00">
        <vehicle id="test1" maximumBatteryCapacity="50000.0000" actualBatteryCapacity="22659.0380" energyConsumed="0.0350" energyCharged="-0.0350" power="-nan(ind)" overheadWireId="" tractionSubstationId="" current="-nan(ind)" circuitVoltage="-nan(ind)" alphaCircuitSolver="-nan(ind)" speed="8.9978" acceleration="-0.6022" distance="71.3978" x="82.2453" y="-1.6000" z="0.0000" slope="0.0000" lane="gneE0_0" posOnLane="83.4978"/>
        <vehicle id="test3" maximumBatteryCapacity="50000.0000" actualBatteryCapacity="23116.4868" energyConsumed="55.8642" energyCharged="10.0000" power="241111.1111" overheadWireId="ovrhdWrSgmnt_gneE7_0_1" tractionSubstationId="substation" current="417.4698" circuitVoltage="577.5534" alphaCircuitSolver="1.0000" speed="10.3451" acceleration="0.7451" distance="72.7451" x="-18.9980" y="-104.8000" z="0.0000" slope="0.0000" lane="gneE7_0" posOnLane="31.3851"/>
    </timestep>
    <timestep time="14.00">
        <vehicle id="test1" maximumBatteryCapacity="50000.0000" actualBatteryCapacity="22670.5160" energyConsumed="-11.4781" energyCharged="11.4781" power="-nan(ind)" overheadWireId="" tractionSubstationId="" current="-nan(ind)" circuitVoltage="-nan(ind)" alphaCircuitSolver="-nan(ind)" speed="7.9978" acceleration="-1.0000" distance="79.3956" x="90.1231" y="-1.6000" z="0.0000" slope="0.0000" lane="gneE0_0" posOnLane="91.4956"/>
        <vehicle id="test3" maximumBatteryCapacity="50000.0000" actualBatteryCapacity="23126.4868" energyConsumed="55.8642" energyCharged="10.0000" power="241111.1111" overheadWireId="ovrhdWrSgmnt_gneE7_0_1" tractionSubstationId="substation" current="416.6923" circuitVoltage="578.6311" alphaCircuitSolver="1.0000" speed="11.0003" acceleration="0.6552" distance="83.7455" x="-8.6577" y="-104.8000" z="0.0000" slope="0.0000" lane="gneE7_0" posOnLane="42.3855"/>
    </timestep>
    <timestep time="15.00">
        <vehicle id="test1" maximumBatteryCapacity="50000.0000" actualBatteryCapacity="22680.8008" energyConsumed="-10.2847" energyCharged="10.2847" power="-nan(ind)" overheadWireId="" tractionSubstationId="" current="-nan(ind)" circuitVoltage="-nan(ind)" alphaCircuitSolver="-nan(ind)" speed="6.9978" acceleration="-1.0000" distance="86.3933" x="97.0159" y="-1.6000" z="0.0000" slope="0.0000" lane="gneE0_0" posOnLane="98.4933"/>
        <vehicle id="test3" maximumBatteryCapacity="50000.0000" actualBatteryCapacity="23136.4868" energyConsumed="55.8642" energyCharged="10.0000" power="241111.1111" overheadWireId="ovrhd_inner_:gneJ10_0_0" tractionSubstationId="substation" current="415.8798" circuitVoltage="579.7616" alphaCircuitSolver="1.0000" speed="11.5846" acceleration="0.5842" distance="95.3300" x="0.5606" y="-111.3938" z="0.0000" slope="0.0000" lane=":gneJ10_0_0" posOnLane="3.9700"/>
    </timestep>
    <timestep time="16.00">
        <vehicle id="test1" maximumBatteryCapacity="50000.0000" actualBatteryCapacity="22689.8642" energyConsumed="-9.0634" energyCharged="9.0634" power="-nan(ind)" overheadWireId="" tractionSubstationId="" current="-nan(ind)" circuitVoltage="-nan(ind)" alphaCircuitSolver="-nan(ind)" speed="5.9978" acceleration="-1.0000" distance="92.3911" x="102.4808" y="-4.2000" z="0.0000" slope="0.0000" lane="gneE1_0" posOnLane="1.0111"/>
        <vehicle id="test3" maximumBatteryCapacity="50000.0000" actualBatteryCapacity="23146.4868" energyConsumed="55.8642" energyCharged="10.0000" power="241111.1111" overheadWireId="ovrhdWrSgmnt_gneE8_0_2" tractionSubstationId="substation" current="415.0372" circuitVoltage="580.9386" alphaCircuitSolver="1.0000" speed="12.1110" acceleration="0.5264" distance="107.4411" x="11.5950" y="-114.4000" z="0.0000" slope="0.0000" lane="gneE8_0" posOnLane="10.3011"/>
    </timestep>
    <timestep time="17.00">
        <vehicle id="test1" maximumBatteryCapacity="50000.0000" actualBatteryCapacity="22697.6823" energyConsumed="-7.8181" energyCharged="7.8181" power="-nan(ind)" overheadWireId="" tractionSubstationId="" current="-nan(ind)" circuitVoltage="-nan(ind)" alphaCircuitSolver="-nan(ind)" speed="4.9978" acceleration="-1.0000" distance="97.3889" x="107.3286" y="-4.2000" z="0.0000" slope="0.0000" lane="gneE1_0" posOnLane="6.0089"/>
        <vehicle id="test3" maximumBatteryCapacity="50000.0000" actualBatteryCapacity="23156.4868" energyConsumed="55.8642" energyCharged="10.0000" power="241111.1111" overheadWireId="ovrhdWrSgmnt_gneE8_0_2" tractionSubstationId="substation" current="414.1686" circuitVoltage="582.1569" alphaCircuitSolver="1.0000" speed="12.5893" acceleration="0.4782" distance="120.0303" x="23.9325" y="-114.4000" z="0.0000" slope="0.0000" lane="gneE8_0" posOnLane="22.8903"/>
    </timestep>
    <timestep time="18.00">
        <vehicle id="test1" maximumBatteryCapacity="50000.0000" actualBatteryCapacity="22704.2352" energyConsumed="-6.5529" energyCharged="6.5529" power="-nan(ind)" overheadWireId="" tractionSubstationId="" current="-nan(ind)" circuitVoltage="-nan(ind)" alphaCircuitSolver="-nan(ind)" speed="3.9978" acceleration="-1.0000" distance="101.3867" x="111.2065" y="-4.2000" z="0.0000" slope="0.0000" lane="gneE1_0" posOnLane="10.0067"/>
        <vehicle id="test3" maximumBatteryCapacity="50000.0000" actualBatteryCapacity="23166.4868" energyConsumed="55.8642" energyCharged="10.0000" power="241111.1111" overheadWireId="ovrhdWrSgmnt_gneE8_0_2" tractionSubstationId="substation" current="413.2776" circuitVoltage="583.4119" alphaCircuitSolver="1.0000" speed="13.0265" acceleration="0.4373" distance="133.0569" x="36.6985" y="-114.4000" z="0.0000" slope="0.0000" lane="gneE8_0" posOnLane="35.9169"/>
    </timestep>
    <timestep time="19.00">
        <vehicle id="test1" maximumBatteryCapacity="50000.0000" actualBatteryCapacity="22709.5068" energyConsumed="-5.2717" energyCharged="5.2717" power="-nan(ind)" overheadWireId="" tractionSubstationId="" current="-nan(ind)" circuitVoltage="-nan(ind)" alphaCircuitSolver="-nan(ind)" speed="2.9978" acceleration="-1.0000" distance="104.3844" x="114.1143" y="-4.2000" z="0.0000" slope="0.0000" lane="gneE1_0" posOnLane="13.0044"/>
        <vehicle id="test3" maximumBatteryCapacity="50000.0000" actualBatteryCapacity="23176.4868" energyConsumed="55.8642" energyCharged="10.0000" power="241111.1111" overheadWireId="ovrhdWrSgmnt_gneE8_0_2" tractionSubstationId="substation" current="412.3673" circuitVoltage="584.6999" alphaCircuitSolver="1.0000" speed="13.4285" acceleration="0.4020" distance="146.4854" x="49.8585" y="-114.4000" z="0.0000" slope="0.0000" lane="gneE8_0" posOnLane="49.3454"/>
    </timestep>
    <timestep time="20.00">
        <vehicle id="test1" maximumBatteryCapacity="50000.0000" actualBatteryCapacity="22713.4853" energyConsumed="-3.9785" energyCharged="3.9785" power="-nan(ind)" overheadWireId="" tractionSubstationId="" current="-nan(ind)" circuitVoltage="-nan(ind)" alphaCircuitSolver="-nan(ind)" speed="1.9978" acceleration="-1.0000" distance="106.3822" x="116.0522" y="-4.2000" z="0.0000" slope="0.0000" lane="gneE1_0" posOnLane="15.0022"/>
        <vehicle id="test3" maximumBatteryCapacity="50000.0000" actualBatteryCapacity="23186.4868" energyConsumed="49.0650" energyCharged="10.0000" power="216634.1421" overheadWireId="ovrhdWrSgmnt_gneE8_0_2" tractionSubstationId="substation" current="368.7653" circuitVoltage="587.4580" alphaCircuitSolver="1.0000" speed="13.6824" acceleration="0.2539" distance="160.1678" x="63.2672" y="-114.4000" z="0.0000" slope="0.0000" lane="gneE8_0" posOnLane="63.0278"/>
    </timestep>
    <timestep time="21.00">
        <vehicle id="test1" maximumBatteryCapacity="50000.0000" actualBatteryCapacity="22716.1626" energyConsumed="-2.6773" energyCharged="2.6773" power="-nan(ind)" overheadWireId="" tractionSubstationId="" current="-nan(ind)" circuitVoltage="-nan(ind)" alphaCircuitSolver="-nan(ind)" speed="0.9978" acceleration="-1.0000" distance="107.3800" x="117.0200" y="-4.2000" z="0.0000" slope="0.0000" lane="gneE1_0" posOnLane="16.0000"/>
        <vehicle id="test3" maximumBatteryCapacity="50000.0000" actualBatteryCapacity="23197.5979" energyConsumed="-16.5775" energyCharged="11.1111" power="-19679.0700" overheadWireId="ovrhdWrSgmnt_gneE8_0_2" tractionSubstationId="substation" current="-32.7428" circuitVoltage="601.0198" alphaCircuitSolver="1.0000" speed="12.6824" acceleration="-1.0000" distance="172.8502" x="75.6960" y="-114.4000" z="0.0000" slope="0.0000" lane="gneE8_0" posOnLane="75.7102"/>
    </timestep>
    <timestep time="22.00">
        <vehicle id="test1" maximumBatteryCapacity="50000.0000" actualBatteryCapacity="22717.5303" energyConsumed="-1.3678" energyCharged="1.3678" power="-nan(ind)" overheadWireId="" tractionSubstationId="" current="-nan(ind)" circuitVoltage="-nan(ind)" alphaCircuitSolver="-nan(ind)" speed="0.0000" acceleration="-0.9978" distance="107.3800" x="117.0200" y="-4.2000" z="0.0000" slope="0.0000" lane="gneE1_0" posOnLane="16.0000"/>
        <vehicle id="test3" maximumBatteryCapacity="50000.0000" actualBatteryCapacity="23208.7090" energyConsumed="-15.5684" energyCharged="11.1111" power="-16046.1852" overheadWireId="ovrhdWrSgmnt_gneE8_0_2" tractionSubstationId="substation" current="-26.7097" circuitVoltage="600.7613" alphaCircuitSolver="1.0000" speed="11.6824" acceleration="-1.0000" distance="184.5326" x="87.1447" y="-114.4000" z="0.0000" slope="0.0000" lane="gneE8_0" posOnLane="87.3926"/>
    </timestep>
    <timestep time="23.00">
        <vehicle id="test1" maximumBatteryCapacity="50000.0000" actualBatteryCapacity="22717.2217" energyConsumed="0.3086" energyCharged="-0.3086" power="-nan(ind)" overheadWireId="" tractionSubstationId="" current="-nan(ind)" circuitVoltage="-nan(ind)" alphaCircuitSolver="-nan(ind)" speed="0.0000" acceleration="0.0000" distance="107.3800" x="117.0200" y="-4.2000" z="0.0000" slope="0.0000" lane="gneE1_0" posOnLane="16.0000"/>
        <vehicle id="test3" maximumBatteryCapacity="50000.0000" actualBatteryCapacity="23219.8202" energyConsumed="-14.5126" energyCharged="11.1111" power="-12245.2377" overheadWireId="ovrhdWrSgmnt_gneE8_0_2" tractionSubstationId="substation" current="-20.3906" circuitVoltage="600.5320" alphaCircuitSolver="1.0000" speed="10.6824" acceleration="-1.0000" distance="195.2150" x="97.6135" y="-114.4000" z="0.0000" slope="0.0000" lane="gneE8_0" posOnLane="98.0750"/>
    </timestep>
    <timestep time="24.00">
        <vehicle id="test1" maximumBatteryCapacity="50000.0000" actualBatteryCapacity="22716.9131" energyConsumed="0.3086" energyCharged="-0.3086" power="-nan(ind)" overheadWireId="" tractionSubstationId="" current="-nan(ind)" circuitVoltage="-nan(ind)" alphaCircuitSolver="-nan(ind)" speed="0.0000" acceleration="0.0000" distance="107.3800" x="117.0200" y="-4.2000" z="0.0000" slope="0.0000" lane="gneE1_0" posOnLane="16.0000"/>
        <vehicle id="test3" maximumBatteryCapacity="50000.0000" actualBatteryCapacity="23230.9313" energyConsumed="-13.4141" energyCharged="11.1111" power="-8290.6132" overheadWireId="ovrhdWrSgmnt_gneE8_0_2" tractionSubstationId="substation" current="-13.8101" circuitVoltage="600.3301" alphaCircuitSolver="1.0000" speed="9.6824" acceleration="-1.0000" distance="204.8974" x="107.1022" y="-114.4000" z="0.0000" slope="0.0000" lane="gneE8_0" posOnLane="107.7574"/>
    </timestep>
    <timestep time="25.00">
        <vehicle id="test1" maximumBatteryCapacity="50000.0000" actualBatteryCapacity="22716.6044" energyConsumed="0.3086" energyCharged="-0.3086" power="-nan(ind)" overheadWireId="" tractionSubstationId="" current="-nan(ind)" circuitVoltage="-nan(ind)" alphaCircuitSolver="-nan(ind)" speed="0.0000" acceleration="0.0000" distance="107.3800" x="117.0200" y="-4.2000" z="0.0000" slope="0.0000" lane="gneE1_0" posOnLane="16.0000"/>
        <vehicle id="test3" maximumBatteryCapacity="50000.0000" actualBatteryCapacity="23242.0424" energyConsumed="-12.2769" energyCharged="11.1111" power="-4196.6978" overheadWireId="ovrhdWrSgmnt_gneE8_0_2" tractionSubstationId="substation" current="-6.9927" circuitVoltage="600.1534" alphaCircuitSolver="1.0000" speed="8.6824" acceleration="-1.0000" distance="213.5798" x="115.6110" y="-114.4000" z="0.0000" slope="0.0000" lane="gneE8_0" posOnLane="116.4398"/>
    </timestep>
    <timestep time="26.00">
        <vehicle id="test1" maximumBatteryCapacity="50000.0000" actualBatteryCapacity="22716.2958" energyConsumed="0.3086" energyCharged="-0.3086" power="-nan(ind)" overheadWireId="" tractionSubstationId="" current="-nan(ind)" circuitVoltage="-nan(ind)" alphaCircuitSolver="-nan(ind)" speed="0.0000" acceleration="0.0000" distance="107.3800" x="117.0200" y="-4.2000" z="0.0000" slope="0.0000" lane="gneE1_0" posOnLane="16.0000"/>
        <vehicle id="test3" maximumBatteryCapacity="50000.0000" actualBatteryCapacity="23253.1529" energyConsumed="-11.1050" energyCharged="11.1105" power="22.1225" overheadWireId="ovrhdWrSgmnt_gneE8_0_2" tractionSubstationId="substation" current="0.0369" circuitVoltage="599.9993" alphaCircuitSolver="1.0000" speed="7.6824" acceleration="-1.0000" distance="221.2622" x="123.1397" y="-114.4000" z="0.0000" slope="0.0000" lane="gneE8_0" posOnLane="124.1222"/>
    </timestep>
    <timestep time="27.00">
        <vehicle id="test1" maximumBatteryCapacity="50000.0000" actualBatteryCapacity="22715.9871" energyConsumed="0.3086" energyCharged="-0.3086" power="-nan(ind)" overheadWireId="" tractionSubstationId="" current="-nan(ind)" circuitVoltage="-nan(ind)" alphaCircuitSolver="-nan(ind)" speed="0.0000" acceleration="0.0000" distance="107.3800" x="117.0200" y="-4.2000" z="0.0000" slope="0.0000" lane="gneE1_0" posOnLane="16.0000"/>
        <vehicle id="test3" maximumBatteryCapacity="50000.0000" actualBatteryCapacity="23264.1431" energyConsumed="-9.9024" energyCharged="10.9902" power="4351.4617" overheadWireId="ovrhdWrSgmnt_gneE8_0_2" tractionSubstationId="substation" current="7.2541" circuitVoltage="599.8644" alphaCircuitSolver="1.0000" speed="6.6824" acceleration="-1.0000" distance="227.9446" x="129.6885" y="-114.4000" z="0.0000" slope="0.0000" lane="gneE8_0" posOnLane="130.8046"/>
    </timestep>
    <timestep time="28.00">
        <vehicle id="test1" maximumBatteryCapacity="50000.0000" actualBatteryCapacity="22715.6785" energyConsumed="0.3086" energyCharged="-0.3086" power="-nan(ind)" overheadWireId="" tractionSubstationId="" current="-nan(ind)" circuitVoltage="-nan(ind)" alphaCircuitSolver="-nan(ind)" speed="0.0000" acceleration="0.0000" distance="107.3800" x="117.0200" y="-4.2000" z="0.0000" slope="0.0000" lane="gneE1_0" posOnLane="16.0000"/>
        <vehicle id="test3" maximumBatteryCapacity="50000.0000" actualBatteryCapacity="23275.0104" energyConsumed="-8.6731" energyCharged="10.8673" power="8776.9339" overheadWireId="ovrhdWrSgmnt_gneE8_0_2" tractionSubstationId="substation" current="14.6344" circuitVoltage="599.7452" alphaCircuitSolver="1.0000" speed="5.6824" acceleration="-1.0000" distance="233.6270" x="135.2572" y="-114.4000" z="0.0000" slope="0.0000" lane="gneE8_0" posOnLane="136.4870"/>
    </timestep>
    <timestep time="29.00">
        <vehicle id="test1" maximumBatteryCapacity="50000.0000" actualBatteryCapacity="22715.3699" energyConsumed="0.3086" energyCharged="-0.3086" power="-nan(ind)" overheadWireId="" tractionSubstationId="" current="-nan(ind)" circuitVoltage="-nan(ind)" alphaCircuitSolver="-nan(ind)" speed="0.0000" acceleration="0.0000" distance="107.3800" x="117.0200" y="-4.2000" z="0.0000" slope="0.0000" lane="gneE1_0" posOnLane="16.0000"/>
        <vehicle id="test3" maximumBatteryCapacity="50000.0000" actualBatteryCapacity="23285.7525" energyConsumed="-7.4211" energyCharged="10.7421" power="13284.1530" overheadWireId="ovrhdWrSgmnt_gneE8_0_2" tractionSubstationId="substation" current="22.1536" circuitVoltage="599.6378" alphaCircuitSolver="1.0000" speed="4.6824" acceleration="-1.0000" distance="238.3094" x="139.8460" y="-114.4000" z="0.0000" slope="0.0000" lane="gneE8_0" posOnLane="141.1694"/>
    </timestep>
    <timestep time="30.00">