<?xml version="1.0" encoding="UTF-8"?>

<!-- generated on 2025-04-04 21:54:38 by Eclipse SUMO sumo Version v1_22_0+1289-ef3b4f11f20
This data file and the accompanying materials
are made available under the terms of the Eclipse Public License v2.0
which accompanies this distribution, and is available at
http://www.eclipse.org/legal/epl-v20.html
This file may also be made available under the following Secondary
Licenses when the conditions for such availability set forth in the Eclipse
Public License 2.0 are satisfied: GNU General Public License, version 2
or later which is available at
https://www.gnu.org/licenses/old-licenses/gpl-2.0-standalone.html
SPDX-License-Identifier: EPL-2.0 OR GPL-2.0-or-later
<sumoConfiguration xmlns:xsi="http://www.w3.org/2001/XMLSchema-instance" xsi:noNamespaceSchemaLocation="http://sumo.dlr.de/xsd/sumoConfiguration.xsd">

    <input>
        <net-file value="elechybrid_1.net.xml"/>
        <route-files value="trolleybus.rou.xml"/>
        <additional-files value="busstop.add.xml,overheadwires.add.xml"/>
    </input>

    <output>
        <write-license value="true"/>
        <elechybrid-output value="elechybrid_out.xml"/>
        <elechybrid-output.precision value="4"/>
        <elechybrid-output.aggregated value="true"/>
        <overheadwiresegments-output value="overheadwires_out.xml"/>
        <substations-output value="substation_out.xml"/>
    </output>

    <time>
        <end value="100"/>
    </time>

    <processing>
        <default.speeddev value="0"/>
        <overhead-wire.solver value="true"/>
    </processing>

    <report>
        <xml-validation value="never"/>
        <duration-log.disable value="true"/>
        <no-step-log value="true"/>
    </report>

    <elechybrid_device>
        <device.elechybrid.explicit value="test1,test3"/>
    </elechybrid_device>

</sumoConfiguration>
-->

<elecHybrid-export-aggregated xmlns:xsi="http://www.w3.org/2001/XMLSchema-instance" xsi:noNamespaceSchemaLocation="http://sumo.dlr.de/xsd/" recuperationEnabled="1">
    <timestep time="0.00">
        <vehicle id="test1" maximumBatteryCapacity="50000.0000" actualBatteryCapacity="23000.0000" energyConsumed="0.0000" energyCharged="0.0000" power="nan" overheadWireId="" tractionSubstationId="" current="nan" circuitVoltage="nan" alphaCircuitSolver="nan" speed="0.0000" acceleration="0.0000" distance="0.0000" x="11.9185" y="-1.6000" z="0.0000" slope="0.0000" lane="gneE0_0" posOnLane="12.1000"/>
        <vehicle id="test3" maximumBatteryCapacity="50000.0000" actualBatteryCapacity="23000.0000" energyConsumed="0.0000" energyCharged="0.0000" power="nan" overheadWireId="" tractionSubstationId="" current="nan" circuitVoltage="nan" alphaCircuitSolver="nan" speed="0.0000" acceleration="0.0000" distance="0.0000" x="-88.2630" y="-108.0000" z="0.0000" slope="0.0000" lane="gneE6_0" posOnLane="12.1000"/>
    </timestep>
    <timestep time="1.00">
        <vehicle id="test1" maximumBatteryCapacity="50000.0000" actualBatteryCapacity="22996.5078" energyConsumed="3.4922" energyCharged="-3.4922" power="nan" overheadWireId="" tractionSubstationId="" current="nan" circuitVoltage="nan" alphaCircuitSolver="nan" speed="0.8000" acceleration="0.8000" distance="0.8000" x="12.7065" y="-1.6000" z="0.0000" slope="0.0000" lane="gneE0_0" posOnLane="12.9000"/>
        <vehicle id="test3" maximumBatteryCapacity="50000.0000" actualBatteryCapacity="22996.5078" energyConsumed="3.4922" energyCharged="-3.4922" power="nan" overheadWireId="" tractionSubstationId="" current="nan" circuitVoltage="nan" alphaCircuitSolver="nan" speed="0.8000" acceleration="0.8000" distance="0.8000" x="-87.4870" y="-104.8000" z="0.0000" slope="0.0000" lane="gneE6_1" posOnLane="12.9000"/>
    </timestep>
    <timestep time="2.00">
        <vehicle id="test1" maximumBatteryCapacity="50000.0000" actualBatteryCapacity="22988.5048" energyConsumed="8.0030" energyCharged="-8.0030" power="nan" overheadWireId="" tractionSubstationId="" current="nan" circuitVoltage="nan" alphaCircuitSolver="nan" speed="1.6000" acceleration="0.8000" distance="2.4000" x="14.2825" y="-1.6000" z="0.0000" slope="0.0000" lane="gneE0_0" posOnLane="14.5000"/>
        <vehicle id="test3" maximumBatteryCapacity="50000.0000" actualBatteryCapacity="23006.5078" energyConsumed="8.0030" energyCharged="10.0000" power="68810.6551" overheadWireId="ovrhdWrSgmnt_gneE6_2_0" tractionSubstationId="substation" current="116.2585" circuitVoltage="591.8764" alphaCircuitSolver="1.0000" speed="1.6000" acceleration="0.8000" distance="2.4000" x="-85.9350" y="-104.8000" z="0.0000" slope="0.0000" lane="gneE6_1" posOnLane="14.5000"/>
    </timestep>
    <timestep time="3.00">
        <vehicle id="test1" maximumBatteryCapacity="50000.0000" actualBatteryCapacity="22975.9861" energyConsumed="12.5188" energyCharged="-12.5188" power="nan" overheadWireId="" tractionSubstationId="" current="nan" circuitVoltage="nan" alphaCircuitSolver="nan" speed="2.4000" acceleration="0.8000" distance="4.8000" x="16.6465" y="-1.6000" z="0.0000" slope="0.0000" lane="gneE0_0" posOnLane="16.9000"/>
        <vehicle id="test3" maximumBatteryCapacity="50000.0000" actualBatteryCapacity="23016.5078" energyConsumed="12.5188" energyCharged="10.0000" power="85067.6049" overheadWireId="ovrhdWrSgmnt_gneE6_2_0" tractionSubstationId="substation" current="144.1815" circuitVoltage="590.0034" alphaCircuitSolver="1.0000" speed="2.4000" acceleration="0.8000" distance="4.8000" x="-83.6070" y="-104.8000" z="0.0000" slope="0.0000" lane="gneE6_1" posOnLane="16.9000"/>
    </timestep>
    <timestep time="4.00">
        <vehicle id="test1" maximumBatteryCapacity="50000.0000" actualBatteryCapacity="22958.9439" energyConsumed="17.0422" energyCharged="-17.0422" power="nan" overheadWireId="" tractionSubstationId="" current="nan" circuitVoltage="nan" alphaCircuitSolver="nan" speed="3.2000" acceleration="0.8000" distance="8.0000" x="19.7985" y="-1.6000" z="0.0000" slope="0.0000" lane="gneE0_0" posOnLane="20.1000"/>
        <vehicle id="test3" maximumBatteryCapacity="50000.0000" actualBatteryCapacity="23026.5078" energyConsumed="17.0422" energyCharged="10.0000" power="101351.8348" overheadWireId="ovrhdWrSgmnt_gneE6_2_0" tractionSubstationId="substation" current="172.3151" circuitVoltage="588.1775" alphaCircuitSolver="1.0000" speed="3.2000" acceleration="0.8000" distance="8.0000" x="-80.5030" y="-104.8000" z="0.0000" slope="0.0000" lane="gneE6_1" posOnLane="20.1000"/>
    </timestep>
    <timestep time="5.00">
        <vehicle id="test1" maximumBatteryCapacity="50000.0000" actualBatteryCapacity="22937.3682" energyConsumed="21.5757" energyCharged="-21.5757" power="nan" overheadWireId="" tractionSubstationId="" current="nan" circuitVoltage="nan" alphaCircuitSolver="nan" speed="4.0000" acceleration="0.8000" distance="12.0000" x="23.7385" y="-1.6000" z="0.0000" slope="0.0000" lane="gneE0_0" posOnLane="24.1000"/>
        <vehicle id="test3" maximumBatteryCapacity="50000.0000" actualBatteryCapacity="23036.5078" energyConsumed="21.5757" energyCharged="10.0000" power="117672.4382" overheadWireId="ovrhdWrSgmnt_gneE6_2_0" tractionSubstationId="substation" current="200.6645" circuitVoltage="586.4138" alphaCircuitSolver="1.0000" speed="4.0000" acceleration="0.8000" distance="12.0000" x="-76.6230" y="-104.8000" z="0.0000" slope="0.0000" lane="gneE6_1" posOnLane="24.1000"/>
    </timestep>
    <timestep time="6.00">
        <vehicle id="test1" maximumBatteryCapacity="50000.0000" actualBatteryCapacity="22911.2464" energyConsumed="26.1218" energyCharged="-26.1218" power="nan" overheadWireId="" tractionSubstationId="" current="nan" circuitVoltage="nan" alphaCircuitSolver="nan" speed="4.8000" acceleration="0.8000" distance="16.8000" x="28.4665" y="-1.6000" z="0.0000" slope="0.0000" lane="gneE0_0" posOnLane="28.9000"/>
        <vehicle id="test3" maximumBatteryCapacity="50000.0000" actualBatteryCapacity="23046.5078" energyConsumed="26.1218" energyCharged="10.0000" power="134038.5084" overheadWireId="ovrhdWrSgmnt_gneE6_2_0" tractionSubstationId="substation" current="229.2321" circuitVoltage="584.7283" alphaCircuitSolver="1.0000" speed="4.8000" acceleration="0.8000" distance="16.8000" x="-71.9670" y="-104.8000" z="0.0000" slope="0.0000" lane="gneE6_1" posOnLane="28.9000"/>
    </timestep>
    <timestep time="7.00">
        <vehicle id="test1" maximumBatteryCapacity="50000.0000" actualBatteryCapacity="22880.5633" energyConsumed="30.6831" energyCharged="-30.6831" power="nan" overheadWireId="" tractionSubstationId="" current="nan" circuitVoltage="nan" alphaCircuitSolver="nan" speed="5.6000" acceleration="0.8000" distance="22.4000" x="33.9825" y="-1.6000" z="0.0000" slope="0.0000" lane="gneE0_0" posOnLane="34.5000"/>
        <vehicle id="test3" maximumBatteryCapacity="50000.0000" actualBatteryCapacity="23056.5078" energyConsumed="30.6831" energyCharged="10.0000" power="150459.1387" overheadWireId="ovrhdWrSgmnt_gneE6_2_0" tractionSubstationId="substation" current="258.0167" circuitVoltage="583.1372" alphaCircuitSolver="1.0000" speed="5.6000" acceleration="0.8000" distance="22.4000" x="-66.5350" y="-104.8000" z="0.0000" slope="0.0000" lane="gneE6_1" posOnLane="34.5000"/>
    </timestep>
    <timestep time="8.00">
        <vehicle id="test1" maximumBatteryCapacity="50000.0000" actualBatteryCapacity="22845.3013" energyConsumed="35.2621" energyCharged="-35.2621" power="nan" overheadWireId="" tractionSubstationId="" current="nan" circuitVoltage="nan" alphaCircuitSolver="nan" speed="6.4000" acceleration="0.8000" distance="28.8000" x="40.2865" y="-1.6000" z="0.0000" slope="0.0000" lane="gneE0_0" posOnLane="40.9000"/>
        <vehicle id="test3" maximumBatteryCapacity="50000.0000" actualBatteryCapacity="23066.5078" energyConsumed="35.2621" energyCharged="10.0000" power="166943.4226" overheadWireId="ovrhdWrSgmnt_gneE6_2_0" tractionSubstationId="substation" current="287.0134" circuitVoltage="581.6572" alphaCircuitSolver="1.0000" speed="6.4000" acceleration="0.8000" distance="28.8000" x="-60.3270" y="-104.8000" z="0.0000" slope="0.0000" lane="gneE6_1" posOnLane="40.9000"/>
    </timestep>
    <timestep time="9.00">
        <vehicle id="test1" maximumBatteryCapacity="50000.0000" actualBatteryCapacity="22805.4400" energyConsumed="39.8612" energyCharged="-39.8612" power="nan" overheadWireId="" tractionSubstationId="" current="nan" circuitVoltage="nan" alphaCircuitSolver="nan" speed="7.2000" acceleration="0.8000" distance="36.0000" x="47.3785" y="-1.6000" z="0.0000" slope="0.0000" lane="gneE0_0" posOnLane="48.1000"/>
        <vehicle id="test3" maximumBatteryCapacity="50000.0000" actualBatteryCapacity="23076.5078" energyConsumed="39.8612" energyCharged="10.0000" power="183500.4535" overheadWireId="ovrhdWrSgmnt_gneE6_2_0" tractionSubstationId="substation" current="316.2135" circuitVoltage="580.3056" alphaCircuitSolver="1.0000" speed="7.2000" acceleration="0.8000" distance="36.0000" x="-53.3430" y="-104.8000" z="0.0000" slope="0.0000" lane="gneE6_1" posOnLane="48.1000"/>
    </timestep>
    <timestep time="10.00">
        <vehicle id="test1" maximumBatteryCapacity="50000.0000" actualBatteryCapacity="22760.9569" energyConsumed="44.4831" energyCharged="-44.4831" power="nan" overheadWireId="" tractionSubstationId="" current="nan" circuitVoltage="nan" alphaCircuitSolver="nan" speed="8.0000" acceleration="0.8000" distance="44.0000" x="55.2585" y="-1.6000" z="0.0000" slope="0.0000" lane="gneE0_0" posOnLane="56.1000"/>
        <vehicle id="test3" maximumBatteryCapacity="50000.0000" actualBatteryCapacity="23086.5078" energyConsumed="44.4831" energyCharged="10.0000" power="200139.3245" overheadWireId="ovrhdWrSgmnt_gneE7_0_1" tractionSubstationId="substation" current="345.5593" circuitVoltage="579.1750" alphaCircuitSolver="1.0000" speed="8.0000" acceleration="0.8000" distance="44.0000" x="-46.0184" y="-104.8000" z="0.0000" slope="0.0000" lane="gneE7_0" posOnLane="2.6400"/>
    </timestep>
    <timestep time="11.00">
        <vehicle id="test1" maximumBatteryCapacity="50000.0000" actualBatteryCapacity="22711.8266" energyConsumed="49.1303" energyCharged="-49.1303" power="nan" overheadWireId="" tractionSubstationId="" current="nan" circuitVoltage="nan" alphaCircuitSolver="nan" speed="8.8000" acceleration="0.8000" distance="52.8000" x="63.9265" y="-1.6000" z="0.0000" slope="0.0000" lane="gneE0_0" posOnLane="64.9000"/>
        <vehicle id="test3" maximumBatteryCapacity="50000.0000" actualBatteryCapacity="23096.5078" energyConsumed="49.1303" energyCharged="10.0000" power="216869.1292" overheadWireId="ovrhdWrSgmnt_gneE7_0_1" tractionSubstationId="substation" current="375.1154" circuitVoltage="578.1398" alphaCircuitSolver="1.0000" speed="8.8000" acceleration="0.8000" distance="52.8000" x="-37.7464" y="-104.8000" z="0.0000" slope="0.0000" lane="gneE7_0" posOnLane="11.4400"/>
    </timestep>
    <timestep time="12.00">
        <vehicle id="test1" maximumBatteryCapacity="50000.0000" actualBatteryCapacity="22658.0213" energyConsumed="53.8053" energyCharged="-53.8053" power="nan" overheadWireId="" tractionSubstationId="" current="nan" circuitVoltage="nan" alphaCircuitSolver="nan" speed="9.6000" acceleration="0.8000" distance="62.4000" x="73.3825" y="-1.6000" z="0.0000" slope="0.0000" lane="gneE0_0" posOnLane="74.5000"/>
        <vehicle id="test3" maximumBatteryCapacity="50000.0000" actualBatteryCapacity="23106.5078" energyConsumed="53.8053" energyCharged="10.0000" power="233698.9610" overheadWireId="ovrhdWrSgmnt_gneE7_0_1" tractionSubstationId="substation" current="404.8229" circuitVoltage="577.2869" alphaCircuitSolver="1.0000" speed="9.6000" acceleration="0.8000" distance="62.4000" x="-28.7224" y="-104.8000" z="0.0000" slope="0.0000" lane="gneE7_0" posOnLane="21.0400"/>
    </timestep>
    <timestep time="13.00">
        <vehicle id="test1" maximumBatteryCapacity="50000.0000" actualBatteryCapacity="22658.1051" energyConsumed="-0.0839" energyCharged="0.0839" power="nan" overheadWireId="" tractionSubstationId="" current="nan" circuitVoltage="nan" alphaCircuitSolver="nan" speed="8.9978" acceleration="-0.6022" distance="71.3978" x="82.2453" y="-1.6000" z="0.0000" slope="0.0000" lane="gneE0_0" posOnLane="83.4978"/>
        <vehicle id="test3" maximumBatteryCapacity="50000.0000" actualBatteryCapacity="23116.5078" energyConsumed="55.8333" energyCharged="10.0000" power="241000.0000" overheadWireId="ovrhdWrSgmnt_gneE7_0_1" tractionSubstationId="substation" current="417.2700" circuitVoltage="577.5636" alphaCircuitSolver="1.0000" speed="10.3400" acceleration="0.7400" distance="72.7400" x="-19.0028" y="-104.8000" z="0.0000" slope="0.0000" lane="gneE7_0" posOnLane="31.3800"/>
    </timestep>
    <timestep time="14.00">
        <vehicle id="test1" maximumBatteryCapacity="50000.0000" actualBatteryCapacity="22669.7678" energyConsumed="-11.6627" energyCharged="11.6627" power="nan" overheadWireId="" tractionSubstationId="" current="nan" circuitVoltage="nan" alphaCircuitSolver="nan" speed="7.9978" acceleration="-1.0000" distance="79.3956" x="90.1231" y="-1.6000" z="0.0000" slope="0.0000" lane="gneE0_0" posOnLane="91.4956"/>
        <vehicle id="test3" maximumBatteryCapacity="50000.0000" actualBatteryCapacity="23126.5078" energyConsumed="55.8333" energyCharged="10.0000" power="241000.0000" overheadWireId="ovrhdWrSgmnt_gneE7_0_1" tractionSubstationId="substation" current="416.4939" circuitVoltage="578.6399" alphaCircuitSolver="1.0000" speed="10.9912" acceleration="0.6512" distance="83.7311" x="-8.6711" y="-104.8000" z="0.0000" slope="0.0000" lane="gneE7_0" posOnLane="42.3711"/>
    </timestep>
    <timestep time="15.00">
        <vehicle id="test1" maximumBatteryCapacity="50000.0000" actualBatteryCapacity="22680.2122" energyConsumed="-10.4444" energyCharged="10.4444" power="nan" overheadWireId="" tractionSubstationId="" current="nan" circuitVoltage="nan" alphaCircuitSolver="nan" speed="6.9978" acceleration="-1.0000" distance="86.3933" x="97.0159" y="-1.6000" z="0.0000" slope="0.0000" lane="gneE0_0" posOnLane="98.4933"/>
        <vehicle id="test3" maximumBatteryCapacity="50000.0000" actualBatteryCapacity="23136.5078" energyConsumed="55.8333" energyCharged="10.0000" power="241000.0000" overheadWireId="ovrhd_inner_:gneJ10_0_0" tractionSubstationId="substation" current="415.6830" circuitVoltage="579.7687" alphaCircuitSolver="1.0000" speed="11.5723" acceleration="0.5811" distance="95.3034" x="0.5468" y="-111.3496" z="0.0000" slope="0.0000" lane=":gneJ10_0_0" posOnLane="3.9434"/>
    </timestep>
    <timestep time="16.00">
        <vehicle id="test1" maximumBatteryCapacity="50000.0000" actualBatteryCapacity="22689.4103" energyConsumed="-9.1981" energyCharged="9.1981" power="nan" overheadWireId="" tractionSubstationId="" current="nan" circuitVoltage="nan" alphaCircuitSolver="nan" speed="5.9978" acceleration="-1.0000" distance="92.3911" x="102.4808" y="-4.2000" z="0.0000" slope="0.0000" lane="gneE1_0" posOnLane="1.0111"/>
        <vehicle id="test3" maximumBatteryCapacity="50000.0000" actualBatteryCapacity="23146.5078" energyConsumed="70.3389" energyCharged="10.0000" power="293219.9227" overheadWireId="ovrhdWrSgmnt_gneE8_0_2" tractionSubstationId="substation" current="508.4960" circuitVoltage="576.6415" alphaCircuitSolver="1.0000" speed="12.0961" acceleration="0.5239" distance="107.3996" x="11.5544" y="-114.4000" z="0.0000" slope="0.0000" lane="gneE8_0" posOnLane="10.2596"/>
    </timestep>
    <timestep time="17.00">
        <vehicle id="test1" maximumBatteryCapacity="50000.0000" actualBatteryCapacity="22695.5134" energyConsumed="-6.1031" energyCharged="6.1031" power="nan" overheadWireId="" tractionSubstationId="" current="nan" circuitVoltage="nan" alphaCircuitSolver="nan" speed="4.9978" acceleration="-1.0000" distance="97.3889" x="107.3286" y="-4.2000" z="0.0000" slope="0.0000" lane="gneE1_0" posOnLane="6.0089"/>
        <vehicle id="test3" maximumBatteryCapacity="50000.0000" actualBatteryCapacity="23156.5078" energyConsumed="64.4043" energyCharged="10.0000" power="271855.5661" overheadWireId="ovrhdWrSgmnt_gneE8_0_2" tractionSubstationId="substation" current="468.8835" circuitVoltage="579.7935" alphaCircuitSolver="1.0000" speed="12.5723" acceleration="0.4761" distance="119.9719" x="23.8752" y="-114.4000" z="0.0000" slope="0.0000" lane="gneE8_0" posOnLane="22.8319"/>
    </timestep>
    <timestep time="18.00">
        <vehicle id="test1" maximumBatteryCapacity="50000.0000" actualBatteryCapacity="22702.1416" energyConsumed="-6.6282" energyCharged="6.6282" power="nan" overheadWireId="" tractionSubstationId="" current="nan" circuitVoltage="nan" alphaCircuitSolver="nan" speed="3.9978" acceleration="-1.0000" distance="101.3867" x="111.2065" y="-4.2000" z="0.0000" slope="0.0000" lane="gneE1_0" posOnLane="10.0067"/>
        <vehicle id="test3" maximumBatteryCapacity="50000.0000" actualBatteryCapacity="23166.5078" energyConsumed="62.5642" energyCharged="10.0000" power="265231.2984" overheadWireId="ovrhdWrSgmnt_gneE8_0_2" tractionSubstationId="substation" current="455.9663" circuitVoltage="581.6906" alphaCircuitSolver="1.0000" speed="13.0079" acceleration="0.4356" distance="132.9797" x="36.6229" y="-114.4000" z="0.0000" slope="0.0000" lane="gneE8_0" posOnLane="35.8397"/>
    </timestep>
    <timestep time="19.00">
        <vehicle id="test1" maximumBatteryCapacity="50000.0000" actualBatteryCapacity="22707.0028" energyConsumed="-4.8613" energyCharged="4.8613" power="nan" overheadWireId="" tractionSubstationId="" current="nan" circuitVoltage="nan" alphaCircuitSolver="nan" speed="2.9978" acceleration="-1.0000" distance="104.3844" x="114.1143" y="-4.2000" z="0.0000" slope="0.0000" lane="gneE1_0" posOnLane="13.0044"/>
        <vehicle id="test3" maximumBatteryCapacity="50000.0000" actualBatteryCapacity="23176.5078" energyConsumed="55.8333" energyCharged="10.0000" power="241000.0000" overheadWireId="ovrhdWrSgmnt_gneE8_0_2" tractionSubstationId="substation" current="412.1787" circuitVoltage="584.6979" alphaCircuitSolver="1.0000" speed="13.4084" acceleration="0.4005" distance="146.3881" x="49.7632" y="-114.4000" z="0.0000" slope="0.0000" lane="gneE8_0" posOnLane="49.2481"/>
    </timestep>
    <timestep time="20.00">
        <vehicle id="test1" maximumBatteryCapacity="50000.0000" actualBatteryCapacity="22710.5952" energyConsumed="-3.5923" energyCharged="3.5923" power="nan" overheadWireId="" tractionSubstationId="" current="nan" circuitVoltage="nan" alphaCircuitSolver="nan" speed="1.9978" acceleration="-1.0000" distance="106.3822" x="116.0522" y="-4.2000" z="0.0000" slope="0.0000" lane="gneE1_0" posOnLane="15.0022"/>
        <vehicle id="test3" maximumBatteryCapacity="50000.0000" actualBatteryCapacity="23186.5078" energyConsumed="50.6348" energyCharged="10.0000" power="222285.1014" overheadWireId="ovrhdWrSgmnt_gneE8_0_2" tractionSubstationId="substation" current="378.6053" circuitVoltage="587.1156" alphaCircuitSolver="1.0000" speed="13.6893" acceleration="0.2809" distance="160.0775" x="63.1787" y="-114.4000" z="0.0000" slope="0.0000" lane="gneE8_0" posOnLane="62.9375"/>
    </timestep>
    <timestep time="21.00">
        <vehicle id="test1" maximumBatteryCapacity="50000.0000" actualBatteryCapacity="22713.2821" energyConsumed="-2.6869" energyCharged="2.6869" power="nan" overheadWireId="" tractionSubstationId="" current="nan" circuitVoltage="nan" alphaCircuitSolver="nan" speed="0.9978" acceleration="-1.0000" distance="107.3800" x="117.0200" y="-4.2000" z="0.0000" slope="0.0000" lane="gneE1_0" posOnLane="16.0000"/>
        <vehicle id="test3" maximumBatteryCapacity="50000.0000" actualBatteryCapacity="23197.6189" energyConsumed="-16.8863" energyCharged="11.1111" power="-20790.6043" overheadWireId="ovrhdWrSgmnt_gneE8_0_2" tractionSubstationId="substation" current="-34.5889" circuitVoltage="601.0779" alphaCircuitSolver="1.0000" speed="12.6893" acceleration="-1.0000" distance="172.7668" x="75.6143" y="-114.4000" z="0.0000" slope="0.0000" lane="gneE8_0" posOnLane="75.6268"/>
    </timestep>
    <timestep time="22.00">
        <vehicle id="test1" maximumBatteryCapacity="50000.0000" actualBatteryCapacity="22714.6345" energyConsumed="-1.3525" energyCharged="1.3525" power="nan" overheadWireId="" tractionSubstationId="" current="nan" circuitVoltage="nan" alphaCircuitSolver="nan" speed="0.0000" acceleration="-0.9978" distance="107.3800" x="117.0200" y="-4.2000" z="0.0000" slope="0.0000" lane="gneE1_0" posOnLane="16.0000"/>
        <vehicle id="test3" maximumBatteryCapacity="50000.0000" actualBatteryCapacity="23208.7300" energyConsumed="-15.8525" energyCharged="11.1111" power="-17068.9462" overheadWireId="ovrhdWrSgmnt_gneE8_0_2" tractionSubstationId="substation" current="-28.4099" circuitVoltage="600.8103" alphaCircuitSolver="1.0000" speed="11.6893" acceleration="-1.0000" distance="184.4562" x="87.0698" y="-114.4000" z="0.0000" slope="0.0000" lane="gneE8_0" posOnLane="87.3162"/>
    </timestep>
    <timestep time="23.00">
        <vehicle id="test1" maximumBatteryCapacity="50000.0000" actualBatteryCapacity="22714.3568" energyConsumed="0.2778" energyCharged="-0.2778" power="nan" overheadWireId="" tractionSubstationId="" current="nan" circuitVoltage="nan" alphaCircuitSolver="nan" speed="0.0000" acceleration="0.0000" distance="107.3800" x="117.0200" y="-4.2000" z="0.0000" slope="0.0000" lane="gneE1_0" posOnLane="16.0000"/>
        <vehicle id="test3" maximumBatteryCapacity="50000.0000" actualBatteryCapacity="23219.8411" energyConsumed="-14.7720" energyCharged="11.1111" power="-13179.1253" overheadWireId="ovrhdWrSgmnt_gneE8_0_2" tractionSubstationId="substation" current="-21.9443" circuitVoltage="600.5729" alphaCircuitSolver="1.0000" speed="10.6893" acceleration="-1.0000" distance="195.1455" x="97.5454" y="-114.4000" z="0.0000" slope="0.0000" lane="gneE8_0" posOnLane="98.0055"/>
    </timestep>
    <timestep time="24.00">
        <vehicle id="test1" maximumBatteryCapacity="50000.0000" actualBatteryCapacity="22714.0790" energyConsumed="0.2778" energyCharged="-0.2778" power="nan" overheadWireId="" tractionSubstationId="" current="nan" circuitVoltage="nan" alphaCircuitSolver="nan" speed="0.0000" acceleration="0.0000" distance="107.3800" x="117.0200" y="-4.2000" z="0.0000" slope="0.0000" lane="gneE1_0" posOnLane="16.0000"/>
        <vehicle id="test3" maximumBatteryCapacity="50000.0000" actualBatteryCapacity="23230.9523" energyConsumed="-13.6488" energyCharged="11.1111" power="-9135.5277" overheadWireId="ovrhdWrSgmnt_gneE8_0_2" tractionSubstationId="substation" current="-15.2166" circuitVoltage="600.3639" alphaCircuitSolver="1.0000" speed="9.6893" acceleration="-1.0000" distance="204.8349" x="107.0410" y="-114.4000" z="0.0000" slope="0.0000" lane="gneE8_0" posOnLane="107.6949"/>
    </timestep>
    <timestep time="25.00">
        <vehicle id="test1" maximumBatteryCapacity="50000.0000" actualBatteryCapacity="22713.8012" energyConsumed="0.2778" energyCharged="-0.2778" power="nan" overheadWireId="" tractionSubstationId="" current="nan" circuitVoltage="nan" alphaCircuitSolver="nan" speed="0.0000" acceleration="0.0000" distance="107.3800" x="117.0200" y="-4.2000" z="0.0000" slope="0.0000" lane="gneE1_0" posOnLane="16.0000"/>
        <vehicle id="test3" maximumBatteryCapacity="50000.0000" actualBatteryCapacity="23242.0634" energyConsumed="-12.4868" energyCharged="11.1111" power="-4952.5392" overheadWireId="ovrhdWrSgmnt_gneE8_0_2" tractionSubstationId="substation" current="-8.2517" circuitVoltage="600.1811" alphaCircuitSolver="1.0000" speed="8.6893" acceleration="-1.0000" distance="213.5242" x="115.5565" y="-114.4000" z="0.0000" slope="0.0000" lane="gneE8_0" posOnLane="116.3842"/>
    </timestep>
    <timestep time="26.00">
        <vehicle id="test1" maximumBatteryCapacity="50000.0000" actualBatteryCapacity="22713.5234" energyConsumed="0.2778" energyCharged="-0.2778" power="nan" overheadWireId="" tractionSubstationId="" current="nan" circuitVoltage="nan" alphaCircuitSolver="nan" speed="0.0000" acceleration="0.0000" distance="107.3800" x="117.0200" y="-4.2000" z="0.0000" slope="0.0000" lane="gneE1_0" posOnLane="16.0000"/>
        <vehicle id="test3" maximumBatteryCapacity="50000.0000" actualBatteryCapacity="23253.1745" energyConsumed="-11.2902" energyCharged="11.1111" power="-644.5458" overheadWireId="ovrhdWrSgmnt_gneE8_0_2" tractionSubstationId="substation" current="-1.0742" circuitVoltage="600.0217" alphaCircuitSolver="1.0000" speed="7.6893" acceleration="-1.0000" distance="221.2136" x="123.0921" y="-114.4000" z="0.0000" slope="0.0000" lane="gneE8_0" posOnLane="124.0736"/>
    </timestep>
    <timestep time="27.00">
        <vehicle id="test1" maximumBatteryCapacity="50000.0000" actualBatteryCapacity="22713.2457" energyConsumed="0.2778" energyCharged="-0.2778" power="nan" overheadWireId="" tractionSubstationId="" current="nan" circuitVoltage="nan" alphaCircuitSolver="nan" speed="0.0000" acceleration="0.0000" distance="107.3800" x="117.0200" y="-4.2000" z="0.0000" slope="0.0000" lane="gneE1_0" posOnLane="16.0000"/>
        <vehicle id="test3" maximumBatteryCapacity="50000.0000" actualBatteryCapacity="23264.1808" energyConsumed="-10.0628" energyCharged="11.0063" power="3774.0664" overheadWireId="ovrhdWrSgmnt_gneE8_0_2" tractionSubstationId="substation" current="6.2913" circuitVoltage="599.8823" alphaCircuitSolver="1.0000" speed="6.6893" acceleration="-1.0000" distance="227.9029" x="129.6477" y="-114.4000" z="0.0000" slope="0.0000" lane="gneE8_0" posOnLane="130.7629"/>
    </timestep>
    <timestep time="28.00">
        <vehicle id="test1" maximumBatteryCapacity="50000.0000" actualBatteryCapacity="22712.9679" energyConsumed="0.2778" energyCharged="-0.2778" power="nan" overheadWireId="" tractionSubstationId="" current="nan" circuitVoltage="nan" alphaCircuitSolver="nan" speed="0.0000" acceleration="0.0000" distance="107.3800" x="117.0200" y="-4.2000" z="0.0000" slope="0.0000" lane="gneE1_0" posOnLane="16.0000"/>
        <vehicle id="test3" maximumBatteryCapacity="50000.0000" actualBatteryCapacity="23275.0616" energyConsumed="-8.8086" energyCharged="10.8809" power="8288.9115" overheadWireId="ovrhdWrSgmnt_gneE8_0_2" tractionSubstationId="substation" current="13.8204" circuitVoltage="599.7593" alphaCircuitSolver="1.0000" speed="5.6893" acceleration="-1.0000" distance="233.5923" x="135.2232" y="-114.4000" z="0.0000" slope="0.0000" lane="gneE8_0" posOnLane="136.4523"/>
    </timestep>
    <timestep time="29.00">
        <vehicle id="test1" maximumBatteryCapacity="50000.0000" actualBatteryCapacity="22712.6901" energyConsumed="0.2778" energyCharged="-0.2778" power="nan" overheadWireId="" tractionSubstationId="" current="nan" circuitVoltage="nan" alphaCircuitSolver="nan" speed="0.0000" acceleration="0.0000" distance="107.3800" x="117.0200" y="-4.2000" z="0.0000" slope="0.0000" lane="gneE1_0" posOnLane="16.0000"/>
        <vehicle id="test3" maximumBatteryCapacity="50000.0000" actualBatteryCapacity="23285.8148" energyConsumed="-7.5318" energyCharged="10.7532" power="12885.6034" overheadWireId="ovrhdWrSgmnt_gneE8_0_2" tractionSubstationId="substation" current="21.4886" circuitVoltage="599.6485" alphaCircuitSolver="1.0000" speed="4.6893" acceleration="-1.0000" distance="238.2816" x="139.8188" y="-114.4000" z="0.0000" slope="0.0000" lane="gneE8_0" posOnLane="141.1416"/>
    </timestep>
    <timestep time="30.00">
        <vehicle id="test1" maximumBatteryCapacity="50000.0000" actualBatteryCapacity="22712.4123" energyConsumed="0.2778" energyCharged="-0.2778" power="nan" overheadWireId="" tractionSubstationId="" current="nan" circuitVoltage="nan" alphaCircuitSolver="nan" speed="0.0000" acceleration="0.0000" distance="107.3800" x="117.0200" y="-4.2000" z="0.0000" slope="0.0000" lane="gneE1_0" posOnLane="16.0000"/>