<?xml version="1.0" encoding="UTF-8"?>

<!-- generated on 2023-11-02 11:17:08 by Eclipse SUMO netedit Version v1_18_0+2345-1e1f4673c2b
-->

<routes xmlns:xsi="http://www.w3.org/2001/XMLSchema-instance" xsi:noNamespaceSchemaLocation="http://sumo.dlr.de/xsd/routes_file.xsd">
    <!-- Vehicles, persons and containers (sorted by depart) -->
    <person id="p_0" depart="0.00">
        <walk from="Edge0" to="Edge0"/>
        <personTrip toJunction="Junction4" lines="ANY" vTypes="dummy"/>
    </person>
</routes>
