<tazs>
    <taz id="1" edges="5/5to5/6 5/5to6/5"/>
    <taz id="2" edges="9/9to8/9 9/9to9/8"/>
</tazs>
