<?xml version="1.0" encoding="UTF-8"?>

<!-- generated on 05/03/12 12:33:53 by SUMO netconvert Version dev-SVN-r12296
<?xml version="1.0" encoding="UTF-8"?>

<configuration xmlns:xsi="http://www.w3.org/2001/XMLSchema-instance" xsi:noNamespaceSchemaLocation="http://sumo.dlr.de/xsd/netconvertConfiguration.xsd">

    <input>
        <node-files value="input_nodes.nod.xml"/>
        <edge-files value="input_edges.edg.xml"/>
    </input>

    <output>
        <output-file value="net.net.xml"/>
    </output>

</configuration>
-->

<net version="0.13" xmlns:xsi="http://www.w3.org/2001/XMLSchema-instance" xsi:noNamespaceSchemaLocation="http://sumo.dlr.de/xsd/net_file.xsd">

    <location netOffset="0.00,0.00" convBoundary="0.00,0.00,100.00,0.00" origBoundary="0.00,0.00,100.00,0.00" projParameter="!"/>

    <edge id=":1.50_0" function="internal">
        <lane id=":1.50_0_0" index="0" speed="28.00" length="3.00" shape="48.50,-1.65 51.50,-1.70"/>
    </edge>

    <edge id="1" from="0" to="1.50" priority="-1" spreadType="center">
        <lane id="1_0" index="0" speed="28.00" length="48.50" shape="0.00,-1.65 48.50,-1.65"/>
        <lane id="1_1" index="1" speed="28.00" length="48.50" shape="0.00,1.65 48.50,1.65"/>
    </edge>
    <edge id="1.50" from="1.50" to="1" priority="-1" spreadType="center" shape="50.00,-1.70 100.00,-1.70">
        <lane id="1.50_0" index="0" speed="28.00" length="48.50" shape="51.50,-1.70 100.00,-1.70"/>
    </edge>

    <junction id="0" type="unregulated" x="0.00" y="0.00" incLanes="" intLanes="" shape="0.00,3.25 -0.00,-3.25">
    </junction>
    <junction id="1" type="unregulated" x="100.00" y="0.00" incLanes="1.50_0" intLanes="" shape="100.00,-3.30 100.00,-0.10">
    </junction>
    <junction id="1.50" type="priority" x="50.00" y="0.00" incLanes="1_0 1_1" intLanes=":1.50_0_0" shape="51.50,-0.10 51.50,-3.30 48.50,-3.25 48.50,3.25">
        <request index="0" response="0" foes="0" cont="0"/>
    </junction>

    <connection from="1" to="1.50" fromLane="0" toLane="0" via=":1.50_0_0" dir="s" state="M"/>

    <connection from=":1.50_0" to="1.50" fromLane="0" toLane="0" dir="s" state="M"/>

</net>
