<?xml version="1.0" encoding="UTF-8"?>

<!-- generated on Wed May 21 13:15:07 2014 by SUMO netconvert Version dev-SVN-r16402
<?xml version="1.0" encoding="UTF-8"?>

<configuration xmlns:xsi="http://www.w3.org/2001/XMLSchema-instance" xsi:noNamespaceSchemaLocation="http://sumo.dlr.de/xsd/netconvertConfiguration.xsd">

    <input>
        <node-files value="input_plain.nod.xml"/>
        <edge-files value="input_plain.edg.xml"/>
        <connection-files value="input_plain.con.xml"/>
    </input>

    <output>
        <output-file value="net.net.xml"/>
    </output>

    <processing>
        <no-turnarounds value="true"/>
    </processing>

    <report>
        <xml-validation value="never"/>
    </report>

</configuration>
-->

<net version="0.13" xmlns:xsi="http://www.w3.org/2001/XMLSchema-instance" xsi:noNamespaceSchemaLocation="http://sumo.dlr.de/xsd/net_file.xsd">

    <location netOffset="100.00,0.00" convBoundary="0.00,0.00,200.00,100.00" origBoundary="-10000000000.00,-10000000000.00,10000000000.00,10000000000.00" projParameter="!"/>

    <edge id=":C_0" function="internal">
        <lane id=":C_0_0" index="0" allow="passenger" speed="13.89" length="2.60" shape="95.05,1.45 96.07,-1.13"/>
        <lane id=":C_0_1" index="1" allow="passenger" speed="13.89" length="2.60" shape="98.35,1.45 99.26,0.09 100.00,-0.17"/>
    </edge>
    <edge id=":C_6" function="internal">
        <lane id=":C_6_0" index="0" speed="13.89" length="17.62" shape="96.07,-1.13 96.16,-1.35 99.50,-3.35 105.06,-4.55 112.85,-4.95"/>
    </edge>
    <edge id=":C_7" function="internal">
        <lane id=":C_7_0" index="0" speed="13.89" length="13.01" shape="100.00,-0.17 101.97,-0.87 106.51,-1.46 112.85,-1.65"/>
    </edge>
    <edge id=":C_2" function="internal">
        <lane id=":C_2_0" index="0" allow="passenger" speed="13.89" length="25.70" shape="87.15,-4.95 94.78,-4.95 100.00,-4.95 105.22,-4.95 112.85,-4.95"/>
        <lane id=":C_2_1" index="1" allow="passenger" speed="13.89" length="25.70" shape="87.15,-1.65 94.78,-1.65 100.00,-1.65 105.22,-1.65 112.85,-1.65"/>
    </edge>
    <edge id=":C_4" function="internal">
        <lane id=":C_4_0" index="0" allow="passenger" speed="13.89" length="8.98" shape="87.15,-1.65 94.94,-1.46 96.15,-1.33"/>
        <lane id=":C_4_1" index="1" allow="passenger" speed="13.89" length="8.98" shape="87.15,-1.65 93.49,-1.46 96.07,-1.13"/>
    </edge>
    <edge id=":C_8" function="internal">
        <lane id=":C_8_0" index="0" speed="13.89" length="9.60" shape="96.15,-1.33 100.50,-0.87 103.84,0.09 104.95,1.45"/>
    </edge>
    <edge id=":C_9" function="internal">
        <lane id=":C_9_0" index="0" speed="13.89" length="6.49" shape="96.07,-1.13 98.03,-0.87 100.74,0.09 101.65,1.45"/>
    </edge>
    <edge id=":C_c0" function="crossing" crossingEdges="CN NC">
        <lane id=":C_c0_0" index="0" allow="pedestrian" speed="1.00" length="16.30" width="4.50" shape="108.15,-0.80 91.85,-0.80"/>
    </edge>
    <edge id=":C_c1" function="crossing" crossingEdges="CE">
        <lane id=":C_c1_0" index="0" allow="pedestrian" speed="1.00" length="8.10" width="4.50" shape="110.60,-8.15 110.60,-0.05"/>
    </edge>
    <edge id=":C_c2" function="crossing" crossingEdges="WC">
        <lane id=":C_c2_0" index="0" allow="pedestrian" speed="1.00" length="8.10" width="4.50" shape="89.40,-0.05 89.40,-8.15"/>
    </edge>
    <edge id=":C_w0" function="walkingarea">
        <lane id=":C_w0_0" index="0" allow="pedestrian" speed="1.00" length="2.35" width="4.50" shape="88.75,-3.05 88.75,1.45 91.75,1.45 91.75,-3.05"/>
    </edge>
    <edge id=":C_w1" function="walkingarea">
        <lane id=":C_w1_0" index="0" allow="pedestrian" speed="1.00" length="2.35" width="4.50" shape="108.25,-3.05 108.25,1.45 111.25,1.45 111.25,-3.05"/>
    </edge>
    <edge id=":C_w2" function="walkingarea">
        <lane id=":C_w2_0" index="0" allow="pedestrian" speed="1.00" length="16.57" width="4.50" shape="108.35,-8.25 112.85,-8.25 112.85,-11.25 87.15,-11.25 87.15,-8.25 91.65,-8.25"/>
    </edge>
    <edge id=":N_w0" function="walkingarea">
        <lane id=":N_w0_0" index="0" allow="pedestrian" speed="1.00" length="19.50" width="4.00" shape="91.75,104.00 91.75,100.00 88.75,100.00 111.25,100.00 108.25,100.00 108.25,104.00"/>
    </edge>

    <edge id="CE" from="C" to="E" priority="2">
        <lane id="CE_0" index="0" allow="pedestrian" speed="13.89" length="87.15" width="3.00" shape="112.85,-9.75 200.00,-9.75"/>
        <lane id="CE_1" index="1" disallow="all" speed="13.89" length="87.15" width="1.50" shape="112.85,-7.40 200.00,-7.40"/>
        <lane id="CE_2" index="2" allow="passenger" speed="13.89" length="87.15" shape="112.85,-4.95 200.00,-4.95"/>
        <lane id="CE_3" index="3" allow="passenger" speed="13.89" length="87.15" shape="112.85,-1.65 200.00,-1.65"/>
    </edge>
    <edge id="CN" from="C" to="N" priority="2">
        <lane id="CN_0" index="0" allow="pedestrian" speed="13.89" length="98.55" width="3.00" shape="109.75,1.45 109.75,100.00"/>
        <lane id="CN_1" index="1" disallow="all" speed="13.89" length="98.55" width="1.50" shape="107.40,1.45 107.40,100.00"/>
        <lane id="CN_2" index="2" allow="passenger" speed="13.89" length="98.55" shape="104.95,1.45 104.95,100.00"/>
        <lane id="CN_3" index="3" allow="passenger" speed="13.89" length="98.55" shape="101.65,1.45 101.65,100.00"/>
    </edge>
    <edge id="NC" from="N" to="C" priority="2">
        <lane id="NC_0" index="0" allow="pedestrian" speed="13.89" length="98.55" width="3.00" shape="90.25,100.00 90.25,1.45"/>
        <lane id="NC_1" index="1" disallow="all" speed="13.89" length="98.55" width="1.50" shape="92.60,100.00 92.60,1.45"/>
        <lane id="NC_2" index="2" allow="passenger" speed="13.89" length="98.55" shape="95.05,100.00 95.05,1.45"/>
        <lane id="NC_3" index="3" allow="passenger" speed="13.89" length="98.55" shape="98.35,100.00 98.35,1.45"/>
    </edge>
    <edge id="WC" from="W" to="C" priority="2">
        <lane id="WC_0" index="0" allow="pedestrian" speed="13.89" length="87.15" width="3.00" shape="0.00,-9.75 87.15,-9.75"/>
        <lane id="WC_1" index="1" disallow="all" speed="13.89" length="87.15" width="1.50" shape="0.00,-7.40 87.15,-7.40"/>
        <lane id="WC_2" index="2" allow="passenger" speed="13.89" length="87.15" shape="0.00,-4.95 87.15,-4.95"/>
        <lane id="WC_3" index="3" allow="passenger" speed="13.89" length="87.15" shape="0.00,-1.65 87.15,-1.65"/>
    </edge>

    <tlLogic id="C" type="static" programID="0" offset="0">
        <phase duration="26" state="ggrrrrrGG"/>
        <phase duration="5" state="ggrrrrrrr"/>
        <phase duration="4" state="yyrrrrrrr"/>
        <phase duration="26" state="rrGGggGrr"/>
        <phase duration="5" state="rrGGggrrr"/>
        <phase duration="4" state="rryyyyrrr"/>
    </tlLogic>

    <junction id="C" type="traffic_light" x="100.00" y="0.00" incLanes="NC_0 NC_1 NC_2 NC_3 WC_0 WC_1 WC_2 WC_3 :C_w1_0 :C_w2_0 :C_w0_0" intLanes=":C_6_0 :C_7_0 :C_2_0 :C_2_1 :C_8_0 :C_9_0 :C_c0_0 :C_c1_0 :C_c2_0" shape="88.65,1.45 111.35,1.45 112.85,-0.05 112.85,-11.35 87.15,-11.35 87.15,-0.05">
        <request index="0" response="011111100" foes="011111100" cont="1"/>
        <request index="1" response="011111100" foes="011111100" cont="1"/>
        <request index="2" response="110000000" foes="110000011" cont="0"/>
        <request index="3" response="110000000" foes="110000011" cont="0"/>
        <request index="4" response="101000000" foes="101000011" cont="1"/>
        <request index="5" response="101000000" foes="101000011" cont="1"/>
        <request index="6" response="000000000" foes="000110011" cont="0"/>
        <request index="7" response="000000000" foes="000001111" cont="0"/>
        <request index="8" response="000000000" foes="000111100" cont="0"/>
    </junction>
    <junction id="E" type="unregulated" x="200.00" y="0.00" incLanes="CE_0 CE_1 CE_2 CE_3" intLanes="" shape="200.00,-11.35 200.00,-0.05"/>
    <junction id="N" type="dead_end" x="100.00" y="100.00" incLanes="CN_0 CN_1 CN_2 CN_3" intLanes="" shape="99.95,100.00 88.65,100.00 111.35,100.00 100.05,100.00"/>
    <junction id="W" type="unregulated" x="0.00" y="0.00" incLanes="" intLanes="" shape="-0.00,-0.05 -0.00,-11.35"/>

    <junction id=":C_6_0" type="internal" x="96.07" y="-1.13" incLanes=":C_0_0 WC_2 WC_3" intLanes=":C_2_0 :C_2_1 :C_4_0 :C_4_1 :C_c0_0 :C_c1_0"/>
    <junction id=":C_7_0" type="internal" x="100.00" y="-0.17" incLanes=":C_0_1 WC_2 WC_3" intLanes=":C_2_0 :C_2_1 :C_4_0 :C_4_1 :C_c0_0 :C_c1_0"/>
    <junction id=":C_8_0" type="internal" x="96.15" y="-1.33" incLanes=":C_4_0" intLanes=":C_0_0 :C_0_1 :C_c0_0 :C_c2_0"/>
    <junction id=":C_9_0" type="internal" x="96.07" y="-1.13" incLanes=":C_4_1" intLanes=":C_0_0 :C_0_1 :C_c0_0 :C_c2_0"/>

    <connection from="NC" to="CE" fromLane="2" toLane="2" via=":C_0_0" tl="C" linkIndex="0" dir="l" state="o"/>
    <connection from="NC" to="CE" fromLane="3" toLane="3" via=":C_0_1" tl="C" linkIndex="1" dir="l" state="o"/>
    <connection from="WC" to="CE" fromLane="2" toLane="2" via=":C_2_0" tl="C" linkIndex="2" dir="s" state="o"/>
    <connection from="WC" to="CE" fromLane="3" toLane="3" via=":C_2_1" tl="C" linkIndex="3" dir="s" state="o"/>
    <connection from="WC" to="CN" fromLane="3" toLane="2" via=":C_4_0" tl="C" linkIndex="4" dir="l" state="o"/>
    <connection from="WC" to="CN" fromLane="3" toLane="3" via=":C_4_1" tl="C" linkIndex="5" dir="l" state="o"/>

    <connection from=":C_0" to="CE" fromLane="0" toLane="2" via=":C_6_0" dir="s" state="m"/>
    <connection from=":C_6" to="CE" fromLane="0" toLane="2" dir="s" state="M"/>
    <connection from=":C_0" to="CE" fromLane="1" toLane="3" via=":C_7_0" dir="s" state="m"/>
    <connection from=":C_7" to="CE" fromLane="0" toLane="3" dir="s" state="M"/>
    <connection from=":C_2" to="CE" fromLane="0" toLane="2" dir="s" state="M"/>
    <connection from=":C_2" to="CE" fromLane="1" toLane="3" dir="s" state="M"/>
    <connection from=":C_4" to="CN" fromLane="0" toLane="2" via=":C_8_0" dir="s" state="m"/>
    <connection from=":C_8" to="CN" fromLane="0" toLane="2" dir="s" state="M"/>
    <connection from=":C_4" to="CN" fromLane="1" toLane="3" via=":C_9_0" dir="s" state="m"/>
    <connection from=":C_9" to="CN" fromLane="0" toLane="3" dir="s" state="M"/>

    <connection from=":C_c0" to=":C_w0" fromLane="0" toLane="0" dir="s" state="M"/>
    <connection from=":C_c1" to=":C_w1" fromLane="0" toLane="0" dir="s" state="M"/>
    <connection from=":C_c2" to=":C_w2" fromLane="0" toLane="0" dir="s" state="M"/>
    <connection from=":C_w0" to=":C_c2" fromLane="0" toLane="0" tl="C" linkIndex="8" dir="s" state="M"/>
    <connection from="NC" to=":C_w0" fromLane="0" toLane="0" dir="s" state="M"/>
    <connection from=":C_w1" to=":C_c0" fromLane="0" toLane="0" tl="C" linkIndex="6" dir="s" state="M"/>
    <connection from=":C_w1" to="CN" fromLane="0" toLane="0" dir="s" state="M"/>
    <connection from=":C_w2" to=":C_c1" fromLane="0" toLane="0" tl="C" linkIndex="7" dir="s" state="M"/>
    <connection from=":C_w2" to="CE" fromLane="0" toLane="0" dir="s" state="M"/>
    <connection from="WC" to=":C_w2" fromLane="0" toLane="0" dir="s" state="M"/>
    <connection from=":N_w0" to="NC" fromLane="0" toLane="0" dir="s" state="M"/>
    <connection from="CN" to=":N_w0" fromLane="0" toLane="0" dir="s" state="M"/>
</net>
