<?xml version="1.0" encoding="UTF-8"?>

<!-- generated on Tue Nov 27 23:17:25 2018 by Eclipse SUMO Version eeef47f
This data file and the accompanying materials
are made available under the terms of the Eclipse Public License v2.0
which accompanies this distribution, and is available at
http://www.eclipse.org/legal/epl-v20.html
SPDX-License-Identifier: EPL-2.0
<configuration xmlns:xsi="http://www.w3.org/2001/XMLSchema-instance" xsi:noNamespaceSchemaLocation="http://sumo.dlr.de/xsd/sumoConfiguration.xsd">

    <input>
        <net-file value="net.net.xml"/>
        <route-files value="input_routes.rou.xml"/>
        <additional-files value="input_additional.add.xml"/>
    </input>

    <output>
        <write-license value="true"/>
    </output>

    <time>
        <begin value="0"/>
        <end value="1000"/>
    </time>

    <processing>
        <default.speeddev value="0"/>
    </processing>

    <report>
        <xml-validation value="never"/>
        <duration-log.disable value="true"/>
        <no-step-log value="true"/>
    </report>

</configuration>
-->

<linkData xmlns:xsi="http://www.w3.org/2001/XMLSchema-instance" xsi:noNamespaceSchemaLocation="http://sumo.dlr.de/xsd/amitran/linkdata.xsd">
    <timeSlice startTime="0" duration="60000"/>
    <timeSlice startTime="60000" duration="60000">
        <link id="32" amount="2" averageSpeed="888"/>
        <link id="35" amount="2" averageSpeed="879"/>
        <link id="38" amount="4" averageSpeed="859"/>
    </timeSlice>
    <timeSlice startTime="120000" duration="60000">
        <link id="32" amount="6" averageSpeed="945"/>
        <link id="33" amount="3" averageSpeed="1042"/>
        <link id="34" amount="6" averageSpeed="1277"/>
        <link id="35" amount="6" averageSpeed="945"/>
        <link id="37" amount="6" averageSpeed="1232"/>
        <link id="38" amount="12" averageSpeed="942"/>
        <link id="40" amount="12" averageSpeed="676"/>
        <link id="42" amount="4" averageSpeed="1033"/>
    </timeSlice>
    <timeSlice startTime="180000" duration="60000">
        <link id="32" amount="9" averageSpeed="964"/>
        <link id="33" amount="6" averageSpeed="1036"/>
        <link id="34" amount="9" averageSpeed="734"/>
        <link id="35" amount="11" averageSpeed="963"/>
        <link id="36" amount="8" averageSpeed="1040"/>
        <link id="37" amount="6" averageSpeed="660"/>
        <link id="38" amount="12" averageSpeed="948"/>
        <link id="40" amount="12" averageSpeed="764"/>
        <link id="41" amount="9" averageSpeed="1047"/>
        <link id="42" amount="7" averageSpeed="1043"/>
        <link id="43" amount="2" averageSpeed="1229"/>
    </timeSlice>
    <timeSlice startTime="240000" duration="60000">
        <link id="32" amount="14" averageSpeed="974"/>
        <link id="33" amount="3" averageSpeed="1036"/>
        <link id="34" amount="6" averageSpeed="627"/>
        <link id="35" amount="10" averageSpeed="975"/>
        <link id="36" amount="11" averageSpeed="1034"/>
        <link id="37" amount="13" averageSpeed="661"/>
        <link id="38" amount="12" averageSpeed="949"/>
        <link id="39" amount="6" averageSpeed="1037"/>
        <link id="40" amount="11" averageSpeed="642"/>
        <link id="41" amount="4" averageSpeed="1048"/>
        <link id="42" amount="17" averageSpeed="1040"/>
        <link id="43" amount="9" averageSpeed="747"/>
    </timeSlice>
    <timeSlice startTime="300000" duration="60000">
        <link id="32" amount="7" averageSpeed="979"/>
        <link id="33" amount="9" averageSpeed="1035"/>
        <link id="34" amount="15" averageSpeed="634"/>
        <link id="35" amount="19" averageSpeed="989"/>
        <link id="36" amount="13" averageSpeed="1038"/>
        <link id="37" amount="11" averageSpeed="611"/>
        <link id="38" amount="19" averageSpeed="959"/>
        <link id="39" amount="1" averageSpeed="1039"/>
        <link id="40" amount="10" averageSpeed="578"/>
        <link id="41" amount="15" averageSpeed="1044"/>
        <link id="42" amount="14" averageSpeed="1040"/>
        <link id="43" amount="15" averageSpeed="771"/>
    </timeSlice>
    <timeSlice startTime="360000" duration="60000">
        <link id="32" amount="15" averageSpeed="987"/>
        <link id="33" amount="6" averageSpeed="1036"/>
        <link id="34" amount="15" averageSpeed="597"/>
        <link id="35" amount="20" averageSpeed="998"/>
        <link id="36" amount="19" averageSpeed="1038"/>
        <link id="37" amount="14" averageSpeed="530"/>
        <link id="38" amount="14" averageSpeed="962"/>
        <link id="39" amount="9" averageSpeed="1037"/>
        <link id="40" amount="15" averageSpeed="612"/>
        <link id="41" amount="19" averageSpeed="1044"/>
        <link id="42" amount="14" averageSpeed="1040"/>
        <link id="43" amount="12" averageSpeed="683"/>
    </timeSlice>
    <timeSlice startTime="420000" duration="60000">
        <link id="32" amount="13" averageSpeed="988"/>
        <link id="33" amount="10" averageSpeed="1037"/>
        <link id="34" amount="6" averageSpeed="517"/>
        <link id="35" amount="24" averageSpeed="1002"/>
        <link id="36" amount="14" averageSpeed="1038"/>
        <link id="37" amount="19" averageSpeed="568"/>
        <link id="38" amount="20" averageSpeed="966"/>
        <link id="39" amount="11" averageSpeed="1038"/>
        <link id="40" amount="10" averageSpeed="565"/>
        <link id="41" amount="13" averageSpeed="1042"/>
        <link id="42" amount="16" averageSpeed="1039"/>
        <link id="43" amount="13" averageSpeed="548"/>
    </timeSlice>
    <timeSlice startTime="480000" duration="60000">
        <link id="32" amount="15" averageSpeed="993"/>
        <link id="33" amount="9" averageSpeed="1037"/>
        <link id="34" amount="20" averageSpeed="481"/>
        <link id="35" amount="20" averageSpeed="1005"/>
        <link id="36" amount="13" averageSpeed="1040"/>
        <link id="37" amount="13" averageSpeed="543"/>
        <link id="38" amount="23" averageSpeed="972"/>
        <link id="39" amount="7" averageSpeed="1038"/>
        <link id="40" amount="15" averageSpeed="537"/>
        <link id="41" amount="12" averageSpeed="1042"/>
        <link id="42" amount="13" averageSpeed="1039"/>
        <link id="43" amount="20" averageSpeed="513"/>
    </timeSlice>
    <timeSlice startTime="540000" duration="60000">
        <link id="32" amount="19" averageSpeed="997"/>
        <link id="33" amount="18" averageSpeed="1037"/>
        <link id="34" amount="16" averageSpeed="414"/>
        <link id="35" amount="20" averageSpeed="1007"/>
        <link id="36" amount="20" averageSpeed="1040"/>
        <link id="37" amount="14" averageSpeed="516"/>
        <link id="38" amount="19" averageSpeed="975"/>
        <link id="39" amount="14" averageSpeed="1039"/>
        <link id="40" amount="17" averageSpeed="551"/>
        <link id="41" amount="17" averageSpeed="1043"/>
        <link id="42" amount="16" averageSpeed="1039"/>
        <link id="43" amount="10" averageSpeed="513"/>
    </timeSlice>
    <timeSlice startTime="600000" duration="60000">
        <link id="32" amount="23" averageSpeed="999"/>
        <link id="33" amount="12" averageSpeed="1037"/>
        <link id="34" amount="16" averageSpeed="391"/>
        <link id="35" amount="25" averageSpeed="1008"/>
        <link id="36" amount="12" averageSpeed="1040"/>
        <link id="37" amount="21" averageSpeed="530"/>
        <link id="38" amount="24" averageSpeed="978"/>
        <link id="39" amount="16" averageSpeed="1038"/>
        <link id="40" amount="14" averageSpeed="527"/>
        <link id="41" amount="16" averageSpeed="1043"/>
        <link id="42" amount="19" averageSpeed="1039"/>
        <link id="43" amount="15" averageSpeed="491"/>
    </timeSlice>
    <timeSlice startTime="660000" duration="60000">
        <link id="32" amount="18" averageSpeed="1002"/>
        <link id="33" amount="15" averageSpeed="1038"/>
        <link id="34" amount="20" averageSpeed="366"/>
        <link id="35" amount="20" averageSpeed="1008"/>
        <link id="36" amount="15" averageSpeed="1039"/>
        <link id="37" amount="12" averageSpeed="513"/>
        <link id="38" amount="24" averageSpeed="982"/>
        <link id="39" amount="15" averageSpeed="1037"/>
        <link id="40" amount="12" averageSpeed="520"/>
        <link id="41" amount="15" averageSpeed="1043"/>
        <link id="42" amount="15" averageSpeed="1039"/>
        <link id="43" amount="23" averageSpeed="488"/>
    </timeSlice>
    <timeSlice startTime="720000" duration="60000">
        <link id="32" amount="22" averageSpeed="1003"/>
        <link id="33" amount="20" averageSpeed="1036"/>
        <link id="34" amount="17" averageSpeed="340"/>
        <link id="35" amount="20" averageSpeed="1010"/>
        <link id="36" amount="18" averageSpeed="1040"/>
        <link id="37" amount="14" averageSpeed="500"/>
        <link id="38" amount="24" averageSpeed="985"/>
        <link id="39" amount="14" averageSpeed="1037"/>
        <link id="40" amount="12" averageSpeed="517"/>
        <link id="41" amount="19" averageSpeed="1042"/>
        <link id="42" amount="13" averageSpeed="1039"/>
        <link id="43" amount="12" averageSpeed="495"/>
    </timeSlice>
    <timeSlice startTime="780000" duration="60000">
        <link id="32" amount="23" averageSpeed="1004"/>
        <link id="33" amount="15" averageSpeed="1037"/>
        <link id="34" amount="15" averageSpeed="319"/>
        <link id="35" amount="23" averageSpeed="1010"/>
        <link id="36" amount="14" averageSpeed="1039"/>
        <link id="37" amount="20" averageSpeed="513"/>
        <link id="38" amount="25" averageSpeed="986"/>
        <link id="39" amount="14" averageSpeed="1037"/>
        <link id="40" amount="14" averageSpeed="516"/>
        <link id="41" amount="12" averageSpeed="1042"/>
        <link id="42" amount="13" averageSpeed="1039"/>
        <link id="43" amount="12" averageSpeed="478"/>
    </timeSlice>
    <timeSlice startTime="840000" duration="60000">
        <link id="32" amount="22" averageSpeed="1005"/>
        <link id="33" amount="12" averageSpeed="1037"/>
        <link id="34" amount="21" averageSpeed="301"/>
        <link id="35" amount="20" averageSpeed="1010"/>
        <link id="36" amount="13" averageSpeed="1039"/>
        <link id="37" amount="12" averageSpeed="498"/>
        <link id="38" amount="23" averageSpeed="988"/>
        <link id="39" amount="16" averageSpeed="1037"/>
        <link id="40" amount="12" averageSpeed="514"/>
        <link id="41" amount="11" averageSpeed="1042"/>
        <link id="42" amount="13" averageSpeed="1039"/>
        <link id="43" amount="17" averageSpeed="484"/>
    </timeSlice>
    <timeSlice startTime="900000" duration="60000">
        <link id="32" amount="20" averageSpeed="1005"/>
        <link id="33" amount="20" averageSpeed="1036"/>
        <link id="34" amount="19" averageSpeed="284"/>
        <link id="35" amount="20" averageSpeed="1010"/>
        <link id="36" amount="18" averageSpeed="1039"/>
        <link id="37" amount="15" averageSpeed="482"/>
        <link id="38" amount="24" averageSpeed="989"/>
        <link id="39" amount="12" averageSpeed="1037"/>
        <link id="40" amount="13" averageSpeed="515"/>
        <link id="41" amount="16" averageSpeed="1042"/>
        <link id="42" amount="13" averageSpeed="1039"/>
        <link id="43" amount="10" averageSpeed="491"/>
    </timeSlice>
    <timeSlice startTime="960000" duration="40000">
        <link id="32" amount="16" averageSpeed="984"/>
        <link id="33" amount="8" averageSpeed="1036"/>
        <link id="34" amount="8" averageSpeed="273"/>
        <link id="35" amount="14" averageSpeed="1010"/>
        <link id="36" amount="8" averageSpeed="1039"/>
        <link id="37" amount="12" averageSpeed="486"/>
        <link id="38" amount="15" averageSpeed="989"/>
        <link id="39" amount="13" averageSpeed="1037"/>
        <link id="40" amount="10" averageSpeed="512"/>
        <link id="41" amount="6" averageSpeed="1042"/>
        <link id="42" amount="9" averageSpeed="1039"/>
        <link id="43" amount="10" averageSpeed="488"/>
    </timeSlice>
</linkData>
