<?xml version="1.0" encoding="UTF-8"?>

<!-- generated on 2023-03-01 14:32:40 by Eclipse SUMO sumo Version v1_16_0+0853-bb3bf2e
This data file and the accompanying materials
are made available under the terms of the Eclipse Public License v2.0
which accompanies this distribution, and is available at
http://www.eclipse.org/legal/epl-v20.html
This file may also be made available under the following Secondary
Licenses when the conditions for such availability set forth in the Eclipse
Public License 2.0 are satisfied: GNU General Public License, version 2
or later which is available at
https://www.gnu.org/licenses/old-licenses/gpl-2.0-standalone.html
SPDX-License-Identifier: EPL-2.0 OR GPL-2.0-or-later
<configuration xmlns:xsi="http://www.w3.org/2001/XMLSchema-instance" xsi:noNamespaceSchemaLocation="http://sumo.dlr.de/xsd/sumoConfiguration.xsd">

    <input>
        <net-file value="net.net.xml"/>
        <route-files value="input_routes.rou.xml"/>
        <additional-files value="input_additional.add.xml"/>
    </input>

    <output>
        <write-license value="true"/>
    </output>

    <time>
        <begin value="0"/>
        <end value="1000"/>
    </time>

    <processing>
        <default.speeddev value="0"/>
    </processing>

    <report>
        <xml-validation value="never"/>
        <duration-log.disable value="true"/>
        <no-step-log value="true"/>
    </report>

</configuration>
-->

<linkData xmlns:xsi="http://www.w3.org/2001/XMLSchema-instance" xsi:noNamespaceSchemaLocation="http://sumo.dlr.de/xsd/amitran/linkdata.xsd">
    <timeSlice startTime="0" duration="300000">
        <link id="32" amount="31" averageSpeed="971">
            <actorConfig id="0" amount="31" averageSpeed="971"/>
        </link>
        <link id="33" amount="12" averageSpeed="1042">
            <actorConfig id="0" amount="12" averageSpeed="1042"/>
        </link>
        <link id="34" amount="21" averageSpeed="613">
            <actorConfig id="0" amount="21" averageSpeed="613"/>
        </link>
        <link id="35" amount="29" averageSpeed="975">
            <actorConfig id="0" amount="29" averageSpeed="975"/>
        </link>
        <link id="36" amount="19" averageSpeed="1037">
            <actorConfig id="0" amount="19" averageSpeed="1037"/>
        </link>
        <link id="37" amount="25" averageSpeed="666">
            <actorConfig id="0" amount="25" averageSpeed="666"/>
        </link>
        <link id="38" amount="40" averageSpeed="952">
            <actorConfig id="0" amount="40" averageSpeed="952"/>
        </link>
        <link id="39" amount="6" averageSpeed="1040">
            <actorConfig id="0" amount="6" averageSpeed="1040"/>
        </link>
        <link id="40" amount="36" averageSpeed="641">
            <actorConfig id="0" amount="36" averageSpeed="641"/>
        </link>
        <link id="41" amount="12" averageSpeed="1045">
            <actorConfig id="0" amount="12" averageSpeed="1045"/>
        </link>
        <link id="42" amount="26" averageSpeed="1039">
            <actorConfig id="0" amount="26" averageSpeed="1039"/>
        </link>
        <link id="43" amount="11" averageSpeed="727">
            <actorConfig id="0" amount="11" averageSpeed="727"/>
        </link>
    </timeSlice>
    <timeSlice startTime="300000" duration="300000">
        <link id="32" amount="69" averageSpeed="995">
            <actorConfig id="0" amount="69" averageSpeed="1004"/>
        </link>
        <link id="33" amount="53" averageSpeed="1039">
            <actorConfig id="0" amount="53" averageSpeed="1038"/>
        </link>
        <link id="34" amount="72" averageSpeed="346">
            <actorConfig id="0" amount="72" averageSpeed="306"/>
        </link>
        <link id="35" amount="100" averageSpeed="1006">
            <actorConfig id="0" amount="100" averageSpeed="1016"/>
        </link>
        <link id="36" amount="73" averageSpeed="1039">
            <actorConfig id="0" amount="73" averageSpeed="1039"/>
        </link>
        <link id="37" amount="68" averageSpeed="507">
            <actorConfig id="0" amount="68" averageSpeed="470"/>
        </link>
        <link id="38" amount="94" averageSpeed="973">
            <actorConfig id="0" amount="94" averageSpeed="982"/>
        </link>
        <link id="39" amount="40" averageSpeed="1037">
            <actorConfig id="0" amount="40" averageSpeed="1037"/>
        </link>
        <link id="40" amount="65" averageSpeed="561">
            <actorConfig id="0" amount="65" averageSpeed="526"/>
        </link>
        <link id="41" amount="75" averageSpeed="1042">
            <actorConfig id="0" amount="75" averageSpeed="1041"/>
        </link>
        <link id="42" amount="71" averageSpeed="1038">
            <actorConfig id="0" amount="71" averageSpeed="1037"/>
        </link>
        <link id="43" amount="68" averageSpeed="492">
            <actorConfig id="0" amount="68" averageSpeed="467"/>
        </link>
    </timeSlice>
    <timeSlice startTime="600000" duration="300000">
        <link id="32" amount="102" averageSpeed="800">
            <actorConfig id="0" amount="102" averageSpeed="667"/>
        </link>
        <link id="33" amount="68" averageSpeed="1038">
            <actorConfig id="0" amount="68" averageSpeed="1038"/>
        </link>
        <link id="34" amount="69" averageSpeed="224">
            <actorConfig id="0" amount="69" averageSpeed="152"/>
        </link>
        <link id="35" amount="101" averageSpeed="1009">
            <actorConfig id="0" amount="101" averageSpeed="1012"/>
        </link>
        <link id="36" amount="60" averageSpeed="1039">
            <actorConfig id="0" amount="60" averageSpeed="1038"/>
        </link>
        <link id="37" amount="74" averageSpeed="508">
            <actorConfig id="0" amount="74" averageSpeed="509"/>
        </link>
        <link id="38" amount="119" averageSpeed="986">
            <actorConfig id="0" amount="119" averageSpeed="1000"/>
        </link>
        <link id="39" amount="71" averageSpeed="1037">
            <actorConfig id="0" amount="71" averageSpeed="1037"/>
        </link>
        <link id="40" amount="62" averageSpeed="526">
            <actorConfig id="0" amount="62" averageSpeed="482"/>
        </link>
        <link id="41" amount="68" averageSpeed="1042">
            <actorConfig id="0" amount="68" averageSpeed="1042"/>
        </link>
        <link id="42" amount="71" averageSpeed="1037">
            <actorConfig id="0" amount="71" averageSpeed="1037"/>
        </link>
        <link id="43" amount="74" averageSpeed="437">
            <actorConfig id="0" amount="74" averageSpeed="390"/>
        </link>
    </timeSlice>
    <timeSlice startTime="900000" duration="100000">
        <link id="32" amount="24" averageSpeed="635">
            <actorConfig id="0" amount="24" averageSpeed="232"/>
        </link>
        <link id="33" amount="28" averageSpeed="961">
            <actorConfig id="0" amount="28" averageSpeed="699"/>
        </link>
        <link id="34" amount="21" averageSpeed="213">
            <actorConfig id="0" amount="21" averageSpeed="161"/>
        </link>
        <link id="35" amount="25" averageSpeed="1009">
            <actorConfig id="0" amount="25" averageSpeed="1008"/>
        </link>
        <link id="36" amount="24" averageSpeed="1038">
            <actorConfig id="0" amount="24" averageSpeed="1033"/>
        </link>
        <link id="37" amount="23" averageSpeed="512">
            <actorConfig id="0" amount="23" averageSpeed="540"/>
        </link>
        <link id="38" amount="38" averageSpeed="987">
            <actorConfig id="0" amount="38" averageSpeed="996"/>
        </link>
        <link id="39" amount="19" averageSpeed="1038">
            <actorConfig id="0" amount="19" averageSpeed="1042"/>
        </link>
        <link id="40" amount="22" averageSpeed="521">
            <actorConfig id="0" amount="22" averageSpeed="480"/>
        </link>
        <link id="41" amount="22" averageSpeed="1042">
            <actorConfig id="0" amount="22" averageSpeed="1043"/>
        </link>
        <link id="42" amount="22" averageSpeed="1037">
            <actorConfig id="0" amount="22" averageSpeed="1035"/>
        </link>
        <link id="43" amount="21" averageSpeed="426">
            <actorConfig id="0" amount="21" averageSpeed="368"/>
        </link>
    </timeSlice>
</linkData>
