<?xml version="1.0" encoding="UTF-8"?>

<!-- generated on Mon Aug 27 12:41:02 2018 by Eclipse SUMO Version 1e23198
This data file and the accompanying materials
are made available under the terms of the Eclipse Public License v2.0
which accompanies this distribution, and is available at
http://www.eclipse.org/legal/epl-v20.html
SPDX-License-Identifier: EPL-2.0
<configuration xmlns:xsi="http://www.w3.org/2001/XMLSchema-instance" xsi:noNamespaceSchemaLocation="http://sumo.dlr.de/xsd/sumoConfiguration.xsd">

    <input>
        <net-file value="net.net.xml"/>
        <route-files value="input_routes.rou.xml"/>
        <additional-files value="input_additional.add.xml"/>
    </input>

    <output>
        <write-license value="true"/>
    </output>

    <time>
        <begin value="0"/>
        <end value="1000"/>
    </time>

    <processing>
        <default.speeddev value="0"/>
    </processing>

    <report>
        <xml-validation value="never"/>
        <duration-log.disable value="true"/>
        <no-step-log value="true"/>
    </report>

</configuration>
-->

<linkData xmlns:xsi="http://www.w3.org/2001/XMLSchema-instance" xsi:noNamespaceSchemaLocation="http://sumo.dlr.de/xsd/amitran/linkdata.xsd">
    <timeSlice startTime="0" duration="300000">
        <link id="32" amount="31" averageSpeed="974">
            <actorConfig id="0" amount="31" averageSpeed="974"/>
        </link>
        <link id="33" amount="12" averageSpeed="1037">
            <actorConfig id="0" amount="12" averageSpeed="1037"/>
        </link>
        <link id="34" amount="21" averageSpeed="581">
            <actorConfig id="0" amount="21" averageSpeed="581"/>
        </link>
        <link id="35" amount="29" averageSpeed="975">
            <actorConfig id="0" amount="29" averageSpeed="975"/>
        </link>
        <link id="36" amount="20" averageSpeed="1036">
            <actorConfig id="0" amount="20" averageSpeed="1036"/>
        </link>
        <link id="37" amount="25" averageSpeed="660">
            <actorConfig id="0" amount="25" averageSpeed="660"/>
        </link>
        <link id="38" amount="40" averageSpeed="950">
            <actorConfig id="0" amount="40" averageSpeed="950"/>
        </link>
        <link id="39" amount="6" averageSpeed="1039">
            <actorConfig id="0" amount="6" averageSpeed="1039"/>
        </link>
        <link id="40" amount="35" averageSpeed="643">
            <actorConfig id="0" amount="35" averageSpeed="643"/>
        </link>
        <link id="41" amount="12" averageSpeed="1045">
            <actorConfig id="0" amount="12" averageSpeed="1045"/>
        </link>
        <link id="42" amount="25" averageSpeed="1040">
            <actorConfig id="0" amount="25" averageSpeed="1040"/>
        </link>
        <link id="43" amount="11" averageSpeed="745">
            <actorConfig id="0" amount="11" averageSpeed="745"/>
        </link>
    </timeSlice>
    <timeSlice startTime="300000" duration="300000">
        <link id="32" amount="68" averageSpeed="996">
            <actorConfig id="0" amount="68" averageSpeed="1004"/>
        </link>
        <link id="33" amount="52" averageSpeed="1039">
            <actorConfig id="0" amount="52" averageSpeed="1040"/>
        </link>
        <link id="34" amount="71" averageSpeed="356">
            <actorConfig id="0" amount="71" averageSpeed="319"/>
        </link>
        <link id="35" amount="105" averageSpeed="1007">
            <actorConfig id="0" amount="105" averageSpeed="1015"/>
        </link>
        <link id="36" amount="79" averageSpeed="1037">
            <actorConfig id="0" amount="79" averageSpeed="1037"/>
        </link>
        <link id="37" amount="72" averageSpeed="483">
            <actorConfig id="0" amount="72" averageSpeed="445"/>
        </link>
        <link id="38" amount="94" averageSpeed="974">
            <actorConfig id="0" amount="94" averageSpeed="984"/>
        </link>
        <link id="39" amount="40" averageSpeed="1038">
            <actorConfig id="0" amount="40" averageSpeed="1038"/>
        </link>
        <link id="40" amount="65" averageSpeed="546">
            <actorConfig id="0" amount="65" averageSpeed="506"/>
        </link>
        <link id="41" amount="75" averageSpeed="1041">
            <actorConfig id="0" amount="75" averageSpeed="1041"/>
        </link>
        <link id="42" amount="73" averageSpeed="1039">
            <actorConfig id="0" amount="73" averageSpeed="1039"/>
        </link>
        <link id="43" amount="68" averageSpeed="616">
            <actorConfig id="0" amount="68" averageSpeed="599"/>
        </link>
    </timeSlice>
    <timeSlice startTime="600000" duration="300000">
        <link id="32" amount="106" averageSpeed="1004">
            <actorConfig id="0" amount="106" averageSpeed="1012"/>
        </link>
        <link id="33" amount="71" averageSpeed="1037">
            <actorConfig id="0" amount="71" averageSpeed="1035"/>
        </link>
        <link id="34" amount="91" averageSpeed="268">
            <actorConfig id="0" amount="91" averageSpeed="214"/>
        </link>
        <link id="35" amount="106" averageSpeed="1010">
            <actorConfig id="0" amount="106" averageSpeed="1015"/>
        </link>
        <link id="36" amount="69" averageSpeed="1038">
            <actorConfig id="0" amount="69" averageSpeed="1039"/>
        </link>
        <link id="37" amount="78" averageSpeed="433">
            <actorConfig id="0" amount="78" averageSpeed="385"/>
        </link>
        <link id="38" amount="119" averageSpeed="987">
            <actorConfig id="0" amount="119" averageSpeed="1002"/>
        </link>
        <link id="39" amount="76" averageSpeed="1036">
            <actorConfig id="0" amount="76" averageSpeed="1035"/>
        </link>
        <link id="40" amount="64" averageSpeed="506">
            <actorConfig id="0" amount="64" averageSpeed="456"/>
        </link>
        <link id="41" amount="73" averageSpeed="1041">
            <actorConfig id="0" amount="73" averageSpeed="1041"/>
        </link>
        <link id="42" amount="76" averageSpeed="1038">
            <actorConfig id="0" amount="76" averageSpeed="1038"/>
        </link>
        <link id="43" amount="80" averageSpeed="579">
            <actorConfig id="0" amount="80" averageSpeed="546"/>
        </link>
    </timeSlice>
    <timeSlice startTime="900000" duration="100000">
        <link id="32" amount="36" averageSpeed="939">
            <actorConfig id="0" amount="36" averageSpeed="671"/>
        </link>
        <link id="33" amount="28" averageSpeed="1037">
            <actorConfig id="0" amount="28" averageSpeed="1038"/>
        </link>
        <link id="34" amount="17" averageSpeed="243">
            <actorConfig id="0" amount="17" averageSpeed="138"/>
        </link>
        <link id="35" amount="33" averageSpeed="1011">
            <actorConfig id="0" amount="33" averageSpeed="1014"/>
        </link>
        <link id="36" amount="24" averageSpeed="1038">
            <actorConfig id="0" amount="24" averageSpeed="1040"/>
        </link>
        <link id="37" amount="24" averageSpeed="434">
            <actorConfig id="0" amount="24" averageSpeed="440"/>
        </link>
        <link id="38" amount="39" averageSpeed="989">
            <actorConfig id="0" amount="39" averageSpeed="1003"/>
        </link>
        <link id="39" amount="25" averageSpeed="1036">
            <actorConfig id="0" amount="25" averageSpeed="1032"/>
        </link>
        <link id="40" amount="23" averageSpeed="500">
            <actorConfig id="0" amount="23" averageSpeed="458"/>
        </link>
        <link id="41" amount="24" averageSpeed="1041">
            <actorConfig id="0" amount="24" averageSpeed="1044"/>
        </link>
        <link id="42" amount="21" averageSpeed="1038">
            <actorConfig id="0" amount="21" averageSpeed="1039"/>
        </link>
        <link id="43" amount="22" averageSpeed="568">
            <actorConfig id="0" amount="22" averageSpeed="508"/>
        </link>
    </timeSlice>
</linkData>
