<?xml version="1.0" encoding="UTF-8"?>

<!-- generated on 23.02.2021 10:03:17 by Eclipse SUMO netedit Version v1_8_0+1342-32ebcde4b7
<configuration xmlns:xsi="http://www.w3.org/2001/XMLSchema-instance" xsi:noNamespaceSchemaLocation="http://sumo.dlr.de/xsd/netconvertConfiguration.xsd">

    <input>
        <sumo-net-file value="C:\Users\alva_pa\.texttest\tmp\netedit.gui.23Feb100048.8296\netedit.gui\additionalElements\busstop\inspect_selection\lines\input_net.net.xml"/>
    </input>

    <output>
        <output-file value="C:\Users\alva_pa\.texttest\tmp\netedit.gui.23Feb100048.8296\netedit.gui\additionalElements\busstop\inspect_selection\lines\net.net.xml"/>
    </output>

    <processing>
        <geometry.min-radius.fix.railways value="false"/>
        <geometry.max-grade.fix value="false"/>
        <offset.disable-normalization value="true"/>
        <lefthand value="false"/>
    </processing>

    <junctions>
        <no-turnarounds value="true"/>
        <junctions.corner-detail value="5"/>
        <junctions.limit-turn-speed value="5.5"/>
        <rectangular-lane-cut value="false"/>
    </junctions>

    <pedestrian>
        <walkingareas value="false"/>
    </pedestrian>

    <netedit>
        <additional-files value="C:\Users\alva_pa\.texttest\tmp\netedit.gui.23Feb100048.8296\netedit.gui\additionalElements\busstop\inspect_selection\lines\additionals.xml"/>
        <additionals-output value="C:\Users\alva_pa\.texttest\tmp\netedit.gui.23Feb100048.8296\netedit.gui\additionalElements\busstop\inspect_selection\lines\additionals.xml"/>
        <route-files value="C:\Users\alva_pa\.texttest\tmp\netedit.gui.23Feb100048.8296\netedit.gui\additionalElements\busstop\inspect_selection\lines\routes.xml"/>
        <demandelements-output value="C:\Users\alva_pa\.texttest\tmp\netedit.gui.23Feb100048.8296\netedit.gui\additionalElements\busstop\inspect_selection\lines\routes.xml"/>
        <data-files value="C:\Users\alva_pa\.texttest\tmp\netedit.gui.23Feb100048.8296\netedit.gui\additionalElements\busstop\inspect_selection\lines\datas.xml"/>
        <dataelements-output value="C:\Users\alva_pa\.texttest\tmp\netedit.gui.23Feb100048.8296\netedit.gui\additionalElements\busstop\inspect_selection\lines\datas.xml"/>
    </netedit>

    <visualisation>
        <gui-settings-file value="C:\Users\alva_pa\.texttest\tmp\netedit.gui.23Feb100048.8296\netedit.gui\additionalElements\busstop\inspect_selection\lines\gui-settings.xml"/>
        <window-size value="936,697"/>
        <window-pos value="50,50"/>
        <gui-testing value="true"/>
        <gui-testing-debug value="true"/>
        <gui-testing.setting-output value="C:\Users\alva_pa\.texttest\tmp\netedit.gui.23Feb100048.8296\netedit.gui\additionalElements\busstop\inspect_selection\lines\guisettingsoutput.xml"/>
    </visualisation>

    <report>
        <no-warnings value="true"/>
        <aggregate-warnings value="5"/>
        <error-log value="C:\Users\alva_pa\.texttest\tmp\netedit.gui.23Feb100048.8296\netedit.gui\additionalElements\busstop\inspect_selection\lines\log.txt"/>
    </report>

</configuration>
-->

<additional xmlns:xsi="http://www.w3.org/2001/XMLSchema-instance" xsi:noNamespaceSchemaLocation="http://sumo.dlr.de/xsd/additional_file.xsd">
    <busStop id="busStopA" lane="gneE0_0" startPos="5.00" endPos="10.00" name="busStop" friendlyPos="1" lines="commonLine1 commonLine2" personCapacity="10" parkingLength="12.00">
        <param key="KeyA1" value="valueA1"/>
        <param key="KeyA2" value="valueA3"/>
        <param key="KeyA3" value="valueA2"/>
    </busStop>
    <busStop id="busStopB" lane="gneE0_0" startPos="15.00" endPos="20.00" name="busStop" lines="commonLine1 commonLine2" personCapacity="20" parkingLength="-15.00">
        <param key="KeyB1" value="valueB1"/>
        <param key="KeyB2" value="valueB3"/>
        <param key="KeyB3" value="valueB2"/>
    </busStop>
</additional>
