<?xml version="1.0" encoding="UTF-8"?>

<!-- generated on Mon Feb 17 15:31:02 2020 by Eclipse SUMO netconvert Version v1_5_0+0130-ceb0a01
This data file and the accompanying materials
are made available under the terms of the Eclipse Public License v2.0
which accompanies this distribution, and is available at
http://www.eclipse.org/legal/epl-v20.html
SPDX-License-Identifier: EPL-2.0
<configuration xmlns:xsi="http://www.w3.org/2001/XMLSchema-instance" xsi:noNamespaceSchemaLocation="http://sumo.dlr.de/xsd/netconvertConfiguration.xsd">

    <input>
        <node-files value="input_plain.nod.xml"/>
        <edge-files value="input_plain.edg.xml"/>
    </input>

    <output>
        <write-license value="true"/>
        <output-file value="net.net.xml"/>
        <output.street-names value="true"/>
    </output>

    <report>
        <xml-validation value="never"/>
        <aggregate-warnings value="5"/>
        <ignore-errors.edge-type value="true"/>
    </report>

</configuration>
-->

<net version="1.6" junctionCornerDetail="5" limitTurnSpeed="5.50" xmlns:xsi="http://www.w3.org/2001/XMLSchema-instance" xsi:noNamespaceSchemaLocation="http://sumo.dlr.de/xsd/net_file.xsd">

    <location netOffset="-603703.06,-5790877.35" convBoundary="0.00,0.00,548.74,444.80" origBoundary="10.393336,52.146541,10.787296,52.408126" projParameter="+proj=utm +zone=32 +ellps=WGS84 +datum=WGS84 +units=m +no_defs"/>

    <edge id=":273459765_0" function="internal">
        <lane id=":273459765_0_0" index="0" allow="tram" speed="13.89" length="14.85" shape="387.23,362.70 390.96,362.87 394.65,362.53 398.24,361.63 401.63,360.13"/>
    </edge>
    <edge id=":273459765_1" function="internal">
        <lane id=":273459765_1_0" index="0" allow="tram" speed="13.89" length="14.37" shape="387.23,362.70 401.51,364.30"/>
    </edge>
    <edge id=":3142528930_0" function="internal">
        <lane id=":3142528930_0_0" index="0" allow="tram" speed="13.89" length="2.86" shape="430.07,386.68 430.60,389.50"/>
    </edge>
    <edge id=":3142528930_1" function="internal">
        <lane id=":3142528930_1_0" index="0" allow="tram" speed="13.89" length="0.65" shape="430.33,388.91 430.42,389.08 430.49,389.20 430.55,389.32 430.60,389.50"/>
    </edge>
    <edge id=":3142549218_0" function="internal">
        <lane id=":3142549218_0_0" index="0" allow="tram" speed="13.89" length="10.26" shape="416.45,337.60 414.97,327.45"/>
    </edge>
    <edge id=":3142549218_1" function="internal">
        <lane id=":3142549218_1_0" index="0" allow="tram" speed="13.89" length="17.19" shape="414.36,344.58 414.92,340.52 415.24,336.03 415.28,331.53 414.97,327.45"/>
    </edge>
    <edge id=":3142549222_0" function="internal">
        <lane id=":3142549222_0_0" index="0" allow="tram" speed="13.89" length="14.86" shape="419.27,352.40 416.48,337.80"/>
    </edge>
    <edge id=":3142549222_1" function="internal">
        <lane id=":3142549222_1_0" index="0" allow="tram" speed="13.89" length="3.03" shape="417.74,346.35 417.58,347.24 417.53,347.87 417.40,348.47 417.00,349.25"/>
    </edge>
    <edge id=":3142550434_0" function="internal">
        <lane id=":3142550434_0_0" index="0" allow="tram" speed="13.89" length="9.92" shape="406.06,361.97 403.77,363.82 402.08,364.99 400.19,365.70 397.32,366.15"/>
    </edge>
    <edge id=":3142550434_1" function="internal">
        <lane id=":3142550434_1_0" index="0" allow="tram" speed="13.89" length="0.77" shape="401.86,364.34 402.61,364.20"/>
    </edge>
    <edge id=":3142550435_0" function="internal">
        <lane id=":3142550435_0_0" index="0" allow="tram" speed="13.89" length="12.08" shape="399.46,367.93 387.43,366.83"/>
    </edge>
    <edge id=":3142550435_1" function="internal">
        <lane id=":3142550435_1_0" index="0" allow="tram" speed="13.89" length="9.77" shape="397.12,366.17 394.25,366.59 392.27,366.95 390.30,367.08 387.43,366.83"/>
    </edge>
    <edge id=":3142550441_0" function="internal">
        <lane id=":3142550441_0_0" index="0" allow="tram" speed="13.89" length="14.74" shape="425.86,383.14 422.77,368.73"/>
    </edge>
    <edge id=":3142550441_1" function="internal">
        <lane id=":3142550441_1_0" index="0" allow="tram" speed="13.89" length="16.64" shape="422.29,374.25 424.85,377.25 426.96,380.99 428.73,384.98 430.26,388.72"/>
    </edge>
    <edge id=":50917718_0" function="internal">
        <lane id=":50917718_0_0" index="0" allow="tram" speed="13.89" length="16.03" shape="418.56,330.48 419.10,334.35 419.88,338.38 420.76,342.39 421.58,346.22"/>
    </edge>
    <edge id=":50917718_1" function="internal">
        <lane id=":50917718_1_0" index="0" allow="tram" speed="13.89" length="15.76" shape="418.56,330.48 418.83,334.35 418.83,338.37 418.51,342.37 417.79,346.16"/>
    </edge>
    <edge id=":52768448_0" function="internal">
        <lane id=":52768448_0_0" index="0" allow="tram" speed="13.89" length="15.31" shape="428.04,392.45 427.24,388.72 425.99,385.05 424.26,381.62 421.99,378.61"/>
    </edge>
    <edge id=":52768448_1" function="internal">
        <lane id=":52768448_1_0" index="0" allow="tram" speed="13.89" length="9.36" shape="428.04,392.45 425.90,383.34"/>
    </edge>
    <edge id=":cluster_251050941_280598736_280598739_28902891_3142549227_3142550438_0" function="internal">
        <lane id=":cluster_251050941_280598736_280598739_28902891_3142549227_3142550438_0_0" index="0" disallow="tram rail_urban rail rail_electric ship" speed="10.11" length="8.87" shape="413.67,389.29 413.08,386.76 412.34,385.08 411.10,383.72 409.02,382.16"/>
    </edge>
    <edge id=":cluster_251050941_280598736_280598739_28902891_3142549227_3142550438_1" function="internal">
        <lane id=":cluster_251050941_280598736_280598739_28902891_3142549227_3142550438_1_0" index="0" disallow="tram rail_urban rail rail_electric ship" speed="8.33" length="47.26" shape="416.81,388.66 406.86,342.33"/>
        <lane id=":cluster_251050941_280598736_280598739_28902891_3142549227_3142550438_1_1" index="1" disallow="tram rail_urban rail rail_electric ship" speed="8.33" length="47.26" shape="419.95,388.02 410.04,341.93"/>
    </edge>
    <edge id=":cluster_251050941_280598736_280598739_28902891_3142549227_3142550438_3" function="internal">
        <lane id=":cluster_251050941_280598736_280598739_28902891_3142549227_3142550438_3_0" index="0" allow="tram" speed="13.89" length="24.77" shape="421.85,378.46 417.65,375.35 411.34,372.02 404.74,369.29 399.65,367.95"/>
    </edge>
    <edge id=":cluster_251050941_280598736_280598739_28902891_3142549227_3142550438_4" function="internal">
        <lane id=":cluster_251050941_280598736_280598739_28902891_3142549227_3142550438_4_0" index="0" allow="tram" speed="12.11" length="22.85" shape="421.85,378.46 419.23,375.47 414.07,369.64 408.89,364.07 406.21,361.84"/>
    </edge>
    <edge id=":cluster_251050941_280598736_280598739_28902891_3142549227_3142550438_5" function="internal">
        <lane id=":cluster_251050941_280598736_280598739_28902891_3142549227_3142550438_5_0" index="0" allow="tram" speed="13.89" length="25.89" shape="416.89,349.42 411.31,357.73 406.58,363.58 402.69,366.99 399.65,367.95"/>
    </edge>
    <edge id=":cluster_251050941_280598736_280598739_28902891_3142549227_3142550438_6" function="internal">
        <lane id=":cluster_251050941_280598736_280598739_28902891_3142549227_3142550438_6_0" index="0" allow="tram" speed="13.89" length="16.44" shape="416.89,349.42 414.65,352.71 412.02,356.05 409.16,359.18 406.21,361.84"/>
    </edge>
    <edge id=":cluster_251050941_280598736_280598739_28902891_3142549227_3142550438_7" function="internal">
        <lane id=":cluster_251050941_280598736_280598739_28902891_3142549227_3142550438_7_0" index="0" allow="tram" speed="13.89" length="19.51" shape="402.74,359.54 407.14,356.84 410.54,353.48 412.94,349.46 414.33,344.78"/>
    </edge>
    <edge id=":cluster_251050941_280598736_280598739_28902891_3142549227_3142550438_8" function="internal">
        <lane id=":cluster_251050941_280598736_280598739_28902891_3142549227_3142550438_8_0" index="0" allow="tram" speed="13.89" length="24.41" shape="402.74,359.54 404.61,360.14 408.46,362.76 414.30,367.43 422.14,374.12"/>
    </edge>
    <edge id=":cluster_251050941_280598736_280598739_28902891_3142549227_3142550438_9" function="internal">
        <lane id=":cluster_251050941_280598736_280598739_28902891_3142549227_3142550438_9_0" index="0" disallow="tram rail_urban rail rail_electric ship" speed="9.73" length="15.78" shape="398.42,354.46 402.46,351.90 405.22,349.02 406.68,345.83 406.86,342.33"/>
    </edge>
    <edge id=":cluster_251050941_280598736_280598739_28902891_3142549227_3142550438_10" function="internal">
        <lane id=":cluster_251050941_280598736_280598739_28902891_3142549227_3142550438_10_0" index="0" disallow="tram rail_urban rail rail_electric ship" speed="9.76" length="29.66" shape="398.42,354.46 409.02,382.16"/>
    </edge>
    <edge id=":cluster_251050941_280598736_280598739_28902891_3142549227_3142550438_11" function="internal">
        <lane id=":cluster_251050941_280598736_280598739_28902891_3142549227_3142550438_11_0" index="0" allow="tram" speed="11.76" length="24.57" shape="402.81,364.24 406.44,363.69 409.57,360.26 412.20,353.95 414.33,344.78"/>
    </edge>
    <edge id=":cluster_251050941_280598736_280598739_28902891_3142549227_3142550438_12" function="internal">
        <lane id=":cluster_251050941_280598736_280598739_28902891_3142549227_3142550438_12_0" index="0" allow="tram" speed="13.89" length="21.81" shape="402.81,364.24 407.36,365.79 412.89,368.36 418.21,371.35 422.14,374.12"/>
    </edge>

    <edge id="23209153#1" from="251050939" to="cluster_251050941_280598736_280598739_28902891_3142549227_3142550438" name="Waisenhausdamm" priority="4" type="highway.residential" spreadType="center" shape="281.30,339.68 326.43,348.65 331.45,349.53 380.37,357.63 390.42,357.31 395.36,356.03 399.51,353.90 401.69,352.03 404.97,349.23 408.66,343.80">
        <lane id="23209153#1_0" index="0" disallow="tram rail_urban rail rail_electric ship" speed="13.89" length="119.30" shape="281.30,339.68 326.43,348.65 331.45,349.53 380.37,357.63 390.42,357.31 395.36,356.03 398.42,354.46"/>
    </edge>
    <edge id="25730280#0" from="cluster_251050941_280598736_280598739_28902891_3142549227_3142550438" to="196317724" name="Stobenstraße" priority="7" type="highway.secondary" spreadType="center" shape="408.66,343.80 408.35,341.36 408.19,340.22 407.79,333.59 407.76,333.00 407.80,326.81 407.93,314.34 408.41,289.68 408.07,264.94 407.72,240.22">
        <lane id="25730280#0_0" index="0" disallow="tram rail_urban rail rail_electric ship" speed="8.33" length="101.95" shape="406.86,342.33 406.76,341.57 406.60,340.38 406.19,333.69 406.16,333.04 406.20,326.80 406.33,314.32 406.81,289.68 406.47,264.96 406.12,240.24"/>
        <lane id="25730280#0_1" index="1" disallow="tram rail_urban rail rail_electric ship" speed="8.33" length="101.95" shape="410.04,341.93 409.94,341.15 409.78,340.06 409.39,333.49 409.36,332.96 409.40,326.82 409.53,314.36 410.01,289.68 409.67,264.92 409.32,240.20"/>
    </edge>
    <edge id="26812730#0" from="273459765" to="3142550434" priority="15" type="railway.tram" spreadType="center" shape="388.89,362.88 395.81,363.59 400.19,364.15 401.51,364.30">
        <lane id="26812730#0_0" index="0" allow="tram" speed="13.89" length="0.35" shape="401.51,364.30 401.86,364.34"/>
        <param key="railway:preferred_direction" value="forward"/>
    </edge>
    <edge id="26812730#2" from="3142550434" to="cluster_251050941_280598736_280598739_28902891_3142549227_3142550438" priority="15" type="railway.tram" spreadType="center" shape="401.51,364.30 403.09,364.55 406.54,365.09 409.57,365.78 412.44,366.77">
        <lane id="26812730#2_0" index="0" allow="tram" speed="13.89" length="0.20" shape="402.61,364.20 402.81,364.24"/>
        <param key="railway:preferred_direction" value="forward"/>
    </edge>
    <edge id="26812730#4" from="cluster_251050941_280598736_280598739_28902891_3142549227_3142550438" to="3142550441" priority="15" type="railway.tram" spreadType="center" shape="412.44,366.77 415.20,368.06 416.39,368.70 417.62,369.45 419.17,370.64 421.00,372.20 422.75,374.01 424.13,375.67">
        <lane id="26812730#4_0" index="0" allow="tram" speed="13.89" length="0.20" shape="422.14,374.12 422.29,374.25"/>
        <param key="railway:preferred_direction" value="forward"/>
    </edge>
    <edge id="26812730#5" from="3142550441" to="3142528930" priority="15" type="railway.tram" spreadType="center" shape="424.13,375.67 425.68,377.70 427.19,380.20 428.48,382.62 429.20,384.40 430.32,388.14">
        <lane id="26812730#5_0" index="0" allow="tram" speed="13.89" length="0.20" shape="430.26,388.72 430.33,388.91"/>
        <param key="railway:preferred_direction" value="forward"/>
    </edge>
    <edge id="308956942" from="3142528930" to="3142528931" priority="15" type="railway.tram" spreadType="center" shape="430.32,388.14 438.56,428.65 438.86,430.86">
        <lane id="308956942_0" index="0" allow="tram" speed="13.89" length="42.18" shape="430.60,389.50 438.56,428.65 438.86,430.86"/>
        <param key="railway:preferred_direction" value="forward"/>
    </edge>
    <edge id="308958252#0" from="3142549218" to="5424571232" priority="15" type="railway.tram" spreadType="center" shape="415.19,329.06 414.43,323.39 414.02,315.04 413.82,306.06 413.70,297.27 413.66,284.83 413.55,272.18 413.52,259.55 413.42,246.86 413.72,241.03 413.81,238.12 414.14,235.73 414.90,232.70 415.64,229.64 416.61,226.85 417.58,224.44 420.38,219.08 422.16,216.24 424.01,213.73 427.74,209.28 433.01,204.12 498.07,141.87 507.00,131.84 511.41,126.65 515.54,121.17 520.82,112.61 526.12,103.20 530.17,94.12 532.15,89.56 533.70,84.99 535.24,80.62 536.74,75.55 538.63,67.84 539.52,63.76 540.35,59.22 541.36,51.28 542.16,43.82 543.75,24.34 544.10,20.16">
        <lane id="308958252#0_0" index="0" allow="tram" speed="13.89" length="352.97" shape="414.97,327.45 414.43,323.39 414.02,315.04 413.82,306.06 413.70,297.27 413.66,284.83 413.55,272.18 413.52,259.55 413.42,246.86 413.72,241.03 413.81,238.12 414.14,235.73 414.90,232.70 415.64,229.64 416.61,226.85 417.58,224.44 420.38,219.08 422.16,216.24 424.01,213.73 427.74,209.28 433.01,204.12 498.07,141.87 507.00,131.84 511.41,126.65 515.54,121.17 520.82,112.61 526.12,103.20 530.17,94.12 532.15,89.56 533.70,84.99 535.24,80.62 536.74,75.55 538.63,67.84 539.52,63.76 540.35,59.22 541.36,51.28 542.16,43.82 543.75,24.34 544.10,20.16"/>
        <param key="railway:preferred_direction" value="forward"/>
    </edge>
    <edge id="308958253#0" from="3142550435" to="3265483974" priority="15" type="railway.tram" spreadType="center" shape="389.11,367.06 370.27,364.51 367.05,364.13 362.98,363.42 352.85,361.11 288.50,346.62 281.44,345.10 271.69,343.52 262.71,342.53 253.76,341.48 231.02,336.87 221.71,334.21">
        <lane id="308958253#0_0" index="0" allow="tram" speed="13.89" length="169.07" shape="387.43,366.83 370.27,364.51 367.05,364.13 362.98,363.42 352.85,361.11 288.50,346.62 281.44,345.10 271.69,343.52 262.71,342.53 253.76,341.48 231.02,336.87 221.71,334.21"/>
        <param key="railway:preferred_direction" value="forward"/>
    </edge>
    <edge id="308958254#0" from="3144398514" to="273459765" priority="15" type="railway.tram" spreadType="center" shape="0.00,149.03 3.71,179.56 6.68,198.84 7.83,203.01 8.56,205.78 9.81,208.09 63.92,295.67 69.03,302.24 72.16,305.74 75.64,308.33 80.49,311.56 83.38,312.94 85.50,313.91 95.21,316.49 105.58,317.65 143.06,318.85 155.70,319.30 183.19,320.81 191.35,321.73 197.39,323.29 213.30,328.09 244.00,336.31 266.18,339.29 274.41,340.47 289.10,343.09 353.65,357.79 356.19,358.26 362.45,359.58 368.68,360.63 388.89,362.88">
        <lane id="308958254#0_0" index="0" allow="tram" speed="13.89" length="498.54" shape="0.00,149.03 3.71,179.56 6.68,198.84 7.83,203.01 8.56,205.78 9.81,208.09 63.92,295.67 69.03,302.24 72.16,305.74 75.64,308.33 80.49,311.56 83.38,312.94 85.50,313.91 95.21,316.49 105.58,317.65 143.06,318.85 155.70,319.30 183.19,320.81 191.35,321.73 197.39,323.29 213.30,328.09 244.00,336.31 266.18,339.29 274.41,340.47 289.10,343.09 353.65,357.79 356.19,358.26 362.45,359.58 368.68,360.63 387.23,362.70"/>
        <param key="railway:preferred_direction" value="forward"/>
    </edge>
    <edge id="308958255#0" from="50917718" to="3142528930" priority="15" type="railway.tram" spreadType="center" shape="418.72,332.07 419.00,333.36 420.38,339.80 420.79,342.35 422.73,351.82 424.44,359.76 425.99,368.11 427.86,376.87 429.65,384.29 430.32,388.14">
        <lane id="308958255#0_0" index="0" allow="tram" speed="13.89" length="41.35" shape="421.58,346.22 422.73,351.82 424.44,359.76 425.99,368.11 427.86,376.87 429.65,384.29 430.07,386.68"/>
        <param key="railway:preferred_direction" value="forward"/>
    </edge>
    <edge id="308958256#0" from="52768448" to="cluster_251050941_280598736_280598739_28902891_3142549227_3142550438" priority="15" type="railway.tram" spreadType="center" shape="427.77,390.78 425.44,385.31 422.75,379.84 420.54,377.05 418.38,374.73 415.85,372.71 413.30,371.24">
        <lane id="308958256#0_0" index="0" allow="tram" speed="13.89" length="0.20" shape="421.99,378.61 421.85,378.46"/>
        <param key="railway:preferred_direction" value="forward"/>
    </edge>
    <edge id="308958256#2" from="cluster_251050941_280598736_280598739_28902891_3142549227_3142550438" to="3142550435" priority="15" type="railway.tram" spreadType="center" shape="413.30,371.24 411.29,370.32 409.13,369.58 407.18,368.92 405.11,368.51 403.60,368.35 400.45,368.03 395.59,367.54 389.11,367.06">
        <lane id="308958256#2_0" index="0" allow="tram" speed="13.89" length="0.20" shape="399.65,367.95 399.46,367.93"/>
        <param key="railway:preferred_direction" value="forward"/>
    </edge>
    <edge id="308958257#0" from="52768448" to="3142550441" priority="15" type="railway.tram" spreadType="center" shape="427.77,390.78 426.31,385.10 424.13,375.67">
        <lane id="308958257#0_0" index="0" allow="tram" speed="13.89" length="0.20" shape="425.90,383.34 425.86,383.14"/>
        <param key="railway:preferred_direction" value="forward"/>
    </edge>
    <edge id="308958257#2" from="3142550441" to="3142549222" priority="15" type="railway.tram" spreadType="center" shape="424.13,375.67 420.93,359.35 419.33,352.65 417.85,345.92">
        <lane id="308958257#2_0" index="0" allow="tram" speed="13.89" length="16.71" shape="422.77,368.73 420.93,359.35 419.33,352.65 419.27,352.40"/>
        <param key="railway:preferred_direction" value="forward"/>
    </edge>
    <edge id="308958257#3" from="3142549222" to="3142549218" priority="15" type="railway.tram" spreadType="center" shape="417.85,345.92 417.37,342.90 416.81,340.06 415.83,333.41 415.19,329.06">
        <lane id="308958257#3_0" index="0" allow="tram" speed="13.89" length="0.20" shape="416.48,337.80 416.45,337.60"/>
        <param key="railway:preferred_direction" value="forward"/>
    </edge>
    <edge id="308958258#0" from="273459765" to="cluster_251050941_280598736_280598739_28902891_3142549227_3142550438" priority="15" type="railway.tram" spreadType="center" shape="388.89,362.88 392.75,362.49 395.67,362.28 397.62,362.02 399.18,361.52 399.99,361.04 402.47,359.67 403.36,359.24 405.75,357.60 408.12,355.28 410.16,353.12">
        <lane id="308958258#0_0" index="0" allow="tram" speed="13.89" length="1.25" shape="401.63,360.13 402.47,359.67 402.74,359.54"/>
        <param key="railway:preferred_direction" value="forward"/>
    </edge>
    <edge id="308958258#3" from="cluster_251050941_280598736_280598739_28902891_3142549227_3142550438" to="3142549218" priority="15" type="railway.tram" spreadType="center" shape="410.16,353.12 412.16,349.74 413.78,346.45 414.37,344.54 414.74,342.45 415.09,340.39 415.08,340.18 415.11,333.42 415.19,329.06">
        <lane id="308958258#3_0" index="0" allow="tram" speed="13.89" length="0.20" shape="414.33,344.78 414.36,344.58"/>
        <param key="railway:preferred_direction" value="forward"/>
    </edge>
    <edge id="308958259#0" from="50917718" to="3142549222" priority="15" type="railway.tram" spreadType="center" shape="418.72,332.07 418.77,333.39 418.99,339.90 418.83,341.14 418.58,343.10 417.85,345.92">
        <lane id="308958259#0_0" index="0" allow="tram" speed="13.89" length="0.20" shape="417.79,346.16 417.74,346.35"/>
        <param key="railway:preferred_direction" value="forward"/>
    </edge>
    <edge id="308958259#3" from="3142549222" to="cluster_251050941_280598736_280598739_28902891_3142549227_3142550438" priority="15" type="railway.tram" spreadType="center" shape="417.85,345.92 415.54,351.57 413.39,354.98 410.90,357.79">
        <lane id="308958259#3_0" index="0" allow="tram" speed="13.89" length="0.20" shape="417.00,349.25 416.89,349.42"/>
        <param key="railway:preferred_direction" value="forward"/>
    </edge>
    <edge id="308958259#4" from="cluster_251050941_280598736_280598739_28902891_3142549227_3142550438" to="3142550434" priority="15" type="railway.tram" spreadType="center" shape="410.90,357.79 409.01,359.61 406.44,361.66 402.94,363.53 401.51,364.30">
        <lane id="308958259#4_0" index="0" allow="tram" speed="13.89" length="0.20" shape="406.21,361.84 406.06,361.97"/>
        <param key="railway:preferred_direction" value="forward"/>
    </edge>
    <edge id="308958259#6" from="3142550434" to="3142550435" priority="15" type="railway.tram" spreadType="center" shape="401.51,364.30 400.23,364.78 399.40,365.16 394.36,366.48 389.11,367.06">
        <lane id="308958259#6_0" index="0" allow="tram" speed="13.89" length="0.20" shape="397.32,366.15 397.12,366.17"/>
        <param key="railway:preferred_direction" value="forward"/>
    </edge>
    <edge id="317682099#0" from="50917756" to="50917718" priority="15" type="railway.tram" spreadType="center" shape="548.74,0.00 547.99,9.60 547.64,14.02 546.50,31.86 544.73,50.40 543.97,55.32 543.40,60.52 541.64,69.07 539.66,76.28 538.14,80.92 536.66,85.16 528.13,104.62 522.94,114.19 516.90,123.39 512.95,128.45 509.02,133.55 500.57,143.62 478.38,165.46 435.61,206.26 430.87,211.18 427.14,216.18 423.75,220.87 421.18,226.07 420.28,228.28 419.26,230.72 417.96,235.90 417.12,241.36 416.78,246.65 416.70,259.48 416.85,272.33 416.89,284.77 417.14,297.21 417.27,305.84 417.53,314.89 417.65,319.20 417.87,323.42 418.72,332.07">
        <lane id="317682099#0_0" index="0" allow="tram" speed="13.89" length="375.48" shape="548.74,0.00 547.99,9.60 547.64,14.02 546.50,31.86 544.73,50.40 543.97,55.32 543.40,60.52 541.64,69.07 539.66,76.28 538.14,80.92 536.66,85.16 528.13,104.62 522.94,114.19 516.90,123.39 512.95,128.45 509.02,133.55 500.57,143.62 478.38,165.46 435.61,206.26 430.87,211.18 427.14,216.18 423.75,220.87 421.18,226.07 420.28,228.28 419.26,230.72 417.96,235.90 417.12,241.36 416.78,246.65 416.70,259.48 416.85,272.33 416.89,284.77 417.14,297.21 417.27,305.84 417.53,314.89 417.65,319.20 417.87,323.42 418.56,330.48"/>
        <param key="railway:preferred_direction" value="forward"/>
    </edge>
    <edge id="319583927#0" from="660683315" to="cluster_251050941_280598736_280598739_28902891_3142549227_3142550438" name="Bohlweg" priority="7" type="highway.secondary" spreadType="center" shape="428.10,444.80 427.45,441.53 416.57,387.46">
        <lane id="319583927#0_0" index="0" disallow="tram rail_urban rail rail_electric ship" speed="8.33" length="57.27" shape="424.96,445.42 424.31,442.16 413.67,389.29"/>
        <lane id="319583927#0_1" index="1" disallow="tram rail_urban rail rail_electric ship" speed="8.33" length="57.27" shape="428.10,444.80 427.45,441.53 416.81,388.66"/>
        <lane id="319583927#0_2" index="2" disallow="tram rail_urban rail rail_electric ship" speed="8.33" length="57.27" shape="431.24,444.18 430.59,440.90 419.95,388.02"/>
    </edge>
    <edge id="6148678#0" from="50917835" to="52768448" priority="15" type="railway.tram" spreadType="center" shape="436.91,440.20 436.79,439.53 428.63,396.01 427.77,390.78">
        <lane id="6148678#0_0" index="0" allow="tram" speed="13.89" length="48.57" shape="436.91,440.20 436.79,439.53 428.63,396.01 428.04,392.45"/>
        <param key="railway:preferred_direction" value="forward"/>
    </edge>
    <edge id="6279146" from="cluster_251050941_280598736_280598739_28902891_3142549227_3142550438" to="5501433500" name="Waisenhausdamm" priority="4" type="highway.residential" spreadType="center" shape="416.57,387.46 408.57,381.85 404.93,378.90 401.06,377.01 396.40,374.73 387.44,371.69 347.05,362.62 290.13,350.05 270.56,346.56 265.75,346.69 262.20,348.53 260.31,351.38 260.13,354.38 260.07,355.76">
        <lane id="6279146_0" index="0" disallow="tram rail_urban rail rail_electric ship" speed="13.89" length="160.37" shape="409.02,382.16 408.57,381.85 404.93,378.90 401.06,377.01 396.40,374.73 387.44,371.69 347.05,362.62 290.13,350.05 270.56,346.56 265.75,346.69 262.20,348.53 260.31,351.38 260.13,354.38 260.07,355.76"/>
    </edge>

    <tlLogic id="cluster_251050941_280598736_280598739_28902891_3142549227_3142550438" type="static" programID="0" offset="0">
        <phase duration="27" state="GrrggGgGgrrgg"/>
        <phase duration="3"  state="yrryyyyyyrryy"/>
        <phase duration="27" state="rrrrrrrrrGGrr"/>
        <phase duration="3"  state="rrrrrrrrryyrr"/>
        <phase duration="27" state="GGGrrrrrrrrrr"/>
        <phase duration="3"  state="yyyrrrrrrrrrr"/>
    </tlLogic>

    <junction id="196317724" type="dead_end" x="407.72" y="240.22" incLanes="25730280#0_0 25730280#0_1" intLanes="" shape="404.52,240.27 410.92,240.17"/>
    <junction id="251050939" type="dead_end" x="281.30" y="339.68" incLanes="" intLanes="" shape="280.99,341.25 281.61,338.11"/>
    <junction id="273459765" type="priority" x="388.89" y="362.88" incLanes="308958254#0_0" intLanes=":273459765_0_0 :273459765_1_0" shape="401.70,365.93 402.02,362.75 401.84,361.85 401.43,358.42 398.71,359.87 396.59,360.82 394.74,361.35 392.81,361.53 390.48,361.42 387.41,361.11 387.05,364.29">
        <request index="0" response="00" foes="00" cont="0"/>
        <request index="1" response="00" foes="00" cont="0"/>
    </junction>
    <junction id="3142528930" type="priority" x="430.32" y="388.14" incLanes="308958255#0_0 26812730#5_0" intLanes=":3142528930_0_0 :3142528930_1_0" shape="429.03,389.82 432.16,389.18 431.61,386.23 428.36,387.19 428.65,388.15 428.74,388.49 428.82,388.84 428.91,389.25">
        <request index="0" response="00" foes="10" cont="0"/>
        <request index="1" response="01" foes="01" cont="0"/>
    </junction>
    <junction id="3142528931" type="dead_end" x="438.86" y="430.86" incLanes="308956942_0" intLanes="" shape="440.45,430.64 437.27,431.08"/>
    <junction id="3142549218" type="priority" x="415.19" y="329.06" incLanes="308958257#3_0 308958258#3_0" intLanes=":3142549218_0_0 :3142549218_1_0" shape="416.24,345.97 419.40,345.51 416.56,327.24 413.39,327.67 414.01,331.58 414.54,334.58 414.80,337.08 414.63,339.51 413.85,342.30 412.29,345.86 415.61,345.94">
        <request index="0" response="10" foes="10" cont="0"/>
        <request index="1" response="00" foes="01" cont="0"/>
    </junction>
    <junction id="3142549222" type="priority" x="417.85" y="345.92" incLanes="308958257#2_0 308958259#0_0" intLanes=":3142549222_0_0 :3142549222_1_0" shape="417.71,352.74 420.84,352.05 420.25,330.18 417.02,329.37 416.86,329.38 413.69,329.89 414.64,334.54 415.68,338.17 416.46,341.22 416.64,344.14 415.85,347.39 413.76,351.40 416.76,352.63 417.17,352.16 417.34,352.11 417.49,352.20 417.61,352.40">
        <request index="0" response="00" foes="10" cont="0"/>
        <request index="1" response="01" foes="01" cont="0"/>
    </junction>
    <junction id="3142550434" type="priority" x="401.51" y="364.30" incLanes="308958259#4_0 26812730#0_0" intLanes=":3142550434_0_0 :3142550434_1_0" shape="407.43,366.93 407.94,363.77 407.37,363.52 407.27,363.35 407.30,363.16 407.46,362.93 407.74,362.67 406.19,359.81 403.76,361.50 401.73,362.37 399.85,362.62 397.84,362.44 395.44,362.04 392.39,361.63 392.03,364.81 392.03,365.13 393.17,368.22 396.21,367.74 398.48,367.18 400.35,366.69 402.22,366.39 404.45,366.42">
        <request index="0" response="00" foes="10" cont="0"/>
        <request index="1" response="01" foes="01" cont="0"/>
    </junction>
    <junction id="3142550435" type="priority" x="389.11" y="367.06" incLanes="308958256#2_0 308958259#6_0" intLanes=":3142550435_0_0 :3142550435_1_0" shape="401.73,369.77 401.97,366.58 401.87,365.87 401.50,362.60 387.64,365.25 387.21,368.42">
        <request index="0" response="00" foes="10" cont="0"/>
        <request index="1" response="01" foes="01" cont="0"/>
    </junction>
    <junction id="3142550441" type="priority" x="424.13" y="375.67" incLanes="308958257#0_0 26812730#4_0" intLanes=":3142550441_0_0 :3142550441_1_0" shape="426.57,392.52 429.68,391.80 432.47,389.76 424.34,368.43 421.20,369.04 421.23,369.75 421.13,369.90 420.95,369.92 420.69,369.80 420.35,369.54 417.84,371.64">
        <request index="0" response="10" foes="10" cont="0"/>
        <request index="1" response="00" foes="01" cont="0"/>
    </junction>
    <junction id="3144398514" type="dead_end" x="0.00" y="149.03" incLanes="" intLanes="" shape="-1.59,149.22 1.59,148.84"/>
    <junction id="3265483974" type="dead_end" x="221.71" y="334.21" incLanes="308958253#0_0" intLanes="" shape="221.27,335.75 222.15,332.67"/>
    <junction id="50917718" type="priority" x="418.72" y="332.07" incLanes="317682099#0_0" intLanes=":50917718_0_0 :50917718_1_0" shape="416.01,346.64 419.34,346.54 420.02,346.56 423.15,345.88 422.43,342.58 421.84,340.15 421.35,338.15 420.92,336.14 420.54,333.68 420.16,330.33 416.97,330.64">
        <request index="0" response="00" foes="00" cont="0"/>
        <request index="1" response="00" foes="00" cont="0"/>
    </junction>
    <junction id="50917756" type="dead_end" x="548.74" y="0.00" incLanes="" intLanes="" shape="547.14,-0.12 550.34,0.12"/>