<?xml version="1.0" encoding="UTF-8"?>

<!-- generated on Fri 09 Oct 2020 08:46:04 AM CEST by Eclipse SUMO netedit Version v1_7_0+0563-2a94785fdd
<configuration xmlns:xsi="http://www.w3.org/2001/XMLSchema-instance" xsi:noNamespaceSchemaLocation="http://sumo.dlr.de/xsd/netconvertConfiguration.xsd">

    <input>
        <new value="true"/>
    </input>

    <output>
        <output-file value="/home/kobo/dlr/debug/hanna_zipper/plain.net.xml"/>
        <plain-output-prefix value="/home/kobo/dlr/debug/hanna_zipper/input_plain"/>
    </output>

    <processing>
        <offset.disable-normalization value="true"/>
    </processing>

    <report>
        <aggregate-warnings value="5"/>
    </report>

</configuration>
-->

<edges version="1.6" xmlns:xsi="http://www.w3.org/2001/XMLSchema-instance" xsi:noNamespaceSchemaLocation="http://sumo.dlr.de/xsd/edges_file.xsd">
    <edge id="in" from="gneJ2" to="z" priority="-1" numLanes="1" speed="13.89" shape="-14.70,49.63 42.89,52.22"/>
    <edge id="in2" from="gneJ0" to="z" priority="-1" numLanes="2" speed="13.89"/>
    <edge id="out" from="z" to="gneJ3" priority="-1" numLanes="2" speed="13.89"/>
</edges>
