<?xml version="1.0" encoding="UTF-8"?>

<!-- generated on Fri 09 Oct 2020 08:46:04 AM CEST by Eclipse SUMO netedit Version v1_7_0+0563-2a94785fdd
<configuration xmlns:xsi="http://www.w3.org/2001/XMLSchema-instance" xsi:noNamespaceSchemaLocation="http://sumo.dlr.de/xsd/netconvertConfiguration.xsd">

    <input>
        <new value="true"/>
    </input>

    <output>
        <output-file value="/home/kobo/dlr/debug/hanna_zipper/plain.net.xml"/>
        <plain-output-prefix value="/home/kobo/dlr/debug/hanna_zipper/input_plain"/>
    </output>

    <processing>
        <offset.disable-normalization value="true"/>
    </processing>

    <report>
        <aggregate-warnings value="5"/>
    </report>

</configuration>
-->

<connections version="1.6" xmlns:xsi="http://www.w3.org/2001/XMLSchema-instance" xsi:noNamespaceSchemaLocation="http://sumo.dlr.de/xsd/connections_file.xsd">
    <connection from="in" to="out" fromLane="0" toLane="1"/>

    <connection from="in2" to="out" fromLane="0" toLane="0"/>
    <connection from="in2" to="out" fromLane="1" toLane="0"/>

</connections>
