<?xml version="1.0"?>

<!-- generated on 11/12/09 11:30:36 by SUMO sumo Version dev-SVN-r7969
<configuration>

    <input>
        <net-file value="net.net.xml"/>
        <route-files value="input_routes.rou.xml"/>
        <additional-files value="input_additional.add.xml"/>
    </input>

    <time>
        <begin value="0"/>
        <end value="10000"/>
    </time>

    <report>
        <no-duration-log value="true"/>
        <no-step-log value="true"/>
    </report>

    <mesoscopic>
        <mesosim value="true"/>
        <meso-taujf value="2.7"/>
    </mesoscopic>

</configuration>
-->

<netstats>
   <interval begin="0" end="60" id="dump_60">
      <edge id="1/1to2/1" sampledSeconds="1223.29" traveltime="85.85" density="20.81" occupancy="14.56" waitingTime="0.00" speed="11.41" departed="34" arrived="0" entered="0" left="4" laneChangedFrom="0" laneChangedTo="0"/>
      <edge id="2/1to3/1" sampledSeconds="23.71" traveltime="50.00" density="0.40" occupancy="0.28" waitingTime="0.00" speed="19.60" departed="0" arrived="0" entered="4" left="0" laneChangedFrom="0" laneChangedTo="0"/>
   </interval>
   <interval begin="60" end="120" id="dump_60">
      <edge id="1/1to2/1" sampledSeconds="1769.53" traveltime="79.61" density="30.10" occupancy="21.07" waitingTime="0.00" speed="12.31" departed="22" arrived="0" entered="0" left="23" laneChangedFrom="0" laneChangedTo="0"/>
      <edge id="2/1to3/1" sampledSeconds="839.92" traveltime="50.00" density="14.29" occupancy="10.00" waitingTime="0.00" speed="19.60" departed="0" arrived="0" entered="23" left="8" laneChangedFrom="0" laneChangedTo="0"/>
      <edge id="3/1to4/1" sampledSeconds="85.55" traveltime="50.00" density="1.46" occupancy="1.02" waitingTime="0.00" speed="19.60" departed="0" arrived="0" entered="8" left="0" laneChangedFrom="0" laneChangedTo="0"/>
   </interval>
   <interval begin="120" end="180" id="dump_60">
      <edge id="1/1to2/1" sampledSeconds="1769.83" traveltime="79.64" density="30.10" occupancy="21.07" waitingTime="0.00" speed="12.30" departed="22" arrived="0" entered="0" left="22" laneChangedFrom="0" laneChangedTo="0"/>
      <edge id="2/1to3/1" sampledSeconds="1111.33" traveltime="50.00" density="18.90" occupancy="13.23" waitingTime="0.00" speed="19.60" departed="0" arrived="0" entered="22" left="22" laneChangedFrom="0" laneChangedTo="0"/>
      <edge id="3/1to4/1" sampledSeconds="963.62" traveltime="50.00" density="16.39" occupancy="11.47" waitingTime="0.00" speed="19.60" departed="0" arrived="0" entered="22" left="12" laneChangedFrom="0" laneChangedTo="0"/>
      <edge id="4/1to5/1" sampledSeconds="184.21" traveltime="50.00" density="3.13" occupancy="2.19" waitingTime="0.00" speed="19.60" departed="0" arrived="0" entered="12" left="0" laneChangedFrom="0" laneChangedTo="0"/>
   </interval>
   <interval begin="180" end="240" id="dump_60">
      <edge id="1/1to2/1" sampledSeconds="1769.63" traveltime="79.73" density="30.10" occupancy="21.07" waitingTime="0.00" speed="12.29" departed="23" arrived="0" entered="0" left="22" laneChangedFrom="0" laneChangedTo="0"/>
      <edge id="2/1to3/1" sampledSeconds="1111.33" traveltime="50.00" density="18.90" occupancy="13.23" waitingTime="0.00" speed="19.60" departed="0" arrived="0" entered="22" left="22" laneChangedFrom="0" laneChangedTo="0"/>
      <edge id="3/1to4/1" sampledSeconds="1110.73" traveltime="50.00" density="18.89" occupancy="13.22" waitingTime="0.00" speed="19.60" departed="0" arrived="0" entered="22" left="22" laneChangedFrom="0" laneChangedTo="0"/>
      <edge id="4/1to5/1" sampledSeconds="1050.42" traveltime="50.00" density="17.87" occupancy="12.51" waitingTime="0.00" speed="19.60" departed="0" arrived="0" entered="22" left="15" laneChangedFrom="0" laneChangedTo="0"/>
      <edge id="5/1to6/1" sampledSeconds="319.88" traveltime="50.00" density="5.44" occupancy="3.81" waitingTime="0.00" speed="19.60" departed="0" arrived="0" entered="15" left="0" laneChangedFrom="0" laneChangedTo="0"/>
   </interval>
   <interval begin="240" end="300" id="dump_60">
      <edge id="1/1to2/1" sampledSeconds="1770.43" traveltime="79.62" density="30.11" occupancy="21.08" waitingTime="0.00" speed="12.31" departed="22" arrived="0" entered="0" left="22" laneChangedFrom="0" laneChangedTo="0"/>
      <edge id="2/1to3/1" sampledSeconds="1110.83" traveltime="50.00" density="18.89" occupancy="13.22" waitingTime="0.00" speed="19.60" departed="0" arrived="0" entered="22" left="23" laneChangedFrom="0" laneChangedTo="0"/>
      <edge id="3/1to4/1" sampledSeconds="1111.24" traveltime="50.00" density="18.90" occupancy="13.23" waitingTime="0.00" speed="19.60" departed="0" arrived="0" entered="23" left="22" laneChangedFrom="0" laneChangedTo="0"/>
      <edge id="4/1to5/1" sampledSeconds="1110.92" traveltime="50.00" density="18.89" occupancy="13.23" waitingTime="0.00" speed="19.60" departed="0" arrived="0" entered="22" left="23" laneChangedFrom="0" laneChangedTo="0"/>
      <edge id="5/1to6/1" sampledSeconds="1099.59" traveltime="50.00" density="18.70" occupancy="13.09" waitingTime="0.00" speed="19.60" departed="0" arrived="0" entered="23" left="19" laneChangedFrom="0" laneChangedTo="0"/>
      <edge id="6/1to7/1" sampledSeconds="492.99" traveltime="50.00" density="8.38" occupancy="5.87" waitingTime="0.00" speed="19.60" departed="0" arrived="0" entered="19" left="0" laneChangedFrom="0" laneChangedTo="0"/>
   </interval>
   <interval begin="300" end="360" id="dump_60">
      <edge id="1/1to2/1" sampledSeconds="1770.23" traveltime="79.62" density="30.11" occupancy="21.08" waitingTime="0.00" speed="12.31" departed="22" arrived="0" entered="0" left="22" laneChangedFrom="0" laneChangedTo="0"/>
      <edge id="2/1to3/1" sampledSeconds="1110.73" traveltime="50.00" density="18.89" occupancy="13.22" waitingTime="0.00" speed="19.60" departed="0" arrived="0" entered="22" left="22" laneChangedFrom="0" laneChangedTo="0"/>
      <edge id="3/1to4/1" sampledSeconds="1111.33" traveltime="50.00" density="18.90" occupancy="13.23" waitingTime="0.00" speed="19.60" departed="0" arrived="0" entered="22" left="22" laneChangedFrom="0" laneChangedTo="0"/>
      <edge id="4/1to5/1" sampledSeconds="1110.73" traveltime="50.00" density="18.89" occupancy="13.22" waitingTime="0.00" speed="19.60" departed="0" arrived="0" entered="22" left="22" laneChangedFrom="0" laneChangedTo="0"/>
      <edge id="5/1to6/1" sampledSeconds="1111.33" traveltime="50.00" density="18.90" occupancy="13.23" waitingTime="0.00" speed="19.60" departed="0" arrived="0" entered="22" left="22" laneChangedFrom="0" laneChangedTo="0"/>
      <edge id="6/1to7/1" sampledSeconds="1111.71" traveltime="50.00" density="18.91" occupancy="13.24" waitingTime="0.00" speed="19.60" departed="0" arrived="0" entered="22" left="23" laneChangedFrom="0" laneChangedTo="0"/>
      <edge id="7/1to8/1" sampledSeconds="679.14" traveltime="50.00" density="11.55" occupancy="8.09" waitingTime="0.00" speed="19.60" departed="0" arrived="0" entered="23" left="4" laneChangedFrom="0" laneChangedTo="0"/>
      <edge id="8/1to9/1" sampledSeconds="23.79" traveltime="50.00" density="0.40" occupancy="0.28" waitingTime="0.00" speed="19.60" departed="0" arrived="0" entered="4" left="0" laneChangedFrom="0" laneChangedTo="0"/>
   </interval>
   <interval begin="360" end="420" id="dump_60">
      <edge id="1/1to2/1" sampledSeconds="1767.63" traveltime="79.54" density="30.06" occupancy="21.04" waitingTime="0.00" speed="12.32" departed="22" arrived="0" entered="0" left="23" laneChangedFrom="0" laneChangedTo="0"/>
      <edge id="2/1to3/1" sampledSeconds="1111.13" traveltime="50.00" density="18.90" occupancy="13.23" waitingTime="0.00" speed="19.60" departed="0" arrived="0" entered="23" left="22" laneChangedFrom="0" laneChangedTo="0"/>
      <edge id="3/1to4/1" sampledSeconds="1111.02" traveltime="50.00" density="18.90" occupancy="13.23" waitingTime="0.00" speed="19.60" departed="0" arrived="0" entered="22" left="23" laneChangedFrom="0" laneChangedTo="0"/>
      <edge id="4/1to5/1" sampledSeconds="1111.04" traveltime="50.00" density="18.90" occupancy="13.23" waitingTime="0.00" speed="19.60" departed="0" arrived="0" entered="23" left="22" laneChangedFrom="0" laneChangedTo="0"/>
      <edge id="5/1to6/1" sampledSeconds="1111.12" traveltime="50.00" density="18.90" occupancy="13.23" waitingTime="0.00" speed="19.60" departed="0" arrived="0" entered="22" left="23" laneChangedFrom="0" laneChangedTo="0"/>
      <edge id="6/1to7/1" sampledSeconds="1110.95" traveltime="50.00" density="18.89" occupancy="13.23" waitingTime="0.00" speed="19.60" departed="0" arrived="0" entered="23" left="22" laneChangedFrom="0" laneChangedTo="0"/>
      <edge id="7/1to8/1" sampledSeconds="1111.21" traveltime="50.00" density="18.90" occupancy="13.23" waitingTime="0.00" speed="19.60" departed="0" arrived="0" entered="22" left="23" laneChangedFrom="0" laneChangedTo="0"/>
      <edge id="8/1to9/1" sampledSeconds="840.20" traveltime="50.00" density="14.29" occupancy="10.00" waitingTime="0.00" speed="19.60" departed="0" arrived="0" entered="23" left="8" laneChangedFrom="0" laneChangedTo="0"/>
      <edge id="9/1to10/1" sampledSeconds="85.70" traveltime="50.00" density="1.46" occupancy="1.02" waitingTime="0.00" speed="19.60" departed="0" arrived="0" entered="8" left="0" laneChangedFrom="0" laneChangedTo="0"/>
   </interval>
   <interval begin="420" end="480" id="dump_60">
      <edge id="1/1to2/1" sampledSeconds="1767.24" traveltime="79.64" density="30.06" occupancy="21.04" waitingTime="0.00" speed="12.30" departed="23" arrived="0" entered="0" left="22" laneChangedFrom="0" laneChangedTo="0"/>
      <edge id="10/1to1/1" sampledSeconds="184.43" traveltime="50.00" density="3.14" occupancy="2.20" waitingTime="0.00" speed="19.60" departed="0" arrived="0" entered="12" left="0" laneChangedFrom="0" laneChangedTo="0"/>
      <edge id="2/1to3/1" sampledSeconds="1111.33" traveltime="50.00" density="18.90" occupancy="13.23" waitingTime="0.00" speed="19.60" departed="0" arrived="0" entered="22" left="22" laneChangedFrom="0" laneChangedTo="0"/>
      <edge id="3/1to4/1" sampledSeconds="1110.73" traveltime="50.00" density="18.89" occupancy="13.22" waitingTime="0.00" speed="19.60" departed="0" arrived="0" entered="22" left="22" laneChangedFrom="0" laneChangedTo="0"/>
      <edge id="4/1to5/1" sampledSeconds="1111.33" traveltime="50.00" density="18.90" occupancy="13.23" waitingTime="0.00" speed="19.60" departed="0" arrived="0" entered="22" left="22" laneChangedFrom="0" laneChangedTo="0"/>
      <edge id="5/1to6/1" sampledSeconds="1110.73" traveltime="50.00" density="18.89" occupancy="13.22" waitingTime="0.00" speed="19.60" departed="0" arrived="0" entered="22" left="22" laneChangedFrom="0" laneChangedTo="0"/>
      <edge id="6/1to7/1" sampledSeconds="1111.33" traveltime="50.00" density="18.90" occupancy="13.23" waitingTime="0.00" speed="19.60" departed="0" arrived="0" entered="22" left="22" laneChangedFrom="0" laneChangedTo="0"/>
      <edge id="7/1to8/1" sampledSeconds="1110.73" traveltime="50.00" density="18.89" occupancy="13.22" waitingTime="0.00" speed="19.60" departed="0" arrived="0" entered="22" left="22" laneChangedFrom="0" laneChangedTo="0"/>
      <edge id="8/1to9/1" sampledSeconds="1111.33" traveltime="50.00" density="18.90" occupancy="13.23" waitingTime="0.00" speed="19.60" departed="0" arrived="0" entered="22" left="22" laneChangedFrom="0" laneChangedTo="0"/>
      <edge id="9/1to10/1" sampledSeconds="963.81" traveltime="50.00" density="16.39" occupancy="11.47" waitingTime="0.00" speed="19.60" departed="0" arrived="0" entered="22" left="12" laneChangedFrom="0" laneChangedTo="0"/>
   </interval>
   <interval begin="480" end="540" id="dump_60">
      <edge id="1/1to2/1" sampledSeconds="1776.04" traveltime="79.84" density="30.21" occupancy="21.14" waitingTime="0.00" speed="12.27" departed="7" arrived="0" entered="15" left="22" laneChangedFrom="0" laneChangedTo="0"/>
      <edge id="10/1to1/1" sampledSeconds="1076.72" traveltime="51.26" density="18.31" occupancy="12.82" waitingTime="0.00" speed="19.12" departed="0" arrived="0" entered="22" left="15" laneChangedFrom="0" laneChangedTo="0"/>
      <edge id="2/1to3/1" sampledSeconds="1111.12" traveltime="50.00" density="18.90" occupancy="13.23" waitingTime="0.00" speed="19.60" departed="0" arrived="0" entered="22" left="23" laneChangedFrom="0" laneChangedTo="0"/>
      <edge id="3/1to4/1" sampledSeconds="1110.93" traveltime="50.00" density="18.89" occupancy="13.23" waitingTime="0.00" speed="19.60" departed="0" arrived="0" entered="23" left="22" laneChangedFrom="0" laneChangedTo="0"/>
      <edge id="4/1to5/1" sampledSeconds="1111.22" traveltime="50.00" density="18.90" occupancy="13.23" waitingTime="0.00" speed="19.60" departed="0" arrived="0" entered="22" left="23" laneChangedFrom="0" laneChangedTo="0"/>
      <edge id="5/1to6/1" sampledSeconds="1110.84" traveltime="50.00" density="18.89" occupancy="13.23" waitingTime="0.00" speed="19.60" departed="0" arrived="0" entered="23" left="22" laneChangedFrom="0" laneChangedTo="0"/>
      <edge id="6/1to7/1" sampledSeconds="1111.31" traveltime="50.00" density="18.90" occupancy="13.23" waitingTime="0.00" speed="19.60" departed="0" arrived="0" entered="22" left="23" laneChangedFrom="0" laneChangedTo="0"/>
      <edge id="7/1to8/1" sampledSeconds="1110.75" traveltime="50.00" density="18.89" occupancy="13.22" waitingTime="0.00" speed="19.60" departed="0" arrived="0" entered="23" left="22" laneChangedFrom="0" laneChangedTo="0"/>
      <edge id="8/1to9/1" sampledSeconds="1111.33" traveltime="50.00" density="18.90" occupancy="13.23" waitingTime="0.00" speed="19.60" departed="0" arrived="0" entered="22" left="22" laneChangedFrom="0" laneChangedTo="0"/>
      <edge id="9/1to10/1" sampledSeconds="1110.73" traveltime="50.00" density="18.89" occupancy="13.22" waitingTime="0.00" speed="19.60" departed="0" arrived="0" entered="22" left="22" laneChangedFrom="0" laneChangedTo="0"/>
   </interval>
   <interval begin="540" end="600" id="dump_60">
      <edge id="1/1to2/1" sampledSeconds="1780.14" traveltime="80.07" density="30.28" occupancy="21.19" waitingTime="0.00" speed="12.24" departed="0" arrived="0" entered="22" left="22" laneChangedFrom="0" laneChangedTo="0"/>
      <edge id="10/1to1/1" sampledSeconds="1151.63" traveltime="51.81" density="19.59" occupancy="13.71" waitingTime="0.00" speed="18.91" departed="0" arrived="0" entered="22" left="22" laneChangedFrom="0" laneChangedTo="0"/>
      <edge id="2/1to3/1" sampledSeconds="1110.73" traveltime="50.00" density="18.89" occupancy="13.22" waitingTime="0.00" speed="19.60" departed="0" arrived="0" entered="22" left="22" laneChangedFrom="0" laneChangedTo="0"/>
      <edge id="3/1to4/1" sampledSeconds="1111.33" traveltime="50.00" density="18.90" occupancy="13.23" waitingTime="0.00" speed="19.60" departed="0" arrived="0" entered="22" left="22" laneChangedFrom="0" laneChangedTo="0"/>
      <edge id="4/1to5/1" sampledSeconds="1110.73" traveltime="50.00" density="18.89" occupancy="13.22" waitingTime="0.00" speed="19.60" departed="0" arrived="0" entered="22" left="22" laneChangedFrom="0" laneChangedTo="0"/>
      <edge id="5/1to6/1" sampledSeconds="1111.33" traveltime="50.00" density="18.90" occupancy="13.23" waitingTime="0.00" speed="19.60" departed="0" arrived="0" entered="22" left="22" laneChangedFrom="0" laneChangedTo="0"/>
      <edge id="6/1to7/1" sampledSeconds="1110.73" traveltime="50.00" density="18.89" occupancy="13.22" waitingTime="0.00" speed="19.60" departed="0" arrived="0" entered="22" left="22" laneChangedFrom="0" laneChangedTo="0"/>
      <edge id="7/1to8/1" sampledSeconds="1111.33" traveltime="50.00" density="18.90" occupancy="13.23" waitingTime="0.00" speed="19.60" departed="0" arrived="0" entered="22" left="22" laneChangedFrom="0" laneChangedTo="0"/>
      <edge id="8/1to9/1" sampledSeconds="1110.81" traveltime="50.00" density="18.89" occupancy="13.22" waitingTime="0.00" speed="19.60" departed="0" arrived="0" entered="22" left="23" laneChangedFrom="0" laneChangedTo="0"/>
      <edge id="9/1to10/1" sampledSeconds="1111.26" traveltime="50.00" density="18.90" occupancy="13.23" waitingTime="0.00" speed="19.60" departed="0" arrived="0" entered="23" left="22" laneChangedFrom="0" laneChangedTo="0"/>
   </interval>
   <interval begin="600" end="660" id="dump_60">
      <edge id="1/1to2/1" sampledSeconds="1780.03" traveltime="80.07" density="30.27" occupancy="21.19" waitingTime="0.00" speed="12.24" departed="0" arrived="0" entered="22" left="23" laneChangedFrom="0" laneChangedTo="0"/>
      <edge id="10/1to1/1" sampledSeconds="1151.63" traveltime="51.83" density="19.59" occupancy="13.71" waitingTime="0.00" speed="18.91" departed="0" arrived="0" entered="22" left="22" laneChangedFrom="0" laneChangedTo="0"/>
      <edge id="2/1to3/1" sampledSeconds="1110.83" traveltime="50.00" density="18.89" occupancy="13.22" waitingTime="0.00" speed="19.60" departed="0" arrived="0" entered="23" left="22" laneChangedFrom="0" laneChangedTo="0"/>
      <edge id="3/1to4/1" sampledSeconds="1111.32" traveltime="50.00" density="18.90" occupancy="13.23" waitingTime="0.00" speed="19.60" departed="0" arrived="0" entered="22" left="23" laneChangedFrom="0" laneChangedTo="0"/>
      <edge id="4/1to5/1" sampledSeconds="1110.74" traveltime="50.00" density="18.89" occupancy="13.22" waitingTime="0.00" speed="19.60" departed="0" arrived="0" entered="23" left="22" laneChangedFrom="0" laneChangedTo="0"/>
      <edge id="5/1to6/1" sampledSeconds="1111.33" traveltime="50.00" density="18.90" occupancy="13.23" waitingTime="0.00" speed="19.60" departed="0" arrived="0" entered="22" left="22" laneChangedFrom="0" laneChangedTo="0"/>
      <edge id="6/1to7/1" sampledSeconds="1110.73" traveltime="50.00" density="18.89" occupancy="13.22" waitingTime="0.00" speed="19.60" departed="0" arrived="0" entered="22" left="22" laneChangedFrom="0" laneChangedTo="0"/>
      <edge id="7/1to8/1" sampledSeconds="1111.33" traveltime="50.00" density="18.90" occupancy="13.23" waitingTime="0.00" speed="19.60" departed="0" arrived="0" entered="22" left="22" laneChangedFrom="0" laneChangedTo="0"/>
      <edge id="8/1to9/1" sampledSeconds="1110.73" traveltime="50.00" density="18.89" occupancy="13.22" waitingTime="0.00" speed="19.60" departed="0" arrived="0" entered="22" left="22" laneChangedFrom="0" laneChangedTo="0"/>
      <edge id="9/1to10/1" sampledSeconds="1111.33" traveltime="50.00" density="18.90" occupancy="13.23" waitingTime="0.00" speed="19.60" departed="0" arrived="0" entered="22" left="22" laneChangedFrom="0" laneChangedTo="0"/>
   </interval>
   <interval begin="660" end="720" id="dump_60">
      <edge id="1/1to2/1" sampledSeconds="1779.54" traveltime="80.08" density="30.27" occupancy="21.19" waitingTime="0.00" speed="12.24" departed="0" arrived="0" entered="22" left="22" laneChangedFrom="0" laneChangedTo="0"/>
      <edge id="10/1to1/1" sampledSeconds="1151.97" traveltime="51.85" density="19.59" occupancy="13.71" waitingTime="0.00" speed="18.90" departed="0" arrived="0" entered="23" left="22" laneChangedFrom="0" laneChangedTo="0"/>
      <edge id="2/1to3/1" sampledSeconds="1111.33" traveltime="50.00" density="18.90" occupancy="13.23" waitingTime="0.00" speed="19.60" departed="0" arrived="0" entered="22" left="22" laneChangedFrom="0" laneChangedTo="0"/>
      <edge id="3/1to4/1" sampledSeconds="1110.73" traveltime="50.00" density="18.89" occupancy="13.22" waitingTime="0.00" speed="19.60" departed="0" arrived="0" entered="22" left="22" laneChangedFrom="0" laneChangedTo="0"/>
      <edge id="4/1to5/1" sampledSeconds="1111.33" traveltime="50.00" density="18.90" occupancy="13.23" waitingTime="0.00" speed="19.60" departed="0" arrived="0" entered="22" left="22" laneChangedFrom="0" laneChangedTo="0"/>
      <edge id="5/1to6/1" sampledSeconds="1110.81" traveltime="50.00" density="18.89" occupancy="13.22" waitingTime="0.00" speed="19.60" departed="0" arrived="0" entered="22" left="23" laneChangedFrom="0" laneChangedTo="0"/>
      <edge id="6/1to7/1" sampledSeconds="1111.24" traveltime="50.00" density="18.90" occupancy="13.23" waitingTime="0.00" speed="19.60" departed="0" arrived="0" entered="23" left="22" laneChangedFrom="0" laneChangedTo="0"/>
      <edge id="7/1to8/1" sampledSeconds="1110.91" traveltime="50.00" density="18.89" occupancy="13.23" waitingTime="0.00" speed="19.60" departed="0" arrived="0" entered="22" left="23" laneChangedFrom="0" laneChangedTo="0"/>
      <edge id="8/1to9/1" sampledSeconds="1111.15" traveltime="50.00" density="18.90" occupancy="13.23" waitingTime="0.00" speed="19.60" departed="0" arrived="0" entered="23" left="22" laneChangedFrom="0" laneChangedTo="0"/>
      <edge id="9/1to10/1" sampledSeconds="1111.00" traveltime="50.00" density="18.90" occupancy="13.23" waitingTime="0.00" speed="19.60" departed="0" arrived="0" entered="22" left="23" laneChangedFrom="0" laneChangedTo="0"/>
   </interval>
   <interval begin="720" end="780" id="dump_60">
      <edge id="1/1to2/1" sampledSeconds="1779.93" traveltime="80.19" density="30.27" occupancy="21.19" waitingTime="0.00" speed="12.22" departed="0" arrived="0" entered="23" left="22" laneChangedFrom="0" laneChangedTo="0"/>
      <edge id="10/1to1/1" sampledSeconds="1151.84" traveltime="51.82" density="19.59" occupancy="13.71" waitingTime="0.00" speed="18.91" departed="0" arrived="0" entered="22" left="23" laneChangedFrom="0" laneChangedTo="0"/>
      <edge id="2/1to3/1" sampledSeconds="1111.33" traveltime="50.00" density="18.90" occupancy="13.23" waitingTime="0.00" speed="19.60" departed="0" arrived="0" entered="22" left="22" laneChangedFrom="0" laneChangedTo="0"/>
      <edge id="3/1to4/1" sampledSeconds="1110.73" traveltime="50.00" density="18.89" occupancy="13.22" waitingTime="0.00" speed="19.60" departed="0" arrived="0" entered="22" left="22" laneChangedFrom="0" laneChangedTo="0"/>
      <edge id="4/1to5/1" sampledSeconds="1111.33" traveltime="50.00" density="18.90" occupancy="13.23" waitingTime="0.00" speed="19.60" departed="0" arrived="0" entered="22" left="22" laneChangedFrom="0" laneChangedTo="0"/>
      <edge id="5/1to6/1" sampledSeconds="1110.73" traveltime="50.00" density="18.89" occupancy="13.22" waitingTime="0.00" speed="19.60" departed="0" arrived="0" entered="22" left="22" laneChangedFrom="0" laneChangedTo="0"/>
      <edge id="6/1to7/1" sampledSeconds="1111.33" traveltime="50.00" density="18.90" occupancy="13.23" waitingTime="0.00" speed="19.60" departed="0" arrived="0" entered="22" left="22" laneChangedFrom="0" laneChangedTo="0"/>
      <edge id="7/1to8/1" sampledSeconds="1110.73" traveltime="50.00" density="18.89" occupancy="13.22" waitingTime="0.00" speed="19.60" departed="0" arrived="0" entered="22" left="22" laneChangedFrom="0" laneChangedTo="0"/>
      <edge id="8/1to9/1" sampledSeconds="1111.33" traveltime="50.00" density="18.90" occupancy="13.23" waitingTime="0.00" speed="19.60" departed="0" arrived="0" entered="22" left="22" laneChangedFrom="0" laneChangedTo="0"/>
      <edge id="9/1to10/1" sampledSeconds="1110.73" traveltime="50.00" density="18.89" occupancy="13.22" waitingTime="0.00" speed="19.60" departed="0" arrived="0" entered="22" left="22" laneChangedFrom="0" laneChangedTo="0"/>
   </interval>
   <interval begin="780" end="840" id="dump_60">
      <edge id="1/1to2/1" sampledSeconds="1780.14" traveltime="80.07" density="30.28" occupancy="21.19" waitingTime="0.00" speed="12.24" departed="0" arrived="0" entered="22" left="22" laneChangedFrom="0" laneChangedTo="0"/>
      <edge id="10/1to1/1" sampledSeconds="1151.64" traveltime="51.81" density="19.59" occupancy="13.71" waitingTime="0.00" speed="18.91" departed="0" arrived="0" entered="22" left="22" laneChangedFrom="0" laneChangedTo="0"/>
      <edge id="2/1to3/1" sampledSeconds="1110.82" traveltime="50.00" density="18.89" occupancy="13.22" waitingTime="0.00" speed="19.60" departed="0" arrived="0" entered="22" left="23" laneChangedFrom="0" laneChangedTo="0"/>
      <edge id="3/1to4/1" sampledSeconds="1111.23" traveltime="50.00" density="18.90" occupancy="13.23" waitingTime="0.00" speed="19.60" departed="0" arrived="0" entered="23" left="22" laneChangedFrom="0" laneChangedTo="0"/>
      <edge id="4/1to5/1" sampledSeconds="1110.92" traveltime="50.00" density="18.89" occupancy="13.23" waitingTime="0.00" speed="19.60" departed="0" arrived="0" entered="22" left="23" laneChangedFrom="0" laneChangedTo="0"/>
      <edge id="5/1to6/1" sampledSeconds="1111.14" traveltime="50.00" density="18.90" occupancy="13.23" waitingTime="0.00" speed="19.60" departed="0" arrived="0" entered="23" left="22" laneChangedFrom="0" laneChangedTo="0"/>
      <edge id="6/1to7/1" sampledSeconds="1111.01" traveltime="50.00" density="18.90" occupancy="13.23" waitingTime="0.00" speed="19.60" departed="0" arrived="0" entered="22" left="23" laneChangedFrom="0" laneChangedTo="0"/>
      <edge id="7/1to8/1" sampledSeconds="1111.05" traveltime="50.00" density="18.90" occupancy="13.23" waitingTime="0.00" speed="19.60" departed="0" arrived="0" entered="23" left="22" laneChangedFrom="0" laneChangedTo="0"/>
      <edge id="8/1to9/1" sampledSeconds="1111.10" traveltime="50.00" density="18.90" occupancy="13.23" waitingTime="0.00" speed="19.60" departed="0" arrived="0" entered="22" left="23" laneChangedFrom="0" laneChangedTo="0"/>
      <edge id="9/1to10/1" sampledSeconds="1110.95" traveltime="50.00" density="18.89" occupancy="13.23" waitingTime="0.00" speed="19.60" departed="0" arrived="0" entered="23" left="22" laneChangedFrom="0" laneChangedTo="0"/>
   </interval>
   <interval begin="840" end="900" id="dump_60">
      <edge id="1/1to2/1" sampledSeconds="1780.14" traveltime="80.07" density="30.28" occupancy="21.19" waitingTime="0.00" speed="12.24" departed="0" arrived="0" entered="22" left="22" laneChangedFrom="0" laneChangedTo="0"/>
      <edge id="10/1to1/1" sampledSeconds="1151.64" traveltime="51.82" density="19.59" occupancy="13.71" waitingTime="0.00" speed="18.91" departed="0" arrived="0" entered="22" left="22" laneChangedFrom="0" laneChangedTo="0"/>
      <edge id="2/1to3/1" sampledSeconds="1110.73" traveltime="50.00" density="18.89" occupancy="13.22" waitingTime="0.00" speed="19.60" departed="0" arrived="0" entered="22" left="22" laneChangedFrom="0" laneChangedTo="0"/>
      <edge id="3/1to4/1" sampledSeconds="1111.33" traveltime="50.00" density="18.90" occupancy="13.23" waitingTime="0.00" speed="19.60" departed="0" arrived="0" entered="22" left="22" laneChangedFrom="0" laneChangedTo="0"/>
      <edge id="4/1to5/1" sampledSeconds="1110.73" traveltime="50.00" density="18.89" occupancy="13.22" waitingTime="0.00" speed="19.60" departed="0" arrived="0" entered="22" left="22" laneChangedFrom="0" laneChangedTo="0"/>
      <edge id="5/1to6/1" sampledSeconds="1111.33" traveltime="50.00" density="18.90" occupancy="13.23" waitingTime="0.00" speed="19.60" departed="0" arrived="0" entered="22" left="22" laneChangedFrom="0" laneChangedTo="0"/>
      <edge id="6/1to7/1" sampledSeconds="1110.73" traveltime="50.00" density="18.89" occupancy="13.22" waitingTime="0.00" speed="19.60" departed="0" arrived="0" entered="22" left="22" laneChangedFrom="0" laneChangedTo="0"/>
      <edge id="7/1to8/1" sampledSeconds="1111.33" traveltime="50.00" density="18.90" occupancy="13.23" waitingTime="0.00" speed="19.60" departed="0" arrived="0" entered="22" left="22" laneChangedFrom="0" laneChangedTo="0"/>
      <edge id="8/1to9/1" sampledSeconds="1110.73" traveltime="50.00" density="18.89" occupancy="13.22" waitingTime="0.00" speed="19.60" departed="0" arrived="0" entered="22" left="22" laneChangedFrom="0" laneChangedTo="0"/>
      <edge id="9/1to10/1" sampledSeconds="1111.33" traveltime="50.00" density="18.90" occupancy="13.23" waitingTime="0.00" speed="19.60" departed="0" arrived="0" entered="22" left="22" laneChangedFrom="0" laneChangedTo="0"/>
   </interval>
   <interval begin="900" end="960" id="dump_60">
      <edge id="1/1to2/1" sampledSeconds="1779.73" traveltime="80.08" density="30.27" occupancy="21.19" waitingTime="0.00" speed="12.24" departed="0" arrived="0" entered="22" left="23" laneChangedFrom="0" laneChangedTo="0"/>
      <edge id="10/1to1/1" sampledSeconds="1151.67" traveltime="51.84" density="19.59" occupancy="13.71" waitingTime="0.00" speed="18.90" departed="0" arrived="0" entered="23" left="22" laneChangedFrom="0" laneChangedTo="0"/>
      <edge id="2/1to3/1" sampledSeconds="1111.13" traveltime="50.00" density="18.90" occupancy="13.23" waitingTime="0.00" speed="19.60" departed="0" arrived="0" entered="23" left="22" laneChangedFrom="0" laneChangedTo="0"/>
      <edge id="3/1to4/1" sampledSeconds="1111.02" traveltime="50.00" density="18.90" occupancy="13.23" waitingTime="0.00" speed="19.60" departed="0" arrived="0" entered="22" left="23" laneChangedFrom="0" laneChangedTo="0"/>
      <edge id="4/1to5/1" sampledSeconds="1111.03" traveltime="50.00" density="18.90" occupancy="13.23" waitingTime="0.00" speed="19.60" departed="0" arrived="0" entered="23" left="22" laneChangedFrom="0" laneChangedTo="0"/>
      <edge id="5/1to6/1" sampledSeconds="1111.11" traveltime="50.00" density="18.90" occupancy="13.23" waitingTime="0.00" speed="19.60" departed="0" arrived="0" entered="22" left="23" laneChangedFrom="0" laneChangedTo="0"/>
      <edge id="6/1to7/1" sampledSeconds="1110.94" traveltime="50.00" density="18.89" occupancy="13.23" waitingTime="0.00" speed="19.60" departed="0" arrived="0" entered="23" left="22" laneChangedFrom="0" laneChangedTo="0"/>
      <edge id="7/1to8/1" sampledSeconds="1111.21" traveltime="50.00" density="18.90" occupancy="13.23" waitingTime="0.00" speed="19.60" departed="0" arrived="0" entered="22" left="23" laneChangedFrom="0" laneChangedTo="0"/>
      <edge id="8/1to9/1" sampledSeconds="1110.85" traveltime="50.00" density="18.89" occupancy="13.23" waitingTime="0.00" speed="19.60" departed="0" arrived="0" entered="23" left="22" laneChangedFrom="0" laneChangedTo="0"/>