<?xml version="1.0" encoding="UTF-8"?>

<!-- generated on Wed Apr  1 14:18:30 2020 by Eclipse SUMO netconvert Version v1_5_0+1059-24fef65bc7
This data file and the accompanying materials
are made available under the terms of the Eclipse Public License v2.0
which accompanies this distribution, and is available at
http://www.eclipse.org/legal/epl-v20.html
SPDX-License-Identifier: EPL-2.0
-->

<configuration xmlns:xsi="http://www.w3.org/2001/XMLSchema-instance" xsi:noNamespaceSchemaLocation="http://sumo.dlr.de/xsd/netconvertConfiguration.xsd">

    <input>
        <node-files value="input_plain2.nod.xml"/>
        <edge-files value="input_plain2.edg.xml"/>
    </input>

    <output>
        <write-license value="true"/>
        <output-file value="lefthand.net.xml"/>
    </output>

    <processing>
        <lefthand value="true"/>
    </processing>

</configuration>
