<?xml version="1.0" encoding="UTF-8"?>

<!-- generated on 2024-10-16 14:27:09 by Eclipse SUMO sumo Version v1_20_0+0696-f5985653822
This data file and the accompanying materials
are made available under the terms of the Eclipse Public License v2.0
which accompanies this distribution, and is available at
http://www.eclipse.org/legal/epl-v20.html
This file may also be made available under the following Secondary
Licenses when the conditions for such availability set forth in the Eclipse
Public License 2.0 are satisfied: GNU General Public License, version 2
or later which is available at
https://www.gnu.org/licenses/old-licenses/gpl-2.0-standalone.html
SPDX-License-Identifier: EPL-2.0 OR GPL-2.0-or-later
<configuration xmlns:xsi="http://www.w3.org/2001/XMLSchema-instance" xsi:noNamespaceSchemaLocation="http://sumo.dlr.de/xsd/sumoConfiguration.xsd">

    <input>
        <net-file value="net.net.xml"/>
        <route-files value="input_routes.rou.xml"/>
        <additional-files value="input_additional.add.xml,input_additional2.add.xml"/>
    </input>

    <output>
        <write-license value="true"/>
        <tripinfo-output value="tripinfos.xml"/>
        <railsignal-block-output value="railsignal_blocks.xml"/>
        <railsignal-vehicle-output value="railsignal_vehicles.xml"/>
    </output>

    <processing>
        <time-to-teleport.railsignal-deadlock value="200"/>
        <default.speeddev value="0"/>
    </processing>

    <report>
        <xml-validation value="never"/>
        <duration-log.disable value="true"/>
        <no-step-log value="true"/>
    </report>

</configuration>
-->

<railsignal-vehicle-output>
    <railSignal id="A">
        <link linkIndex="0" from="-b_0" to="-a_0"/>
        <link linkIndex="1" from="a_0" to="b_0">
            <driveWay id="A.0">
                <entry id="t0" time="124.00" reason="1"/>
                <exit id="t0" time="188.00" reason="1"/>
            </driveWay>
            <subDriveWay id="A.0.0">
                <entry id="t0" time="124.00" reason="1"/>
                <exit id="t0" time="185.00" reason="1"/>
            </subDriveWay>
        </link>
    </railSignal>
    <railSignal id="D">
        <link linkIndex="0" from="-b2_0" to="-a2_0">
            <driveWay id="D.0">
                <entry id="t1" time="122.00" reason="1"/>
                <exit id="t1" time="178.00" reason="9"/>
            </driveWay>
        </link>
        <link linkIndex="1" from="a2_0" to="b2_0"/>
    </railSignal>
    <railSignal id="J0">
        <link linkIndex="0" from="-f_0" to="-e_0"/>
        <link linkIndex="1" from="e_0" to="f_0">
            <driveWay id="J0.0">
                <entry id="t0" time="185.00" reason="1"/>
                <exit id="t0" time="240.00" reason="9"/>
            </driveWay>
        </link>
    </railSignal>
    <railSignal id="J1">
        <link linkIndex="0" from="-f2_0" to="-e2_0">
            <driveWay id="J1.0">
                <entry id="t1" time="72.00" reason="1"/>
                <exit id="t1" time="126.00" reason="1"/>
            </driveWay>
            <subDriveWay id="J1.0.0">
                <entry id="t1" time="72.00" reason="1"/>
                <exit id="t1" time="121.00" reason="1"/>
            </subDriveWay>
        </link>
        <link linkIndex="1" from="e2_0" to="f2_0"/>
    </railSignal>
    <departJunction id="J2">
        <driveWay id="J2.d0">
            <entry id="t1" time="20.00" reason="0"/>
            <exit id="t1" time="80.00" reason="1"/>
        </driveWay>
    </departJunction>
    <departJunction id="gneJ1">
        <driveWay id="gneJ1.d0">
            <entry id="t0" time="0.00" reason="0"/>
            <exit id="t0" time="141.00" reason="1"/>
        </driveWay>
    </departJunction>
</railsignal-vehicle-output>
