<?xml version="1.0" encoding="UTF-8"?>

<!-- generated on 2024-08-01 09:58:50 by Eclipse SUMO netedit Version v1_20_0+0494-7b4f5668782
-->

<routes xmlns:xsi="http://www.w3.org/2001/XMLSchema-instance" xsi:noNamespaceSchemaLocation="http://sumo.dlr.de/xsd/routes_file.xsd">
    <!-- Vehicles, persons and containers (sorted by depart) -->
    <vType id="train" length="50" vClass="rail"/>
    <route id="r0" edges="E0 E1 E2 E3 E4 E8 E9 E10 E11 E15 E16 E17 E18 -E18 -E17 -E16 -E15 -E11 -E14 -E13 -E12 -E8 -E4 -E3 -E2 -E1 -E0"/>
    <route id="r1" edges="E6 E7 E4 E8 E12 E13 E14 E11 E15 E19 E20 E21 E18 -E18 -E17 -E16 -E15 -E11 -E10 -E9 -E8 -E4 -E3 -E2 -E1 -E0"/>
    <vehicle id="v_0" type="train" depart="0.00" route="r0"/>
    <vehicle id="v_1" type="train" depart="100.00" route="r1"/>
</routes>
