<?xml version="1.0" encoding="UTF-8"?>

<!-- generated on 3/22/2021 4:24:13 PM by Eclipse SUMO netedit Version v1_8_0+1744-662ff8fcc3
-->

<additional xmlns:xsi="http://www.w3.org/2001/XMLSchema-instance" xsi:noNamespaceSchemaLocation="http://sumo.dlr.de/xsd/additional_file.xsd">
    <poly id="poly_0" color="red" fill="0" layer="0.00" shape="-50.000000,40.000000 -40.000000,40.000000 -40.000000,30.000000 -50.000000,30.000000 -50.000000,40.000000"/>
</additional>
