<?xml version="1.0" encoding="UTF-8"?>

<!-- generated on 19.02.2021 07:37:35 by Eclipse SUMO netedit Version v1_8_0+1258-414af6328d
-->

<routes xmlns:xsi="http://www.w3.org/2001/XMLSchema-instance" xsi:noNamespaceSchemaLocation="http://sumo.dlr.de/xsd/routes_file.xsd">
</routes>
