<routes>
    <vType id="vehDistCyc" vClass="bicycle" />
    <flow id="right"  begin="0" end="100" number="5"  from="gneE4b" to="gneE2" type="vehDistCyc" departPos="-20" color="red"/>
    <flow id="ahead" begin="0" end="100" number="15" from="gneE4b" to="gneE1" type="vehDistCyc" departPos="-20" color="green"/>
    <flow id="left" begin="0" end="100" number="8"  from="gneE4b" to="gneE5" type="vehDistCyc" departPos="-20" color="blue"/>
</routes>
