<?xml version="1.0" encoding="UTF-8"?>

<!-- generated on 2023-04-26 11:34:25 by Eclipse SUMO sumo Version v1_17_0+0029-3726f21
This data file and the accompanying materials
are made available under the terms of the Eclipse Public License v2.0
which accompanies this distribution, and is available at
http://www.eclipse.org/legal/epl-v20.html
This file may also be made available under the following Secondary
Licenses when the conditions for such availability set forth in the Eclipse
Public License 2.0 are satisfied: GNU General Public License, version 2
or later which is available at
https://www.gnu.org/licenses/old-licenses/gpl-2.0-standalone.html
SPDX-License-Identifier: EPL-2.0 OR GPL-2.0-or-later
<configuration xmlns:xsi="http://www.w3.org/2001/XMLSchema-instance" xsi:noNamespaceSchemaLocation="http://sumo.dlr.de/xsd/sumoConfiguration.xsd">

    <input>
        <net-file value="net.net.xml"/>
        <route-files value="input_routes.rou.xml"/>
    </input>

    <output>
        <write-license value="true"/>
        <lanechange-output value="lanechanges.xml"/>
    </output>

    <processing>
        <lateral-resolution value="0.8"/>
        <default.speeddev value="0"/>
    </processing>

    <report>
        <xml-validation value="never"/>
        <duration-log.statistics value="true"/>
        <no-step-log value="true"/>
    </report>

</configuration>
-->

<lanechanges>
    <change id="ahead.0" type="vehDistCyc" time="10.00" from="gneE4c_0" to="gneE4c_1" dir="1" speed="4.10" pos="8.19" reason="strategic|urgent" leaderGap="None" leaderSecureGap="None" leaderSpeed="None" followerGap="None" followerSecureGap="None" followerSpeed="None" origLeaderGap="None" origLeaderSecureGap="None" origLeaderSpeed="None" latGap="None"/>
    <change id="left.0" type="vehDistCyc" time="12.00" from="gneE4c_0" to="gneE4c_1" dir="1" speed="0.00" pos="2.30" reason="strategic|urgent" leaderGap="5.39" leaderSecureGap="0.00" leaderSpeed="0.00" followerGap="None" followerSecureGap="None" followerSpeed="None" origLeaderGap="None" origLeaderSecureGap="None" origLeaderSpeed="None" latGap="None"/>
    <change id="ahead.1" type="vehDistCyc" time="15.00" from="gneE4c_0" to="gneE4c_1" dir="1" speed="3.09" pos="4.00" reason="strategic|urgent" leaderGap="3.69" leaderSecureGap="1.15" leaderSpeed="0.00" followerGap="None" followerSecureGap="None" followerSpeed="None" origLeaderGap="None" origLeaderSecureGap="None" origLeaderSpeed="None" latGap="2.95"/>
    <change id="left.0" type="vehDistCyc" time="16.00" from="gneE4c_1" to="gneE4c_2" dir="1" speed="2.32" pos="7.57" reason="strategic|urgent" leaderGap="None" leaderSecureGap="None" leaderSpeed="None" followerGap="None" followerSecureGap="None" followerSpeed="None" origLeaderGap="0.12" origLeaderSecureGap="2.32" origLeaderSpeed="0.00" latGap="None"/>
    <change id="left.1" type="vehDistCyc" time="21.00" from="gneE4c_0" to="gneE4c_1" dir="1" speed="0.00" pos="3.49" reason="strategic|urgent" leaderGap="4.20" leaderSecureGap="0.00" leaderSpeed="0.00" followerGap="None" followerSecureGap="None" followerSpeed="None" origLeaderGap="None" origLeaderSecureGap="None" origLeaderSpeed="None" latGap="None"/>
    <change id="ahead.2" type="vehDistCyc" time="24.00" from="gneE4c_0" to="gneE4c_1" dir="1" speed="2.26" pos="5.79" reason="strategic|urgent" leaderGap="1.90" leaderSecureGap="0.00" leaderSpeed="0.00" followerGap="None" followerSecureGap="None" followerSpeed="None" origLeaderGap="None" origLeaderSecureGap="None" origLeaderSpeed="None" latGap="None"/>
    <change id="left.1" type="vehDistCyc" time="25.00" from="gneE4c_1" to="gneE4c_2" dir="1" speed="0.21" pos="4.31" reason="strategic|urgent" leaderGap="3.28" leaderSecureGap="0.21" leaderSpeed="0.00" followerGap="None" followerSecureGap="None" followerSpeed="None" origLeaderGap="None" origLeaderSecureGap="None" origLeaderSpeed="None" latGap="None"/>
    <change id="ahead.3" type="vehDistCyc" time="30.00" from="gneE4c_0" to="gneE4c_1" dir="1" speed="3.57" pos="3.80" reason="strategic|urgent" leaderGap="5.03" leaderSecureGap="1.62" leaderSpeed="1.15" followerGap="None" followerSecureGap="None" followerSpeed="None" origLeaderGap="None" origLeaderSecureGap="None" origLeaderSpeed="None" latGap="None"/>
    <change id="left.2" type="vehDistCyc" time="34.00" from="gneE4c_0" to="gneE4c_1" dir="1" speed="0.00" pos="1.81" reason="strategic|urgent" leaderGap="None" leaderSecureGap="None" leaderSpeed="None" followerGap="None" followerSecureGap="None" followerSpeed="None" origLeaderGap="None" origLeaderSecureGap="None" origLeaderSpeed="None" latGap="None"/>
    <change id="ahead.4" type="vehDistCyc" time="37.00" from="gneE4c_0" to="gneE4c_1" dir="1" speed="1.36" pos="8.39" reason="strategic|urgent" leaderGap="20.47" leaderSecureGap="0.00" leaderSpeed="5.22" followerGap="None" followerSecureGap="None" followerSpeed="None" origLeaderGap="None" origLeaderSecureGap="None" origLeaderSpeed="None" latGap="None"/>
    <change id="left.2" type="vehDistCyc" time="37.00" from="gneE4c_1" to="gneE4c_2" dir="1" speed="1.97" pos="4.62" reason="strategic|urgent" leaderGap="32.41" leaderSecureGap="0.00" leaderSpeed="5.43" followerGap="None" followerSecureGap="None" followerSpeed="None" origLeaderGap="2.17" origLeaderSecureGap="1.97" origLeaderSpeed="1.36" latGap="None"/>
    <change id="ahead.5" type="vehDistCyc" time="42.00" from="gneE4c_0" to="gneE4c_1" dir="1" speed="2.53" pos="6.79" reason="strategic|urgent" leaderGap="19.75" leaderSecureGap="0.00" leaderSpeed="5.50" followerGap="None" followerSecureGap="None" followerSpeed="None" origLeaderGap="None" origLeaderSecureGap="None" origLeaderSpeed="None" latGap="None"/>
    <change id="left.3" type="vehDistCyc" time="46.00" from="gneE4c_0" to="gneE4c_1" dir="1" speed="0.00" pos="5.10" reason="strategic|urgent" leaderGap="None" leaderSecureGap="None" leaderSpeed="None" followerGap="None" followerSecureGap="None" followerSpeed="None" origLeaderGap="None" origLeaderSecureGap="None" origLeaderSpeed="None" latGap="None"/>
    <change id="left.3" type="vehDistCyc" time="49.00" from="gneE4c_1" to="gneE4c_2" dir="1" speed="0.86" pos="7.06" reason="strategic|urgent" leaderGap="52.87" leaderSecureGap="0.00" leaderSpeed="5.49" followerGap="None" followerSecureGap="None" followerSpeed="None" origLeaderGap="None" origLeaderSecureGap="None" origLeaderSpeed="None" latGap="None"/>
    <change id="ahead.6" type="vehDistCyc" time="51.00" from="gneE4c_0" to="gneE4c_1" dir="1" speed="3.14" pos="6.44" reason="strategic|urgent" leaderGap="43.26" leaderSecureGap="0.00" leaderSpeed="5.07" followerGap="None" followerSecureGap="None" followerSpeed="None" origLeaderGap="None" origLeaderSecureGap="None" origLeaderSpeed="None" latGap="None"/>
    <change id="ahead.7" type="vehDistCyc" time="55.00" from="gneE4c_0" to="gneE4c_1" dir="1" speed="3.57" pos="8.90" reason="strategic|urgent" leaderGap="15.64" leaderSecureGap="0.00" leaderSpeed="5.55" followerGap="None" followerSecureGap="None" followerSpeed="None" origLeaderGap="None" origLeaderSecureGap="None" origLeaderSpeed="None" latGap="None"/>
    <change id="left.4" type="vehDistCyc" time="58.00" from="gneE4c_0" to="gneE4c_1" dir="1" speed="0.00" pos="1.18" reason="strategic|urgent" leaderGap="None" leaderSecureGap="None" leaderSpeed="None" followerGap="None" followerSecureGap="None" followerSpeed="None" origLeaderGap="None" origLeaderSecureGap="None" origLeaderSpeed="None" latGap="None"/>
    <change id="left.4" type="vehDistCyc" time="61.00" from="gneE4c_1" to="gneE4c_2" dir="1" speed="1.56" pos="3.47" reason="strategic|urgent" leaderGap="52.42" leaderSecureGap="0.00" leaderSpeed="5.15" followerGap="None" followerSecureGap="None" followerSpeed="None" origLeaderGap="None" origLeaderSecureGap="None" origLeaderSpeed="None" latGap="None"/>
    <change id="ahead.8" type="vehDistCyc" time="62.00" from="gneE4c_0" to="gneE4c_1" dir="1" speed="2.32" pos="6.71" reason="strategic|urgent" leaderGap="37.14" leaderSecureGap="0.00" leaderSpeed="5.28" followerGap="None" followerSecureGap="None" followerSpeed="None" origLeaderGap="None" origLeaderSecureGap="None" origLeaderSpeed="None" latGap="None"/>
    <change id="left.5" type="vehDistCyc" time="73.00" from="gneE4c_0" to="gneE4c_1" dir="1" speed="0.00" pos="4.26" reason="strategic|urgent" leaderGap="3.33" leaderSecureGap="0.00" leaderSpeed="0.00" followerGap="None" followerSecureGap="None" followerSpeed="None" origLeaderGap="None" origLeaderSecureGap="None" origLeaderSpeed="None" latGap="None"/>
    <change id="ahead.10" type="vehDistCyc" time="77.00" from="gneE4c_0" to="gneE4c_1" dir="1" speed="0.00" pos="5.61" reason="strategic|urgent" leaderGap="1.98" leaderSecureGap="0.00" leaderSpeed="0.00" followerGap="None" followerSecureGap="None" followerSpeed="None" origLeaderGap="1.98" origLeaderSecureGap="0.00" origLeaderSpeed="0.00" latGap="None"/>
    <change id="left.5" type="vehDistCyc" time="77.00" from="gneE4c_1" to="gneE4c_2" dir="1" speed="0.00" pos="4.31" reason="strategic|urgent" leaderGap="3.28" leaderSecureGap="0.00" leaderSpeed="0.00" followerGap="None" followerSecureGap="None" followerSpeed="None" origLeaderGap="None" origLeaderSecureGap="None" origLeaderSpeed="None" latGap="None"/>
    <change id="ahead.11" type="vehDistCyc" time="83.00" from="gneE4c_0" to="gneE4c_1" dir="1" speed="0.00" pos="5.52" reason="strategic|urgent" leaderGap="2.07" leaderSecureGap="0.00" leaderSpeed="0.00" followerGap="None" followerSecureGap="None" followerSpeed="None" origLeaderGap="2.07" origLeaderSecureGap="0.00" origLeaderSpeed="0.00" latGap="1.95"/>
    <change id="left.6" type="vehDistCyc" time="85.00" from="gneE4c_0" to="gneE4c_1" dir="1" speed="0.00" pos="1.07" reason="strategic|urgent" leaderGap="3.84" leaderSecureGap="0.00" leaderSpeed="0.99" followerGap="None" followerSecureGap="None" followerSpeed="None" origLeaderGap="6.52" origLeaderSecureGap="0.00" origLeaderSpeed="0.00" latGap="None"/>
    <change id="left.6" type="vehDistCyc" time="88.00" from="gneE4c_1" to="gneE4c_2" dir="1" speed="1.54" pos="3.46" reason="strategic|urgent" leaderGap="4.13" leaderSecureGap="1.54" leaderSpeed="0.00" followerGap="None" followerSecureGap="None" followerSpeed="None" origLeaderGap="1.74" origLeaderSecureGap="1.54" origLeaderSpeed="0.00" latGap="None"/>
    <change id="ahead.12" type="vehDistCyc" time="92.00" from="gneE4c_0" to="gneE4c_1" dir="1" speed="0.00" pos="3.90" reason="strategic|urgent" leaderGap="1.30" leaderSecureGap="0.00" leaderSpeed="0.00" followerGap="None" followerSecureGap="None" followerSpeed="None" origLeaderGap="1.57" origLeaderSecureGap="0.00" origLeaderSpeed="0.02" latGap="None"/>
    <change id="ahead.9" type="vehDistCyc" time="94.00" from="gneE4c_0" to="gneE4c_1" dir="1" speed="0.00" pos="9.00" reason="strategic|urgent" leaderGap="1.90" leaderSecureGap="0.00" leaderSpeed="2.14" followerGap="0.60" followerSecureGap="0.00" followerSpeed="0.00" origLeaderGap="None" origLeaderSecureGap="None" origLeaderSpeed="None" latGap="None"/>
    <change id="left.7" type="vehDistCyc" time="98.00" from="gneE4c_0" to="gneE4c_1" dir="1" speed="0.00" pos="4.32" reason="strategic|urgent" leaderGap="None" leaderSecureGap="None" leaderSpeed="None" followerGap="None" followerSecureGap="None" followerSpeed="None" origLeaderGap="None" origLeaderSecureGap="None" origLeaderSpeed="None" latGap="None"/>
    <change id="ahead.13" type="vehDistCyc" time="100.00" from="gneE4c_0" to="gneE4c_1" dir="1" speed="1.19" pos="5.29" reason="strategic|urgent" leaderGap="6.89" leaderSecureGap="1.19" leaderSpeed="2.87" followerGap="None" followerSecureGap="None" followerSpeed="None" origLeaderGap="None" origLeaderSecureGap="None" origLeaderSpeed="None" latGap="1.15"/>
    <change id="left.7" type="vehDistCyc" time="101.00" from="gneE4c_1" to="gneE4c_2" dir="1" speed="0.00" pos="5.28" reason="strategic|urgent" leaderGap="40.05" leaderSecureGap="0.00" leaderSpeed="5.21" followerGap="None" followerSecureGap="None" followerSpeed="None" origLeaderGap="0.52" origLeaderSecureGap="0.00" origLeaderSpeed="2.11" latGap="None"/>
    <change id="ahead.14" type="vehDistCyc" time="103.00" from="gneE4c_0" to="gneE4c_1" dir="1" speed="2.02" pos="5.69" reason="strategic|urgent" leaderGap="7.29" leaderSecureGap="0.00" leaderSpeed="3.97" followerGap="None" followerSecureGap="None" followerSpeed="None" origLeaderGap="None" origLeaderSecureGap="None" origLeaderSpeed="None" latGap="None"/>
</lanechanges>
