<?xml version="1.0" encoding="UTF-8"?>

<!-- generated on 2022-01-25 12:31:50 by Eclipse SUMO sumo Version 1.12.0
This data file and the accompanying materials
are made available under the terms of the Eclipse Public License v2.0
which accompanies this distribution, and is available at
http://www.eclipse.org/legal/epl-v20.html
SPDX-License-Identifier: EPL-2.0
<configuration xmlns:xsi="http://www.w3.org/2001/XMLSchema-instance" xsi:noNamespaceSchemaLocation="http://sumo.dlr.de/xsd/sumoConfiguration.xsd">

    <input>
        <net-file value="net.net.xml"/>
        <route-files value="input_routes.rou.xml"/>
    </input>

    <output>
        <write-license value="true"/>
        <lanechange-output value="lanechanges.xml"/>
    </output>

    <processing>
        <lateral-resolution value="0.8"/>
        <default.speeddev value="0"/>
    </processing>

    <report>
        <verbose value="true"/>
        <xml-validation value="never"/>
        <xml-validation.routes value="never"/>
        <duration-log.statistics value="true"/>
        <no-step-log value="true"/>
    </report>

</configuration>
-->

<lanechanges>
    <change id="ahead.0" type="vehDistCyc" time="10.00" from="gneE4c_0" to="gneE4c_1" dir="1" speed="4.10" pos="8.19" reason="strategic|urgent" leaderGap="None" leaderSecureGap="None" leaderSpeed="None" followerGap="None" followerSecureGap="None" followerSpeed="None" origLeaderGap="None" origLeaderSecureGap="None" origLeaderSpeed="None" latGap="None"/>
    <change id="left.0" type="vehDistCyc" time="12.00" from="gneE4c_0" to="gneE4c_1" dir="1" speed="2.35" pos="4.65" reason="strategic|urgent" leaderGap="3.04" leaderSecureGap="2.35" leaderSpeed="0.00" followerGap="None" followerSecureGap="None" followerSpeed="None" origLeaderGap="None" origLeaderSecureGap="None" origLeaderSpeed="None" latGap="None"/>
    <change id="ahead.1" type="vehDistCyc" time="15.00" from="gneE4c_0" to="gneE4c_1" dir="1" speed="3.09" pos="4.00" reason="strategic|urgent" leaderGap="3.69" leaderSecureGap="3.18" leaderSpeed="0.00" followerGap="None" followerSecureGap="None" followerSpeed="None" origLeaderGap="None" origLeaderSecureGap="None" origLeaderSpeed="None" latGap="None"/>
    <change id="left.0" type="vehDistCyc" time="16.00" from="gneE4c_1" to="gneE4c_2" dir="1" speed="1.54" pos="8.35" reason="strategic|urgent" leaderGap="None" leaderSecureGap="None" leaderSpeed="None" followerGap="None" followerSecureGap="None" followerSpeed="None" origLeaderGap="None" origLeaderSecureGap="None" origLeaderSpeed="None" latGap="None"/>
    <change id="left.1" type="vehDistCyc" time="22.00" from="gneE4c_0" to="gneE4c_1" dir="1" speed="0.00" pos="5.83" reason="strategic|urgent" leaderGap="1.86" leaderSecureGap="0.00" leaderSpeed="0.00" followerGap="None" followerSecureGap="None" followerSpeed="None" origLeaderGap="None" origLeaderSecureGap="None" origLeaderSpeed="None" latGap="None"/>
    <change id="ahead.2" type="vehDistCyc" time="25.00" from="gneE4c_0" to="gneE4c_1" dir="1" speed="0.31" pos="6.10" reason="strategic|urgent" leaderGap="1.59" leaderSecureGap="0.31" leaderSpeed="0.00" followerGap="None" followerSecureGap="None" followerSpeed="None" origLeaderGap="None" origLeaderSecureGap="None" origLeaderSpeed="None" latGap="2.15"/>
    <change id="left.1" type="vehDistCyc" time="26.00" from="gneE4c_1" to="gneE4c_2" dir="1" speed="0.00" pos="5.83" reason="strategic|urgent" leaderGap="1.76" leaderSecureGap="0.00" leaderSpeed="0.00" followerGap="None" followerSecureGap="None" followerSpeed="None" origLeaderGap="None" origLeaderSecureGap="None" origLeaderSpeed="None" latGap="None"/>
    <change id="ahead.3" type="vehDistCyc" time="30.00" from="gneE4c_0" to="gneE4c_1" dir="1" speed="3.57" pos="3.80" reason="strategic|urgent" leaderGap="4.95" leaderSecureGap="4.13" leaderSpeed="1.06" followerGap="None" followerSecureGap="None" followerSpeed="None" origLeaderGap="None" origLeaderSecureGap="None" origLeaderSpeed="None" latGap="None"/>
    <change id="left.2" type="vehDistCyc" time="33.00" from="gneE4c_0" to="gneE4c_1" dir="1" speed="2.40" pos="4.20" reason="strategic|urgent" leaderGap="None" leaderSecureGap="None" leaderSpeed="None" followerGap="None" followerSecureGap="None" followerSpeed="None" origLeaderGap="None" origLeaderSecureGap="None" origLeaderSpeed="None" latGap="None"/>
    <change id="ahead.4" type="vehDistCyc" time="36.00" from="gneE4c_0" to="gneE4c_1" dir="1" speed="4.22" pos="9.61" reason="strategic|urgent" leaderGap="13.49" leaderSecureGap="3.80" leaderSpeed="4.65" followerGap="None" followerSecureGap="None" followerSpeed="None" origLeaderGap="None" origLeaderSecureGap="None" origLeaderSpeed="None" latGap="None"/>
    <change id="left.2" type="vehDistCyc" time="37.00" from="gneE4c_1" to="gneE4c_2" dir="1" speed="1.36" pos="7.14" reason="strategic|urgent" leaderGap="None" leaderSecureGap="None" leaderSpeed="None" followerGap="None" followerSecureGap="None" followerSpeed="None" origLeaderGap="None" origLeaderSecureGap="None" origLeaderSpeed="None" latGap="None"/>
    <change id="ahead.5" type="vehDistCyc" time="42.00" from="gneE4c_0" to="gneE4c_1" dir="1" speed="2.53" pos="6.79" reason="strategic|urgent" leaderGap="None" leaderSecureGap="None" leaderSpeed="None" followerGap="None" followerSecureGap="None" followerSpeed="None" origLeaderGap="None" origLeaderSecureGap="None" origLeaderSpeed="None" latGap="None"/>
    <change id="left.3" type="vehDistCyc" time="46.00" from="gneE4c_0" to="gneE4c_1" dir="1" speed="2.33" pos="7.43" reason="strategic|urgent" leaderGap="None" leaderSecureGap="None" leaderSpeed="None" followerGap="None" followerSecureGap="None" followerSpeed="None" origLeaderGap="None" origLeaderSecureGap="None" origLeaderSpeed="None" latGap="None"/>
    <change id="left.3" type="vehDistCyc" time="49.00" from="gneE4c_1" to="gneE4c_2" dir="1" speed="0.65" pos="8.88" reason="strategic|urgent" leaderGap="None" leaderSecureGap="None" leaderSpeed="None" followerGap="None" followerSecureGap="None" followerSpeed="None" origLeaderGap="None" origLeaderSecureGap="None" origLeaderSpeed="None" latGap="None"/>
    <change id="ahead.6" type="vehDistCyc" time="51.00" from="gneE4c_0" to="gneE4c_1" dir="1" speed="3.08" pos="6.38" reason="strategic|urgent" leaderGap="None" leaderSecureGap="None" leaderSpeed="None" followerGap="None" followerSecureGap="None" followerSpeed="None" origLeaderGap="None" origLeaderSecureGap="None" origLeaderSpeed="None" latGap="None"/>
    <change id="ahead.7" type="vehDistCyc" time="55.00" from="gneE4c_0" to="gneE4c_1" dir="1" speed="3.58" pos="8.91" reason="strategic|urgent" leaderGap="14.67" leaderSecureGap="1.64" leaderSpeed="5.52" followerGap="None" followerSecureGap="None" followerSpeed="None" origLeaderGap="None" origLeaderSecureGap="None" origLeaderSpeed="None" latGap="None"/>
    <change id="left.4" type="vehDistCyc" time="58.00" from="gneE4c_0" to="gneE4c_1" dir="1" speed="2.28" pos="3.46" reason="strategic|urgent" leaderGap="None" leaderSecureGap="None" leaderSpeed="None" followerGap="None" followerSecureGap="None" followerSpeed="None" origLeaderGap="None" origLeaderSecureGap="None" origLeaderSpeed="None" latGap="None"/>
    <change id="left.4" type="vehDistCyc" time="61.00" from="gneE4c_1" to="gneE4c_2" dir="1" speed="1.96" pos="6.21" reason="strategic|urgent" leaderGap="None" leaderSecureGap="None" leaderSpeed="None" followerGap="None" followerSecureGap="None" followerSpeed="None" origLeaderGap="None" origLeaderSecureGap="None" origLeaderSpeed="None" latGap="None"/>
    <change id="ahead.8" type="vehDistCyc" time="62.00" from="gneE4c_0" to="gneE4c_1" dir="1" speed="2.55" pos="6.93" reason="strategic|urgent" leaderGap="None" leaderSecureGap="None" leaderSpeed="None" followerGap="None" followerSecureGap="None" followerSpeed="None" origLeaderGap="None" origLeaderSecureGap="None" origLeaderSpeed="None" latGap="None"/>
    <change id="ahead.9" type="vehDistCyc" time="72.00" from="gneE4c_0" to="gneE4c_1" dir="1" speed="0.00" pos="6.17" reason="strategic|urgent" leaderGap="1.42" leaderSecureGap="0.00" leaderSpeed="0.00" followerGap="None" followerSecureGap="None" followerSpeed="None" origLeaderGap="None" origLeaderSecureGap="None" origLeaderSpeed="None" latGap="None"/>
    <change id="left.5" type="vehDistCyc" time="77.00" from="gneE4c_0" to="gneE4c_1" dir="1" speed="0.00" pos="6.74" reason="strategic|urgent" leaderGap="0.85" leaderSecureGap="0.00" leaderSpeed="0.00" followerGap="None" followerSecureGap="None" followerSpeed="None" origLeaderGap="0.85" origLeaderSecureGap="0.00" origLeaderSpeed="0.00" latGap="None"/>
    <change id="ahead.10" type="vehDistCyc" time="78.00" from="gneE4c_0" to="gneE4c_1" dir="1" speed="0.00" pos="3.96" reason="strategic|urgent" leaderGap="3.63" leaderSecureGap="0.00" leaderSpeed="0.00" followerGap="None" followerSecureGap="None" followerSpeed="None" origLeaderGap="3.63" origLeaderSecureGap="0.00" origLeaderSpeed="0.00" latGap="None"/>
    <change id="left.5" type="vehDistCyc" time="80.00" from="gneE4c_1" to="gneE4c_2" dir="1" speed="0.00" pos="6.74" reason="strategic|urgent" leaderGap="0.85" leaderSecureGap="0.00" leaderSpeed="0.00" followerGap="None" followerSecureGap="None" followerSpeed="None" origLeaderGap="None" origLeaderSecureGap="None" origLeaderSpeed="None" latGap="None"/>
    <change id="ahead.11" type="vehDistCyc" time="83.00" from="gneE4c_0" to="gneE4c_1" dir="1" speed="0.00" pos="5.66" reason="strategic|urgent" leaderGap="1.93" leaderSecureGap="0.00" leaderSpeed="0.00" followerGap="None" followerSecureGap="None" followerSpeed="None" origLeaderGap="None" origLeaderSecureGap="None" origLeaderSpeed="None" latGap="2.95"/>
    <change id="left.6" type="vehDistCyc" time="83.00" from="gneE4c_0" to="gneE4c_1" dir="1" speed="5.20" pos="0.93" reason="strategic|urgent" leaderGap="3.13" leaderSecureGap="7.40" leaderSpeed="0.00" followerGap="None" followerSecureGap="None" followerSpeed="None" origLeaderGap="None" origLeaderSecureGap="None" origLeaderSpeed="None" latGap="None"/>
    <change id="left.6" type="vehDistCyc" time="87.00" from="gneE4c_1" to="gneE4c_2" dir="1" speed="0.00" pos="3.80" reason="strategic|urgent" leaderGap="3.79" leaderSecureGap="0.00" leaderSpeed="0.00" followerGap="None" followerSecureGap="None" followerSpeed="None" origLeaderGap="1.69" origLeaderSecureGap="0.00" origLeaderSpeed="0.10" latGap="None"/>
    <change id="ahead.12" type="vehDistCyc" time="95.00" from="gneE4c_0" to="gneE4c_1" dir="1" speed="0.00" pos="5.94" reason="strategic|urgent" leaderGap="1.96" leaderSecureGap="0.00" leaderSpeed="1.62" followerGap="None" followerSecureGap="None" followerSpeed="None" origLeaderGap="None" origLeaderSecureGap="None" origLeaderSpeed="None" latGap="None"/>
    <change id="ahead.10" type="vehDistCyc" time="98.00" from="gneE1_0" to="gneE1_1" dir="1" speed="5.33" pos="2.66" reason="sublane" leaderGap="None" leaderSecureGap="None" leaderSpeed="None" followerGap="None" followerSecureGap="None" followerSpeed="None" origLeaderGap="None" origLeaderSecureGap="None" origLeaderSpeed="None" latGap="None"/>
    <change id="ahead.13" type="vehDistCyc" time="98.00" from="gneE4c_0" to="gneE4c_1" dir="1" speed="0.68" pos="5.92" reason="strategic|urgent" leaderGap="4.53" leaderSecureGap="0.68" leaderSpeed="2.97" followerGap="None" followerSecureGap="None" followerSpeed="None" origLeaderGap="None" origLeaderSecureGap="None" origLeaderSpeed="None" latGap="None"/>
    <change id="left.7" type="vehDistCyc" time="99.00" from="gneE4c_0" to="gneE4c_1" dir="1" speed="0.00" pos="2.09" reason="strategic|urgent" leaderGap="3.83" leaderSecureGap="0.00" leaderSpeed="1.60" followerGap="None" followerSecureGap="None" followerSpeed="None" origLeaderGap="None" origLeaderSecureGap="None" origLeaderSpeed="None" latGap="None"/>
    <change id="left.7" type="vehDistCyc" time="102.00" from="gneE4c_1" to="gneE4c_2" dir="1" speed="1.42" pos="4.15" reason="strategic|urgent" leaderGap="None" leaderSecureGap="None" leaderSpeed="None" followerGap="None" followerSecureGap="None" followerSpeed="None" origLeaderGap="None" origLeaderSecureGap="None" origLeaderSpeed="None" latGap="None"/>
    <change id="ahead.14" type="vehDistCyc" time="103.00" from="gneE4c_0" to="gneE4c_1" dir="1" speed="2.30" pos="6.98" reason="strategic|urgent" leaderGap="14.75" leaderSecureGap="0.20" leaderSpeed="5.10" followerGap="None" followerSecureGap="None" followerSpeed="None" origLeaderGap="None" origLeaderSecureGap="None" origLeaderSpeed="None" latGap="2.75"/>
</lanechanges>
