<?xml version="1.0" encoding="UTF-8"?>

<!-- generated on Mon Feb 10 12:03:34 2020 by Eclipse SUMO netconvert Version v1_4_0+1013-1fc1218
<configuration xmlns:xsi="http://www.w3.org/2001/XMLSchema-instance" xsi:noNamespaceSchemaLocation="http://sumo.dlr.de/xsd/netconvertConfiguration.xsd">

    <input>
        <sumo-net-file value="LHD2.net.xml"/>
    </input>

    <output>
        <output-file value="RHD2.net.xml"/>
    </output>

    <processing>
        <geometry.min-radius.fix.railways value="false"/>
        <geometry.max-grade.fix value="false"/>
        <offset.disable-normalization value="true"/>
        <flip-y-axis value="true"/>
        <lefthand value="false"/>
    </processing>

    <junctions>
        <no-turnarounds value="true"/>
        <junctions.corner-detail value="5"/>
        <junctions.limit-turn-speed value="5.5"/>
        <rectangular-lane-cut value="false"/>
    </junctions>

    <pedestrian>
        <walkingareas value="false"/>
    </pedestrian>

    <report>
        <aggregate-warnings value="5"/>
    </report>

</configuration>
-->

<net version="1.3" junctionCornerDetail="5" limitTurnSpeed="5.50" xmlns:xsi="http://www.w3.org/2001/XMLSchema-instance" xsi:noNamespaceSchemaLocation="http://sumo.dlr.de/xsd/net_file.xsd">

    <location netOffset="0.00,0.00" convBoundary="-153.14,-55.59,244.97,225.91" origBoundary="-10000000000.00,-10000000000.00,10000000000.00,10000000000.00" projParameter="!"/>

    <edge id=":gneJ1_0" function="internal">
        <lane id=":gneJ1_0_0" index="0" allow="bicycle" speed="6.10" length="8.12" shape="34.86,-81.76 35.21,-79.55 36.17,-77.97 37.74,-77.03 39.93,-76.72"/>
    </edge>
    <edge id=":gneJ1_1" function="internal">
        <lane id=":gneJ1_1_0" index="0" disallow="bicycle" speed="7.06" length="10.73" shape="32.26,-81.73 32.77,-79.27 34.22,-77.51 36.61,-76.46 39.93,-76.12"/>
    </edge>
    <edge id=":gneJ1_2" function="internal">
        <lane id=":gneJ1_2_0" index="0" allow="bicycle" speed="13.89" length="14.69" width="2.00" shape="32.86,-81.74 31.86,-67.29"/>
        <lane id=":gneJ1_2_1" index="1" speed="13.89" length="14.69" width="3.20" shape="32.26,-81.73 31.83,-77.39 30.77,-74.49 29.71,-71.59 29.26,-67.25"/>
    </edge>
    <edge id=":gneJ1_4" function="internal">
        <lane id=":gneJ1_4_0" index="0" speed="7.99" length="14.18" shape="29.06,-81.69 28.57,-77.84 26.96,-75.07 24.23,-73.39 20.39,-72.80"/>
    </edge>
    <edge id=":gneJ6_0" function="internal">
        <lane id=":gneJ6_0_0" index="0" allow="bicycle" speed="13.89" length="8.54" width="2.00" shape="30.60,-164.39 31.12,-161.94 32.23,-160.42 33.35,-158.89 33.88,-156.44"/>
        <lane id=":gneJ6_0_1" index="1" disallow="bicycle" speed="13.89" length="8.54" width="3.20" shape="28.00,-164.37 28.52,-161.92 29.63,-160.39 30.75,-158.86 31.28,-156.41"/>
        <lane id=":gneJ6_0_2" index="2" disallow="bicycle" speed="13.89" length="8.54" width="3.20" shape="28.00,-164.37 28.08,-156.36"/>
    </edge>
    <edge id=":gneJ7_0" function="internal">
        <lane id=":gneJ7_0_0" index="0" allow="bicycle" speed="13.89" length="0.30" width="2.00" shape="34.71,-92.25 34.71,-91.96"/>
        <lane id=":gneJ7_0_1" index="1" disallow="bicycle" speed="13.89" length="0.30" width="3.20" shape="32.11,-92.22 32.11,-91.92"/>
        <lane id=":gneJ7_0_2" index="2" disallow="bicycle" speed="13.89" length="0.30" width="3.20" shape="28.91,-92.17 28.91,-91.87"/>
    </edge>

    <edge id="gneE0" from="gneJ0" to="gneJ1" priority="-1">
        <lane id="gneE0_0" index="0" speed="13.89" length="173.52" shape="-153.16,-74.00 20.35,-76.00"/>
    </edge>
    <edge id="gneE1" from="gneJ1" to="gneJ2" priority="-1">
        <lane id="gneE1_0" index="0" allow="bicycle" speed="13.89" length="122.83" width="2.00" shape="31.86,-67.29 33.38,55.54"/>
        <lane id="gneE1_1" index="1" speed="13.89" length="122.83" width="3.20" shape="29.26,-67.25 30.78,55.57"/>
    </edge>
    <edge id="gneE2" from="gneJ1" to="gneJ3" priority="-1">
        <lane id="gneE2_0" index="0" speed="13.89" length="205.04" shape="39.93,-76.12 244.96,-76.84"/>
    </edge>
    <edge id="gneE3" from="gneJ1" to="gneJ4" priority="-1">
        <lane id="gneE3_0" index="0" speed="13.89" length="144.24" shape="25.89,-81.66 24.35,-225.89"/>
    </edge>
    <edge id="gneE4" from="gneJ4" to="gneJ6" priority="-1">
        <lane id="gneE4_0" index="0" allow="bicycle" speed="13.89" length="61.55" width="2.00" shape="30.15,-225.94 30.60,-164.39"/>
        <lane id="gneE4_1" index="1" disallow="bicycle" speed="13.89" length="61.55" width="3.20" shape="27.55,-225.92 28.00,-164.37"/>
    </edge>
    <edge id="gneE4b" from="gneJ6" to="gneJ7" priority="-1">
        <lane id="gneE4b_0" index="0" allow="bicycle" speed="13.89" length="64.20" width="2.00" shape="33.88,-156.44 34.71,-92.25"/>
        <lane id="gneE4b_1" index="1" disallow="bicycle" speed="13.89" length="64.20" width="3.20" shape="31.28,-156.41 32.11,-92.22"/>
        <lane id="gneE4b_2" index="2" disallow="bicycle" speed="13.89" length="64.20" width="3.20" shape="28.08,-156.36 28.91,-92.17"/>
    </edge>
    <edge id="gneE4c" from="gneJ7" to="gneJ1" priority="-1">
        <stopOffset vClasses="passenger" value="10.00"/>
        <lane id="gneE4c_0" index="0" allow="bicycle" speed="13.89" length="10.19" width="2.00" shape="34.71,-91.96 34.86,-81.76"/>
        <lane id="gneE4c_1" index="1" speed="13.89" length="10.19" width="3.20" shape="32.11,-91.92 32.26,-81.73"/>
        <lane id="gneE4c_2" index="2" speed="13.89" length="10.19" width="3.20" shape="28.91,-91.87 29.06,-81.69"/>
    </edge>
    <edge id="gneE5" from="gneJ1" to="gneJ0" priority="-1">
        <lane id="gneE5_0" index="0" speed="13.89" length="173.52" shape="20.39,-72.80 -153.12,-70.80"/>
    </edge>
    <edge id="gneE6" from="gneJ2" to="gneJ1" priority="-1">
        <lane id="gneE6_0" index="0" speed="13.89" length="122.83" shape="27.58,55.61 26.06,-67.21"/>
    </edge>
    <edge id="gneE7" from="gneJ3" to="gneJ1" priority="-1">
        <lane id="gneE7_0" index="0" speed="13.89" length="205.04" shape="244.98,-73.64 39.94,-72.92"/>
    </edge>

    <tlLogic id="gneJ1" type="static" programID="0" offset="0">
        <phase duration="30" state="rrrrr"/>
        <phase duration="30" state="GGGGG"/>
        <phase duration="3"  state="yyyyy"/>
    </tlLogic>

    <junction id="gneJ0" type="dead_end" x="-153.14" y="-72.40" incLanes="gneE5_0" intLanes="" shape="-153.14,-72.40 -153.10,-69.20 -153.14,-72.40"/>
    <junction id="gneJ1" type="traffic_light" x="27.57" y="-74.48" incLanes="gneE6_0 gneE7_0 gneE4c_0 gneE4c_1 gneE4c_2 gneE0_0" intLanes=":gneJ1_0_0 :gneJ1_1_0 :gneJ1_2_0 :gneJ1_2_1 :gneJ1_4_0" shape="24.46,-67.19 32.86,-67.30 33.62,-69.52 34.61,-70.30 35.99,-70.86 37.77,-71.20 39.95,-71.32 39.92,-77.72 37.69,-78.17 36.91,-78.73 36.34,-79.51 35.99,-80.53 35.86,-81.77 24.29,-81.64 23.87,-79.42 23.33,-78.63 22.55,-78.07 21.56,-77.72 20.34,-77.60 20.41,-71.20 22.64,-70.77 23.42,-70.22 23.99,-69.44 24.33,-68.43" radius="4.00">
        <request index="0" response="00000" foes="00010" cont="0"/>
        <request index="1" response="00001" foes="00001" cont="0"/>
        <request index="2" response="00000" foes="00000" cont="0"/>
        <request index="3" response="00000" foes="00000" cont="0"/>
        <request index="4" response="00000" foes="00000" cont="0"/>
    </junction>
    <junction id="gneJ2" type="dead_end" x="29.18" y="55.59" incLanes="gneE1_0 gneE1_1" intLanes="" shape="29.18,55.59 34.38,55.53 29.18,55.59"/>
    <junction id="gneJ3" type="dead_end" x="244.97" y="-75.24" incLanes="gneE2_0" intLanes="" shape="244.97,-75.24 244.96,-78.44 244.97,-75.24"/>
    <junction id="gneJ4" type="dead_end" x="25.95" y="-225.91" incLanes="gneE3_0" intLanes="" shape="25.95,-225.91 31.15,-225.95 22.75,-225.88"/>
    <junction id="gneJ6" type="priority" x="26.43" y="-160.35" incLanes="gneE4_0 gneE4_1" intLanes=":gneJ6_0_0 :gneJ6_0_1 :gneJ6_0_2" shape="26.48,-156.34 34.88,-156.45 34.01,-159.47 32.45,-161.38 31.85,-162.62 31.60,-164.40 26.40,-164.36">
        <request index="0" response="000" foes="000" cont="0"/>
        <request index="1" response="000" foes="000" cont="0"/>
        <request index="2" response="000" foes="000" cont="0"/>
    </junction>
    <junction id="gneJ7" type="priority" x="27.31" y="-92.00" incLanes="gneE4b_0 gneE4b_1 gneE4b_2" intLanes=":gneJ7_0_0 :gneJ7_0_1 :gneJ7_0_2" shape="27.31,-91.85 35.71,-91.97 35.71,-92.26 27.31,-92.15">
        <request index="0" response="000" foes="000" cont="0"/>
        <request index="1" response="000" foes="000" cont="0"/>
        <request index="2" response="000" foes="000" cont="0"/>
    </junction>

    <connection from="gneE4" to="gneE4b" fromLane="0" toLane="0" via=":gneJ6_0_0" dir="s" state="M"/>
    <connection from="gneE4" to="gneE4b" fromLane="1" toLane="1" via=":gneJ6_0_1" dir="s" state="M"/>
    <connection from="gneE4" to="gneE4b" fromLane="1" toLane="2" via=":gneJ6_0_2" dir="s" state="M"/>
    <connection from="gneE4b" to="gneE4c" fromLane="0" toLane="0" via=":gneJ7_0_0" dir="s" state="M"/>
    <connection from="gneE4b" to="gneE4c" fromLane="1" toLane="1" via=":gneJ7_0_1" dir="s" state="M"/>
    <connection from="gneE4b" to="gneE4c" fromLane="2" toLane="2" via=":gneJ7_0_2" dir="s" state="M"/>
    <connection from="gneE4c" to="gneE2" fromLane="0" toLane="0" via=":gneJ1_0_0" tl="gneJ1" linkIndex="0" dir="r" state="O"/>
    <connection from="gneE4c" to="gneE2" fromLane="1" toLane="0" disallow="bicycle" via=":gneJ1_1_0" tl="gneJ1" linkIndex="1" dir="r" state="o"/>
    <connection from="gneE4c" to="gneE1" fromLane="1" toLane="0" via=":gneJ1_2_0" tl="gneJ1" linkIndex="2" dir="s" state="O"/>
    <connection from="gneE4c" to="gneE1" fromLane="1" toLane="1" via=":gneJ1_2_1" tl="gneJ1" linkIndex="3" dir="s" state="O"/>
    <connection from="gneE4c" to="gneE5" fromLane="2" toLane="0" via=":gneJ1_4_0" tl="gneJ1" linkIndex="4" dir="l" state="O"/>

    <connection from=":gneJ1_0" to="gneE2" fromLane="0" toLane="0" dir="r" state="M"/>
    <connection from=":gneJ1_1" to="gneE2" fromLane="0" toLane="0" dir="r" state="M"/>
    <connection from=":gneJ1_2" to="gneE1" fromLane="0" toLane="0" dir="s" state="M"/>
    <connection from=":gneJ1_2" to="gneE1" fromLane="1" toLane="1" dir="s" state="M"/>
    <connection from=":gneJ1_4" to="gneE5" fromLane="0" toLane="0" dir="l" state="M"/>
    <connection from=":gneJ6_0" to="gneE4b" fromLane="0" toLane="0" dir="s" state="M"/>
    <connection from=":gneJ6_0" to="gneE4b" fromLane="1" toLane="1" dir="s" state="M"/>
    <connection from=":gneJ6_0" to="gneE4b" fromLane="2" toLane="2" dir="s" state="M"/>
    <connection from=":gneJ7_0" to="gneE4c" fromLane="0" toLane="0" dir="s" state="M"/>
    <connection from=":gneJ7_0" to="gneE4c" fromLane="1" toLane="1" dir="s" state="M"/>
    <connection from=":gneJ7_0" to="gneE4c" fromLane="2" toLane="2" dir="s" state="M"/>

</net>
