<routes>
    <route id="r0" edges="E0 E1"/>
</routes>
