<?xml version="1.0" encoding="UTF-8"?>

<!-- generated on 2023-04-11 12:54:13 by Eclipse SUMO sumo Version v1_16_0+1974-0c9a524
<configuration xmlns:xsi="http://www.w3.org/2001/XMLSchema-instance" xsi:noNamespaceSchemaLocation="http://sumo.dlr.de/xsd/sumoConfiguration.xsd">

    <input>
        <net-file value="input_net.net.xml"/>
        <route-files value="input_routes.rou.xml"/>
    </input>

    <output>
        <lanechange-output value="lanechanges.xml"/>
    </output>

    <processing>
        <lateral-resolution value="0.8"/>
    </processing>

    <report>
        <no-step-log value="true"/>
    </report>

    <traci_server>
        <remote-port value="58784"/>
    </traci_server>

</configuration>
-->

<lanechanges>
    <change id="v0" type="DEFAULT_VEHTYPE" time="5.00" from="E0_2" to="E0_1" dir="-1" speed="28.53" pos="149.73" reason="strategic|traci|urgent absolute" leaderGap="None" leaderSecureGap="None" leaderSpeed="None" followerGap="None" followerSecureGap="None" followerSpeed="None" origLeaderGap="None" origLeaderSecureGap="None" origLeaderSpeed="None" latGap="None"/>
</lanechanges>
