<additional xmlns:xsi="http://www.w3.org/2001/XMLSchema-instance" xsi:noNamespaceSchemaLocation="http://sumo.dlr.de/xsd/additional_file.xsd">
    <!-- vaporizer A -->
    <vaporizer id="gneE0" begin="5.00" end="15.00"/>
	
	<!-- vaporizer B -->
	<vaporizer id="gneE1" begin="5.00" end="15.00"/>	
</additional>
