<?xml version="1.0" encoding="UTF-8"?>

<!-- generated on 05.08.2019 13:53:03 by Eclipse SUMO netedit Version v1_2_0+1408-45cec25169
-->

<routes xmlns:xsi="http://www.w3.org/2001/XMLSchema-instance" xsi:noNamespaceSchemaLocation="http://sumo.dlr.de/xsd/routes_file.xsd">
    <flow id="flow_6" begin="0.00" from="gneE2" to="gneE5" end="100.00" period="20.30"/>
    <flow id="flow_7" begin="0.00" from="gneE2" to="gneE5" end="100.00" period="50.00"/>
</routes>
