<additional xmlns:xsi="http://www.w3.org/2001/XMLSchema-instance" xsi:noNamespaceSchemaLocation="http://sumo.dlr.de/xsd/additional_file.xsd">

   <e1Detector id="det0" lane="SC_0" pos="-0.1" freq="60" file="detector.xml"  detectPersons="walkBackward"/>
   <e1Detector id="det3" lane="SC_3" pos="-0.1" freq="60" file="detector2.xml" detectPersons="walkBackward"/>

</additional>
