<routes>
	<flow id="f1" number="20" period="0.1" departPos="free" route="1"/>
</routes>
