<?xml version="1.0" encoding="UTF-8"?>

<!-- generated on 2021-11-14 11:36:43 by Eclipse SUMO sumo Version v1_10_0+2265-a31469b
This data file and the accompanying materials
are made available under the terms of the Eclipse Public License v2.0
which accompanies this distribution, and is available at
http://www.eclipse.org/legal/epl-v20.html
SPDX-License-Identifier: EPL-2.0
<configuration xmlns:xsi="http://www.w3.org/2001/XMLSchema-instance" xsi:noNamespaceSchemaLocation="http://sumo.dlr.de/xsd/sumoConfiguration.xsd">

    <input>
        <net-file value="net.net.xml"/>
        <route-files value="input_routes.rou.xml"/>
    </input>

    <output>
        <write-license value="true"/>
    </output>

    <processing>
        <default.speeddev value="0"/>
    </processing>

    <report>
        <xml-validation value="never"/>
        <xml-validation.routes value="never"/>
        <no-step-log value="true"/>
    </report>

    <ssm_device>
        <device.ssm.probability value="1"/>
        <device.ssm.measures value="TTC DRAC"/>
        <device.ssm.thresholds value="5 3"/>
        <device.ssm.range value="200"/>
        <device.ssm.file value="ssm.xml"/>
    </ssm_device>

</configuration>
-->

<SSMLog>
    <conflict begin="20.00" end="33.00" ego="EW.2" foe="EW.0">
        <minTTC time="27.00" position="2855.21,22.63" type="2" value="4.74"/>
        <maxDRAC time="27.00" position="2855.21,22.63" type="2" value="0.52"/>
    </conflict>
    <conflict begin="30.00" end="56.00" ego="EW.3" foe="EW.0">
        <minTTC time="51.00" position="2655.30,21.67" type="2" value="4.48"/>
        <maxDRAC time="51.00" position="2655.30,21.67" type="2" value="0.57"/>
    </conflict>
    <conflict begin="50.00" end="61.00" ego="EW.5" foe="EW.4">
        <minTTC time="55.00" position="2886.69,22.78" type="2" value="3.71"/>
        <maxDRAC time="55.00" position="2886.69,22.78" type="2" value="0.37"/>
    </conflict>
    <conflict begin="60.00" end="72.00" ego="EW.6" foe="EW.4">
        <minTTC time="67.00" position="2858.25,22.64" type="2" value="2.58"/>
        <maxDRAC time="67.00" position="2858.25,22.64" type="2" value="1.10"/>
    </conflict>
    <conflict begin="20.00" end="36.00" ego="EW.0" foe="EW.2">
        <minTTC time="27.00" position="2855.21,22.63" type="3" value="4.74"/>
        <maxDRAC time="27.00" position="2855.21,22.63" type="3" value="0.52"/>
    </conflict>
    <conflict begin="30.00" end="56.00" ego="EW.0" foe="EW.3">
        <minTTC time="51.00" position="2655.30,21.67" type="3" value="4.48"/>
        <maxDRAC time="51.00" position="2655.30,21.67" type="3" value="0.57"/>
    </conflict>
    <conflict begin="90.00" end="103.00" ego="EW.9" foe="EW.7">
        <minTTC time="98.00" position="2819.71,22.46" type="2" value="2.91"/>
        <maxDRAC time="98.00" position="2819.71,22.46" type="2" value="1.58"/>
    </conflict>
    <conflict begin="100.00" end="115.00" ego="EW.10" foe="EW.4">
        <minTTC time="110.00" position="2751.47,22.13" type="2" value="3.71"/>
        <maxDRAC time="110.00" position="2751.47,22.13" type="2" value="2.18"/>
    </conflict>
    <conflict begin="100.00" end="115.00" ego="EW.10" foe="EW.7">
        <minTTC time="110.00" position="2771.34,22.23" type="2" value="2.88"/>
        <maxDRAC time="110.00" position="2771.34,22.23" type="2" value="2.42"/>
    </conflict>
    <conflict begin="70.00" end="122.00" ego="EW.7" foe="EW.4">
        <minTTC time="117.00" position="2733.64,22.05" type="2" value="4.01"/>
        <maxDRAC time="113.00" position="2744.00,22.09" type="2" value="0.23"/>
    </conflict>
    <conflict begin="90.00" end="104.00" ego="EW.7" foe="EW.9">
        <minTTC time="98.00" position="2819.71,22.46" type="3" value="2.91"/>
        <maxDRAC time="98.00" position="2819.71,22.46" type="3" value="1.58"/>
    </conflict>
    <conflict begin="100.00" end="115.00" ego="EW.7" foe="EW.10">
        <minTTC time="110.00" position="2771.34,22.23" type="3" value="2.88"/>
        <maxDRAC time="110.00" position="2771.34,22.23" type="3" value="2.42"/>
    </conflict>
    <conflict begin="50.00" end="132.00" ego="EW.4" foe="EW.5">
        <minTTC time="55.00" position="2886.69,22.78" type="3" value="3.71"/>
        <maxDRAC time="55.00" position="2886.69,22.78" type="3" value="0.37"/>
    </conflict>
    <conflict begin="60.00" end="80.00" ego="EW.4" foe="EW.6">
        <minTTC time="67.00" position="2858.25,22.64" type="3" value="2.58"/>
        <maxDRAC time="67.00" position="2858.25,22.64" type="3" value="1.10"/>
    </conflict>
    <conflict begin="70.00" end="122.00" ego="EW.4" foe="EW.7">
        <minTTC time="117.00" position="2733.64,22.05" type="3" value="4.01"/>
        <maxDRAC time="113.00" position="2744.00,22.09" type="3" value="0.23"/>
    </conflict>
    <conflict begin="100.00" end="115.00" ego="EW.4" foe="EW.10">
        <minTTC time="110.00" position="2751.47,22.13" type="3" value="3.71"/>
        <maxDRAC time="110.00" position="2751.47,22.13" type="3" value="2.18"/>
    </conflict>
    <conflict begin="110.00" end="135.00" ego="EW.4" foe="EW.11">
        <minTTC time="130.00" position="2703.57,21.90" type="3" value="1.87"/>
        <maxDRAC time="130.00" position="2703.57,21.90" type="3" value="2.49"/>
    </conflict>
    <conflict begin="110.00" end="135.00" ego="EW.11" foe="EW.4">
        <minTTC time="130.00" position="2703.57,21.90" type="2" value="1.87"/>
        <maxDRAC time="130.00" position="2703.57,21.90" type="2" value="2.49"/>
    </conflict>
    <conflict begin="123.00" end="148.00" ego="EW.9" foe="EW.6">
        <minTTC time="139.00" position="2271.45,19.83" type="2" value="4.80"/>
        <maxDRAC time="139.00" position="2271.45,19.83" type="2" value="0.56"/>
    </conflict>
    <conflict begin="132.00" end="152.00" ego="EW.10" foe="EW.6">
        <minTTC time="147.00" position="2204.22,19.50" type="2" value="4.25"/>
        <maxDRAC time="147.00" position="2204.22,19.50" type="2" value="0.59"/>
    </conflict>
    <conflict begin="123.00" end="148.00" ego="EW.6" foe="EW.9">
        <minTTC time="139.00" position="2271.45,19.83" type="3" value="4.80"/>
        <maxDRAC time="139.00" position="2271.45,19.83" type="3" value="0.56"/>
    </conflict>
    <conflict begin="132.00" end="152.00" ego="EW.6" foe="EW.10">
        <minTTC time="147.00" position="2204.22,19.50" type="3" value="4.25"/>
        <maxDRAC time="147.00" position="2204.22,19.50" type="3" value="0.59"/>
    </conflict>
    <conflict begin="140.00" end="158.00" ego="EW.14" foe="EW.13">
        <minTTC time="152.00" position="2813.21,22.43" type="2" value="3.77"/>
        <maxDRAC time="152.00" position="2813.21,22.43" type="2" value="0.57"/>
    </conflict>
    <conflict begin="157.00" end="162.00" ego="WE.0" foe="EW.12">
        <minTTC time="160.00" position="2577.25,17.99" type="20" value="3.81"/>
        <maxDRAC time="NA" position="NA" type="NA" value="NA"/>
    </conflict>
    <conflict begin="163.00" end="168.00" ego="WE.0" foe="EW.15">
        <minTTC time="166.00" position="2669.44,18.44" type="20" value="2.57"/>
        <maxDRAC time="NA" position="NA" type="NA" value="NA"/>
    </conflict>
    <conflict begin="166.00" end="170.00" ego="WE.1" foe="EW.9">
        <minTTC time="168.00" position="1860.63,14.55" type="20" value="4.53"/>
        <maxDRAC time="NA" position="NA" type="NA" value="NA"/>
    </conflict>
    <conflict begin="166.00" end="170.00" ego="EW.9" foe="WE.1">
        <minTTC time="168.00" position="1860.63,14.55" type="20" value="4.53"/>
        <maxDRAC time="NA" position="NA" type="NA" value="NA"/>
    </conflict>
    <conflict begin="169.00" end="173.00" ego="WE.1" foe="EW.10">
        <minTTC time="171.00" position="1875.20,14.62" type="20" value="3.18"/>
        <maxDRAC time="NA" position="NA" type="NA" value="NA"/>
    </conflict>
    <conflict begin="120.00" end="174.00" ego="EW.4" foe="EW.12">
        <minTTC time="156.00" position="2640.11,21.60" type="3" value="2.41"/>
        <maxDRAC time="156.00" position="2640.11,21.60" type="3" value="1.04"/>
    </conflict>
    <conflict begin="131.00" end="174.00" ego="EW.7" foe="EW.12">
        <minTTC time="169.00" position="2538.77,21.11" type="3" value="4.05"/>
        <maxDRAC time="169.00" position="2538.77,21.11" type="3" value="0.43"/>
    </conflict>
    <conflict begin="120.00" end="174.00" ego="EW.12" foe="EW.4">
        <minTTC time="156.00" position="2640.11,21.60" type="2" value="2.41"/>
        <maxDRAC time="156.00" position="2640.11,21.60" type="2" value="1.04"/>
    </conflict>
    <conflict begin="131.00" end="174.00" ego="EW.12" foe="EW.7">
        <minTTC time="169.00" position="2538.77,21.11" type="2" value="4.05"/>
        <maxDRAC time="169.00" position="2538.77,21.11" type="2" value="0.43"/>
    </conflict>
    <conflict begin="157.00" end="162.00" ego="EW.12" foe="WE.0">
        <minTTC time="160.00" position="2577.25,17.99" type="20" value="3.81"/>
        <maxDRAC time="NA" position="NA" type="NA" value="NA"/>
    </conflict>
    <conflict begin="150.00" end="174.00" ego="EW.15" foe="EW.13">
        <minTTC time="161.00" position="2766.85,22.20" type="2" value="3.03"/>
        <maxDRAC time="160.00" position="2772.41,22.23" type="2" value="1.89"/>
    </conflict>
    <conflict begin="159.00" end="174.00" ego="EW.15" foe="EW.4">
        <minTTC time="169.00" position="2607.53,21.44" type="2" value="2.38"/>
        <maxDRAC time="169.00" position="2607.53,21.44" type="2" value="3.99"/>
    </conflict>
    <conflict begin="143.00" end="175.00" ego="EW.5" foe="EW.11">
        <minTTC time="167.00" position="2287.51,19.90" type="3" value="3.46"/>
        <maxDRAC time="167.00" position="2287.51,19.90" type="3" value="0.86"/>
    </conflict>
    <conflict begin="143.00" end="175.00" ego="EW.11" foe="EW.5">
        <minTTC time="167.00" position="2287.51,19.90" type="2" value="3.46"/>
        <maxDRAC time="167.00" position="2287.51,19.90" type="2" value="0.86"/>
    </conflict>
    <conflict begin="159.00" end="179.00" ego="EW.10" foe="stopping">
        <minTTC time="167.00" position="1922.89,18.15" type="2" value="1.28"/>
        <maxDRAC time="165.00" position="1922.89,18.15" type="2" value="4.86"/>
    </conflict>
    <conflict begin="157.00" end="183.00" ego="stopping" foe="EW.6">
        <minTTC time="178.00" position="1922.89,18.15" type="3" value="2.24"/>
        <maxDRAC time="178.00" position="1922.89,18.15" type="3" value="1.79"/>
    </conflict>
    <conflict begin="159.00" end="179.00" ego="stopping" foe="EW.10">
        <minTTC time="167.00" position="1922.89,18.15" type="3" value="1.28"/>
        <maxDRAC time="165.00" position="1922.89,18.15" type="3" value="4.86"/>
    </conflict>
    <conflict begin="157.00" end="183.00" ego="EW.6" foe="stopping">
        <minTTC time="178.00" position="1922.89,18.15" type="2" value="2.24"/>
        <maxDRAC time="178.00" position="1922.89,18.15" type="2" value="1.79"/>
    </conflict>
    <conflict begin="160.00" end="185.00" ego="EW.16" foe="EW.13">
        <minTTC time="180.00" position="2669.20,21.74" type="2" value="3.05"/>
        <maxDRAC time="180.00" position="2669.20,21.74" type="2" value="1.37"/>
    </conflict>
    <conflict begin="169.00" end="173.00" ego="EW.10" foe="WE.1">
        <minTTC time="171.00" position="1875.20,14.62" type="20" value="3.18"/>
        <maxDRAC time="NA" position="NA" type="NA" value="NA"/>
    </conflict>
    <conflict begin="182.00" end="201.00" ego="EW.10" foe="EW.0">
        <minTTC time="196.00" position="1429.29,15.78" type="2" value="3.84"/>
        <maxDRAC time="196.00" position="1429.29,15.78" type="2" value="1.28"/>
    </conflict>
    <conflict begin="161.00" end="201.00" ego="EW.12" foe="EW.15">
        <minTTC time="177.00" position="2487.39,17.56" type="3" value="4.04"/>
        <maxDRAC time="174.00" position="2510.97,17.68" type="3" value="1.31"/>
    </conflict>
    <conflict begin="161.00" end="201.00" ego="EW.15" foe="EW.12">
        <minTTC time="177.00" position="2487.39,17.56" type="2" value="4.04"/>
        <maxDRAC time="174.00" position="2510.97,17.68" type="2" value="1.31"/>
    </conflict>
    <conflict begin="163.00" end="168.00" ego="EW.15" foe="WE.0">
        <minTTC time="166.00" position="2669.44,18.44" type="20" value="2.57"/>
        <maxDRAC time="NA" position="NA" type="NA" value="NA"/>
    </conflict>
    <conflict begin="162.00" end="202.00" ego="EW.14" foe="EW.16">
        <minTTC time="197.00" position="2458.76,20.72" type="3" value="4.49"/>
        <maxDRAC time="197.00" position="2458.76,20.72" type="3" value="0.52"/>
    </conflict>
    <conflict begin="162.00" end="202.00" ego="EW.16" foe="EW.14">
        <minTTC time="197.00" position="2458.76,20.72" type="2" value="4.49"/>
        <maxDRAC time="197.00" position="2458.76,20.72" type="2" value="0.52"/>
    </conflict>
    <conflict begin="188.00" end="202.00" ego="EW.16" foe="EW.4">
        <minTTC time="189.00" position="2555.82,21.19" type="2" value="2.73"/>
        <maxDRAC time="189.00" position="2555.82,21.19" type="2" value="1.74"/>
    </conflict>
    <conflict begin="188.00" end="202.00" ego="EW.16" foe="EW.7">
        <minTTC time="197.00" position="2432.71,20.60" type="2" value="4.68"/>
        <maxDRAC time="197.00" position="2432.71,20.60" type="2" value="1.07"/>
    </conflict>
    <conflict begin="170.00" end="203.00" ego="EW.17" foe="EW.13">
        <minTTC time="198.00" position="2575.83,21.29" type="2" value="3.52"/>
        <maxDRAC time="198.00" position="2575.83,21.29" type="2" value="0.96"/>
    </conflict>
    <conflict begin="200.00" end="205.00" ego="WE.1" foe="EW.16">
        <minTTC time="203.00" position="2351.03,16.91" type="20" value="3.95"/>
        <maxDRAC time="NA" position="NA" type="NA" value="NA"/>
    </conflict>
    <conflict begin="187.00" end="208.00" ego="EW.5" foe="EW.15">
        <minTTC time="196.00" position="2127.21,19.13" type="3" value="3.56"/>
        <maxDRAC time="196.00" position="2127.21,19.13" type="3" value="2.17"/>
    </conflict>
    <conflict begin="187.00" end="208.00" ego="EW.15" foe="EW.5">
        <minTTC time="196.00" position="2127.21,19.13" type="2" value="3.56"/>
        <maxDRAC time="196.00" position="2127.21,19.13" type="2" value="2.17"/>
    </conflict>
    <conflict begin="162.00" end="215.00" ego="EW.14" foe="EW.4">
        <minTTC time="180.00" position="2578.18,21.30" type="2" value="3.45"/>
        <maxDRAC time="180.00" position="2578.18,21.30" type="2" value="0.77"/>
    </conflict>
    <conflict begin="162.00" end="215.00" ego="EW.14" foe="EW.7">
        <minTTC time="199.00" position="2424.22,20.56" type="2" value="3.25"/>
        <maxDRAC time="197.00" position="2432.71,20.60" type="2" value="0.69"/>
    </conflict>
    <conflict begin="180.00" end="221.00" ego="EW.0" foe="EW.9">
        <minTTC time="216.00" position="1259.62,14.96" type="3" value="4.49"/>
        <maxDRAC time="215.00" position="1268.36,15.01" type="3" value="0.57"/>
    </conflict>
    <conflict begin="182.00" end="201.00" ego="EW.0" foe="EW.10">
        <minTTC time="196.00" position="1429.29,15.78" type="3" value="3.84"/>
        <maxDRAC time="196.00" position="1429.29,15.78" type="3" value="1.28"/>
    </conflict>
    <conflict begin="180.00" end="221.00" ego="EW.9" foe="EW.0">
        <minTTC time="216.00" position="1259.62,14.96" type="2" value="4.49"/>
        <maxDRAC time="215.00" position="1268.36,15.01" type="2" value="0.57"/>
    </conflict>
    <conflict begin="137.00" end="222.00" ego="EW.13" foe="EW.4">
        <minTTC time="210.00" position="2502.80,20.94" type="2" value="2.86"/>
        <maxDRAC time="209.00" position="2505.01,20.95" type="2" value="0.49"/>
    </conflict>
    <conflict begin="140.00" end="158.00" ego="EW.13" foe="EW.14">
        <minTTC time="152.00" position="2813.21,22.43" type="3" value="3.77"/>
        <maxDRAC time="152.00" position="2813.21,22.43" type="3" value="0.57"/>
    </conflict>
    <conflict begin="150.00" end="174.00" ego="EW.13" foe="EW.15">
        <minTTC time="161.00" position="2766.85,22.20" type="3" value="3.03"/>
        <maxDRAC time="160.00" position="2772.41,22.23" type="3" value="1.89"/>
    </conflict>
    <conflict begin="160.00" end="185.00" ego="EW.13" foe="EW.16">
        <minTTC time="180.00" position="2669.20,21.74" type="3" value="3.05"/>
        <maxDRAC time="180.00" position="2669.20,21.74" type="3" value="1.37"/>
    </conflict>
    <conflict begin="170.00" end="203.00" ego="EW.13" foe="EW.17">
        <minTTC time="198.00" position="2575.83,21.29" type="3" value="3.52"/>
        <maxDRAC time="198.00" position="2575.83,21.29" type="3" value="0.96"/>
    </conflict>
    <conflict begin="206.00" end="223.00" ego="EW.14" foe="EW.17">
        <minTTC time="217.00" position="2330.60,16.81" type="3" value="4.92"/>
        <maxDRAC time="209.00" position="2399.27,20.44" type="3" value="0.67"/>
    </conflict>
    <conflict begin="202.00" end="230.00" ego="EW.18" foe="EW.4">
        <minTTC time="225.00" position="2468.15,20.77" type="2" value="1.70"/>
        <maxDRAC time="224.00" position="2471.00,20.78" type="2" value="1.85"/>
    </conflict>
    <conflict begin="196.00" end="233.00" ego="stopping" foe="EW.5">
        <minTTC time="228.00" position="1922.89,18.15" type="3" value="4.15"/>
        <maxDRAC time="228.00" position="1922.89,18.15" type="3" value="0.68"/>
    </conflict>
    <conflict begin="196.00" end="233.00" ego="EW.5" foe="stopping">
        <minTTC time="228.00" position="1922.89,18.15" type="2" value="4.15"/>
        <maxDRAC time="228.00" position="1922.89,18.15" type="2" value="0.68"/>
    </conflict>
    <conflict begin="204.00" end="225.00" ego="EW.12" foe="EW.16">
        <minTTC time="220.00" position="2160.27,19.29" type="3" value="4.84"/>
        <maxDRAC time="219.00" position="2167.84,19.33" type="3" value="0.55"/>
    </conflict>
    <conflict begin="200.00" end="205.00" ego="EW.16" foe="WE.1">
        <minTTC time="203.00" position="2351.03,16.91" type="20" value="3.95"/>
        <maxDRAC time="NA" position="NA" type="NA" value="NA"/>
    </conflict>
    <conflict begin="204.00" end="225.00" ego="EW.16" foe="EW.12">
        <minTTC time="220.00" position="2160.27,19.29" type="2" value="4.84"/>
        <maxDRAC time="219.00" position="2167.84,19.33" type="2" value="0.55"/>
    </conflict>
    <conflict begin="206.00" end="223.00" ego="EW.17" foe="EW.14">
        <minTTC time="217.00" position="2330.60,16.81" type="2" value="4.92"/>
        <maxDRAC time="209.00" position="2399.27,20.44" type="2" value="0.67"/>
    </conflict>
    <conflict begin="206.00" end="220.00" ego="EW.17" foe="EW.7">
        <minTTC time="215.00" position="2363.79,20.27" type="2" value="2.70"/>
        <maxDRAC time="215.00" position="2363.79,20.27" type="2" value="1.62"/>
    </conflict>
    <conflict begin="220.00" end="249.00" ego="EW.22" foe="EW.20">
        <minTTC time="241.00" position="2732.27,22.04" type="2" value="4.04"/>
        <maxDRAC time="239.00" position="2742.25,22.09" type="2" value="0.49"/>
    </conflict>
    <conflict begin="230.00" end="249.00" ego="EW.22" foe="EW.23">
        <minTTC time="244.00" position="2731.35,22.03" type="3" value="2.79"/>
        <maxDRAC time="242.00" position="2743.80,22.09" type="3" value="1.71"/>
    </conflict>
    <conflict begin="230.00" end="249.00" ego="EW.23" foe="EW.22">
        <minTTC time="244.00" position="2731.35,22.03" type="2" value="2.79"/>
        <maxDRAC time="242.00" position="2743.80,22.09" type="2" value="1.71"/>
    </conflict>
    <conflict begin="233.00" end="254.00" ego="EW.18" foe="EW.7">
        <minTTC time="247.00" position="2241.75,19.68" type="2" value="2.44"/>
        <maxDRAC time="246.00" position="2245.65,19.70" type="2" value="1.43"/>
    </conflict>
    <conflict begin="245.00" end="257.00" ego="EW.17" foe="EW.12">
        <minTTC time="252.00" position="1902.55,14.75" type="2" value="4.37"/>
        <maxDRAC time="251.00" position="1910.39,14.79" type="2" value="0.59"/>
    </conflict>
    <conflict begin="245.00" end="257.00" ego="EW.12" foe="EW.17">
        <minTTC time="252.00" position="1902.55,14.75" type="3" value="4.37"/>
        <maxDRAC time="251.00" position="1910.39,14.79" type="3" value="0.59"/>
    </conflict>
    <conflict begin="137.00" end="222.00" ego="EW.4" foe="EW.13">
        <minTTC time="210.00" position="2502.80,20.94" type="3" value="2.86"/>
        <maxDRAC time="209.00" position="2505.01,20.95" type="3" value="0.49"/>
    </conflict>
    <conflict begin="159.00" end="174.00" ego="EW.4" foe="EW.15">
        <minTTC time="169.00" position="2607.53,21.44" type="3" value="2.38"/>
        <maxDRAC time="169.00" position="2607.53,21.44" type="3" value="3.99"/>
    </conflict>
    <conflict begin="162.00" end="215.00" ego="EW.4" foe="EW.14">
        <minTTC time="180.00" position="2578.18,21.30" type="3" value="3.45"/>
        <maxDRAC time="180.00" position="2578.18,21.30" type="3" value="0.77"/>
    </conflict>
    <conflict begin="188.00" end="202.00" ego="EW.4" foe="EW.16">
        <minTTC time="189.00" position="2555.82,21.19" type="3" value="2.73"/>
        <maxDRAC time="189.00" position="2555.82,21.19" type="3" value="1.74"/>
    </conflict>
    <conflict begin="202.00" end="230.00" ego="EW.4" foe="EW.18">
        <minTTC time="225.00" position="2468.15,20.77" type="3" value="1.70"/>
        <maxDRAC time="224.00" position="2471.00,20.78" type="3" value="1.85"/>
    </conflict>
    <conflict begin="162.00" end="215.00" ego="EW.7" foe="EW.14">
        <minTTC time="199.00" position="2424.22,20.56" type="3" value="3.25"/>
        <maxDRAC time="197.00" position="2432.71,20.60" type="3" value="0.69"/>
    </conflict>
    <conflict begin="188.00" end="202.00" ego="EW.7" foe="EW.16">
        <minTTC time="197.00" position="2432.71,20.60" type="3" value="4.68"/>
        <maxDRAC time="197.00" position="2432.71,20.60" type="3" value="1.07"/>
    </conflict>
    <conflict begin="206.00" end="220.00" ego="EW.7" foe="EW.17">
        <minTTC time="215.00" position="2363.79,20.27" type="3" value="2.70"/>
        <maxDRAC time="215.00" position="2363.79,20.27" type="3" value="1.62"/>
    </conflict>
    <conflict begin="204.00" end="278.00" ego="EW.6" foe="EW.11">
        <minTTC time="259.00" position="1261.40,14.97" type="3" value="4.86"/>
        <maxDRAC time="259.00" position="1261.40,14.97" type="3" value="0.38"/>
    </conflict>
    <conflict begin="204.00" end="278.00" ego="EW.11" foe="EW.6">
        <minTTC time="259.00" position="1261.40,14.97" type="2" value="4.86"/>
        <maxDRAC time="259.00" position="1261.40,14.97" type="2" value="0.38"/>
    </conflict>
    <conflict begin="230.00" end="279.00" ego="EW.23" foe="EW.20">
        <minTTC time="247.00" position="2706.08,21.91" type="2" value="1.38"/>
        <maxDRAC time="247.00" position="2706.08,21.91" type="2" value="3.35"/>
    </conflict>
    <conflict begin="250.00" end="280.00" ego="WE.4" foe="WE.5">
        <minTTC time="261.00" position="269.63,6.91" type="3" value="1.62"/>
        <maxDRAC time="260.00" position="268.09,6.90" type="3" value="3.29"/>
    </conflict>
    <conflict begin="250.00" end="280.00" ego="WE.5" foe="WE.4">
        <minTTC time="261.00" position="269.63,6.91" type="2" value="1.62"/>
        <maxDRAC time="260.00" position="268.09,6.90" type="2" value="3.29"/>
    </conflict>
    <conflict begin="249.00" end="286.00" ego="EW.0" foe="EW.15">
        <minTTC time="260.00" position="888.25,13.18" type="3" value="4.39"/>
        <maxDRAC time="260.00" position="888.25,13.18" type="3" value="1.41"/>
    </conflict>
    <conflict begin="249.00" end="286.00" ego="EW.15" foe="EW.0">
        <minTTC time="260.00" position="888.25,13.18" type="2" value="4.39"/>
        <maxDRAC time="260.00" position="888.25,13.18" type="2" value="1.41"/>
    </conflict>
    <conflict begin="270.00" end="292.00" ego="EW.27" foe="EW.26">
        <minTTC time="287.00" position="2622.84,21.51" type="2" value="4.94"/>
        <maxDRAC time="285.00" position="2646.76,21.63" type="2" value="0.87"/>
    </conflict>
    <conflict begin="240.00" end="301.00" ego="EW.24" foe="EW.20">
        <minTTC time="293.00" position="2493.71,20.89" type="2" value="3.80"/>
        <maxDRAC time="293.00" position="2493.71,20.89" type="2" value="0.44"/>
    </conflict>
    <conflict begin="260.00" end="301.00" ego="EW.24" foe="EW.26">
        <minTTC time="296.00" position="2492.20,20.89" type="3" value="2.54"/>
        <maxDRAC time="296.00" position="2492.20,20.89" type="3" value="1.15"/>
    </conflict>
    <conflict begin="260.00" end="301.00" ego="EW.26" foe="EW.24">
        <minTTC time="296.00" position="2492.20,20.89" type="2" value="2.54"/>
        <maxDRAC time="296.00" position="2492.20,20.89" type="2" value="1.15"/>
    </conflict>
    <conflict begin="270.00" end="292.00" ego="EW.26" foe="EW.27">
        <minTTC time="287.00" position="2622.84,21.51" type="3" value="4.94"/>
        <maxDRAC time="285.00" position="2646.76,21.63" type="3" value="0.87"/>
    </conflict>
    <conflict begin="233.00" end="254.00" ego="EW.7" foe="EW.18">
        <minTTC time="247.00" position="2241.75,19.68" type="3" value="2.44"/>
        <maxDRAC time="246.00" position="2245.65,19.70" type="3" value="1.43"/>
    </conflict>
    <conflict begin="290.00" end="312.00" ego="EW.27" foe="EW.25">
        <minTTC time="306.00" position="2264.24,16.49" type="2" value="1.96"/>
        <maxDRAC time="306.00" position="2264.24,16.49" type="2" value="2.58"/>
    </conflict>
    <conflict begin="300.00" end="307.00" ego="EW.27" foe="EW.19">
        <minTTC time="302.00" position="2292.96,19.93" type="2" value="4.34"/>
        <maxDRAC time="301.00" position="2298.94,19.96" type="2" value="1.72"/>
    </conflict>
    <conflict begin="300.00" end="307.00" ego="EW.27" foe="EW.21">
        <minTTC time="302.00" position="2307.38,20.00" type="2" value="3.45"/>
        <maxDRAC time="301.00" position="2313.88,20.03" type="2" value="2.29"/>
    </conflict>
    <conflict begin="300.00" end="307.00" ego="EW.27" foe="EW.4">
        <minTTC time="302.00" position="2280.24,19.87" type="2" value="4.31"/>
        <maxDRAC time="302.00" position="2280.24,19.87" type="2" value="2.02"/>
    </conflict>
    <conflict begin="243.00" end="314.00" ego="EW.4" foe="EW.19">
        <minTTC time="302.00" position="2280.24,19.87" type="3" value="2.52"/>
        <maxDRAC time="302.00" position="2280.24,19.87" type="3" value="0.61"/>
    </conflict>
    <conflict begin="243.00" end="314.00" ego="EW.19" foe="EW.4">
        <minTTC time="302.00" position="2280.24,19.87" type="2" value="2.52"/>
        <maxDRAC time="302.00" position="2280.24,19.87" type="2" value="0.61"/>
    </conflict>
    <conflict begin="220.00" end="249.00" ego="EW.20" foe="EW.22">
        <minTTC time="241.00" position="2732.27,22.04" type="3" value="4.04"/>
        <maxDRAC time="239.00" position="2742.25,22.09" type="3" value="0.49"/>
    </conflict>
    <conflict begin="230.00" end="279.00" ego="EW.20" foe="EW.23">
        <minTTC time="247.00" position="2706.08,21.91" type="3" value="1.38"/>
        <maxDRAC time="247.00" position="2706.08,21.91" type="3" value="3.35"/>
    </conflict>
    <conflict begin="240.00" end="301.00" ego="EW.20" foe="EW.24">
        <minTTC time="293.00" position="2493.71,20.89" type="3" value="3.80"/>
        <maxDRAC time="293.00" position="2493.71,20.89" type="3" value="0.44"/>
    </conflict>
    <conflict begin="263.00" end="318.00" ego="EW.4" foe="EW.21">
        <minTTC time="312.00" position="2254.75,19.74" type="3" value="4.89"/>
        <maxDRAC time="312.00" position="2254.75,19.74" type="3" value="0.43"/>
    </conflict>
    <conflict begin="258.00" end="282.00" ego="EW.20" foe="EW.25">
        <minTTC time="277.00" position="2567.72,21.25" type="3" value="3.09"/>
        <maxDRAC time="267.00" position="2617.20,21.49" type="3" value="2.12"/>
    </conflict>
    <conflict begin="266.00" end="324.00" ego="EW.5" foe="EW.14">
        <minTTC time="318.00" position="1454.11,15.90" type="3" value="3.99"/>
        <maxDRAC time="316.00" position="1465.94,15.96" type="3" value="0.39"/>
    </conflict>
    <conflict begin="266.00" end="324.00" ego="EW.14" foe="EW.5">
        <minTTC time="318.00" position="1454.11,15.90" type="2" value="3.99"/>
        <maxDRAC time="316.00" position="1465.94,15.96" type="2" value="0.39"/>
    </conflict>
    <conflict begin="293.00" end="333.00" ego="EW.5" foe="EW.18">
        <minTTC time="328.00" position="1400.52,15.64" type="3" value="3.58"/>
        <maxDRAC time="328.00" position="1400.52,15.64" type="3" value="0.82"/>
    </conflict>
    <conflict begin="293.00" end="333.00" ego="EW.18" foe="EW.5">
        <minTTC time="328.00" position="1400.52,15.64" type="2" value="3.58"/>
        <maxDRAC time="328.00" position="1400.52,15.64" type="2" value="0.82"/>
    </conflict>
    <conflict begin="256.00" end="335.00" ego="EW.25" foe="EW.23">
        <minTTC time="268.00" position="2625.66,21.53" type="2" value="2.56"/>
        <maxDRAC time="267.00" position="2629.95,21.55" type="2" value="2.40"/>
    </conflict>
    <conflict begin="258.00" end="282.00" ego="EW.25" foe="EW.20">
        <minTTC time="277.00" position="2567.72,21.25" type="2" value="3.09"/>
        <maxDRAC time="267.00" position="2617.20,21.49" type="2" value="2.12"/>
    </conflict>
    <conflict begin="290.00" end="312.00" ego="EW.25" foe="EW.27">
        <minTTC time="306.00" position="2264.24,16.49" type="3" value="1.96"/>
        <maxDRAC time="306.00" position="2264.24,16.49" type="3" value="2.58"/>
    </conflict>
    <conflict begin="308.00" end="339.00" ego="EW.24" foe="EW.26">
        <minTTC time="324.00" position="2354.88,20.23" type="2" value="3.57"/>
        <maxDRAC time="322.00" position="2363.76,20.27" type="2" value="0.30"/>
    </conflict>