<?xml version="1.0" encoding="UTF-8"?>

<!-- generated on Thu Jan 14 15:51:44 2021 by Eclipse SUMO sumo Version v1_8_0+0537-ce88967
This data file and the accompanying materials
are made available under the terms of the Eclipse Public License v2.0
which accompanies this distribution, and is available at
http://www.eclipse.org/legal/epl-v20.html
SPDX-License-Identifier: EPL-2.0
<configuration xmlns:xsi="http://www.w3.org/2001/XMLSchema-instance" xsi:noNamespaceSchemaLocation="http://sumo.dlr.de/xsd/sumoConfiguration.xsd">

    <input>
        <net-file value="net.net.xml"/>
        <route-files value="input_routes.rou.xml"/>
    </input>

    <output>
        <write-license value="true"/>
    </output>

    <processing>
        <default.speeddev value="0"/>
    </processing>

    <report>
        <xml-validation value="never"/>
        <xml-validation.routes value="never"/>
        <no-step-log value="true"/>
    </report>

    <ssm_device>
        <device.ssm.probability value="1"/>
        <device.ssm.measures value="TTC DRAC"/>
        <device.ssm.thresholds value="5 3"/>
        <device.ssm.range value="200"/>
        <device.ssm.file value="ssm.xml"/>
    </ssm_device>

</configuration>
-->

<SSMLog>
    <conflict begin="20.00" end="33.00" ego="EW.2" foe="EW.0">
        <minTTC time="27.00" position="2855.21,22.63" type="2" value="4.74"/>
        <maxDRAC time="27.00" position="2855.21,22.63" type="2" value="0.52"/>
    </conflict>
    <conflict begin="30.00" end="56.00" ego="EW.3" foe="EW.0">
        <minTTC time="51.00" position="2654.74,21.67" type="2" value="4.63"/>
        <maxDRAC time="51.00" position="2654.74,21.67" type="2" value="0.56"/>
    </conflict>
    <conflict begin="50.00" end="60.00" ego="EW.5" foe="EW.4">
        <minTTC time="55.00" position="2889.04,22.79" type="2" value="2.04"/>
        <maxDRAC time="55.00" position="2889.04,22.79" type="2" value="0.86"/>
    </conflict>
    <conflict begin="60.00" end="72.00" ego="EW.6" foe="EW.4">
        <minTTC time="67.00" position="2859.74,22.65" type="2" value="2.47"/>
        <maxDRAC time="67.00" position="2859.74,22.65" type="2" value="1.25"/>
    </conflict>
    <conflict begin="20.00" end="36.00" ego="EW.0" foe="EW.2">
        <minTTC time="27.00" position="2855.21,22.63" type="3" value="4.74"/>
        <maxDRAC time="27.00" position="2855.21,22.63" type="3" value="0.52"/>
    </conflict>
    <conflict begin="30.00" end="56.00" ego="EW.0" foe="EW.3">
        <minTTC time="51.00" position="2654.74,21.67" type="3" value="4.63"/>
        <maxDRAC time="51.00" position="2654.74,21.67" type="3" value="0.56"/>
    </conflict>
    <conflict begin="90.00" end="104.00" ego="EW.9" foe="EW.4">
        <minTTC time="99.00" position="2780.20,22.27" type="2" value="4.85"/>
        <maxDRAC time="99.00" position="2780.20,22.27" type="2" value="1.23"/>
    </conflict>
    <conflict begin="90.00" end="104.00" ego="EW.9" foe="EW.7">
        <minTTC time="99.00" position="2813.93,22.43" type="2" value="2.40"/>
        <maxDRAC time="99.00" position="2813.93,22.43" type="2" value="2.08"/>
    </conflict>
    <conflict begin="100.00" end="114.00" ego="EW.10" foe="EW.4">
        <minTTC time="109.00" position="2754.17,22.14" type="2" value="4.57"/>
        <maxDRAC time="109.00" position="2754.17,22.14" type="2" value="1.71"/>
    </conflict>
    <conflict begin="100.00" end="114.00" ego="EW.10" foe="EW.7">
        <minTTC time="109.00" position="2775.77,22.25" type="2" value="3.40"/>
        <maxDRAC time="109.00" position="2775.77,22.25" type="2" value="2.15"/>
    </conflict>
    <conflict begin="70.00" end="120.00" ego="EW.7" foe="EW.4">
        <minTTC time="115.00" position="2739.45,22.07" type="2" value="3.00"/>
        <maxDRAC time="115.00" position="2739.45,22.07" type="2" value="0.39"/>
    </conflict>
    <conflict begin="90.00" end="104.00" ego="EW.7" foe="EW.9">
        <minTTC time="99.00" position="2813.93,22.43" type="3" value="2.40"/>
        <maxDRAC time="99.00" position="2813.93,22.43" type="3" value="2.08"/>
    </conflict>
    <conflict begin="100.00" end="114.00" ego="EW.7" foe="EW.10">
        <minTTC time="109.00" position="2775.77,22.25" type="3" value="3.40"/>
        <maxDRAC time="109.00" position="2775.77,22.25" type="3" value="2.15"/>
    </conflict>
    <conflict begin="50.00" end="131.00" ego="EW.4" foe="EW.5">
        <minTTC time="55.00" position="2889.04,22.79" type="3" value="2.04"/>
        <maxDRAC time="55.00" position="2889.04,22.79" type="3" value="0.86"/>
    </conflict>
    <conflict begin="60.00" end="80.00" ego="EW.4" foe="EW.6">
        <minTTC time="67.00" position="2859.74,22.65" type="3" value="2.47"/>
        <maxDRAC time="67.00" position="2859.74,22.65" type="3" value="1.25"/>
    </conflict>
    <conflict begin="70.00" end="120.00" ego="EW.4" foe="EW.7">
        <minTTC time="115.00" position="2739.45,22.07" type="3" value="3.00"/>
        <maxDRAC time="115.00" position="2739.45,22.07" type="3" value="0.39"/>
    </conflict>
    <conflict begin="90.00" end="104.00" ego="EW.4" foe="EW.9">
        <minTTC time="99.00" position="2780.20,22.27" type="3" value="4.85"/>
        <maxDRAC time="99.00" position="2780.20,22.27" type="3" value="1.23"/>
    </conflict>
    <conflict begin="100.00" end="114.00" ego="EW.4" foe="EW.10">
        <minTTC time="109.00" position="2754.17,22.14" type="3" value="4.57"/>
        <maxDRAC time="109.00" position="2754.17,22.14" type="3" value="1.71"/>
    </conflict>
    <conflict begin="110.00" end="135.00" ego="EW.4" foe="EW.11">
        <minTTC time="130.00" position="2701.59,21.89" type="3" value="2.27"/>
        <maxDRAC time="130.00" position="2701.59,21.89" type="3" value="1.82"/>
    </conflict>
    <conflict begin="130.00" end="135.00" ego="EW.7" foe="EW.11">
        <minTTC time="130.00" position="2690.88,21.84" type="3" value="3.95"/>
        <maxDRAC time="130.00" position="2690.88,21.84" type="3" value="0.94"/>
    </conflict>
    <conflict begin="110.00" end="135.00" ego="EW.11" foe="EW.4">
        <minTTC time="130.00" position="2701.59,21.89" type="2" value="2.27"/>
        <maxDRAC time="130.00" position="2701.59,21.89" type="2" value="1.82"/>
    </conflict>
    <conflict begin="130.00" end="135.00" ego="EW.11" foe="EW.7">
        <minTTC time="130.00" position="2690.88,21.84" type="2" value="3.95"/>
        <maxDRAC time="130.00" position="2690.88,21.84" type="2" value="0.94"/>
    </conflict>
    <conflict begin="134.00" end="148.00" ego="EW.6" foe="EW.9">
        <minTTC time="141.00" position="2259.76,19.77" type="3" value="4.04"/>
        <maxDRAC time="141.00" position="2259.76,19.77" type="3" value="0.65"/>
    </conflict>
    <conflict begin="140.00" end="159.00" ego="EW.14" foe="EW.13">
        <minTTC time="153.00" position="2807.89,22.40" type="2" value="4.47"/>
        <maxDRAC time="153.00" position="2807.89,22.40" type="2" value="0.39"/>
    </conflict>
    <conflict begin="158.00" end="163.00" ego="WE.0" foe="EW.12">
        <minTTC time="161.00" position="2582.45,18.02" type="20" value="2.92"/>
        <maxDRAC time="NA" position="NA" type="NA" value="NA"/>
    </conflict>
    <conflict begin="150.00" end="166.00" ego="EW.15" foe="EW.13">
        <minTTC time="160.00" position="2770.43,22.22" type="2" value="2.76"/>
        <maxDRAC time="160.00" position="2770.43,22.22" type="2" value="2.50"/>
    </conflict>
    <conflict begin="163.00" end="170.00" ego="WE.0" foe="EW.15">
        <minTTC time="168.00" position="2693.44,18.55" type="20" value="4.18"/>
        <maxDRAC time="NA" position="NA" type="NA" value="NA"/>
    </conflict>
    <conflict begin="163.00" end="170.00" ego="EW.15" foe="WE.0">
        <minTTC time="168.00" position="2693.44,18.55" type="20" value="4.18"/>
        <maxDRAC time="NA" position="NA" type="NA" value="NA"/>
    </conflict>
    <conflict begin="166.00" end="171.00" ego="WE.1" foe="EW.9">
        <minTTC time="169.00" position="1865.37,14.57" type="20" value="3.55"/>
        <maxDRAC time="NA" position="NA" type="NA" value="NA"/>
    </conflict>
    <conflict begin="167.00" end="173.00" ego="WE.1" foe="EW.10">
        <minTTC time="171.00" position="1877.40,14.63" type="20" value="2.28"/>
        <maxDRAC time="NA" position="NA" type="NA" value="NA"/>
    </conflict>
    <conflict begin="145.00" end="172.00" ego="EW.5" foe="EW.11">
        <minTTC time="167.00" position="2281.88,19.88" type="3" value="4.27"/>
        <maxDRAC time="164.00" position="2300.00,19.96" type="3" value="0.64"/>
    </conflict>
    <conflict begin="145.00" end="172.00" ego="EW.11" foe="EW.5">
        <minTTC time="167.00" position="2281.88,19.88" type="2" value="4.27"/>
        <maxDRAC time="164.00" position="2300.00,19.96" type="2" value="0.64"/>
    </conflict>
    <conflict begin="120.00" end="174.00" ego="EW.4" foe="EW.12">
        <minTTC time="157.00" position="2633.08,21.56" type="3" value="2.47"/>
        <maxDRAC time="157.00" position="2633.08,21.56" type="3" value="1.03"/>
    </conflict>
    <conflict begin="130.00" end="174.00" ego="EW.7" foe="EW.12">
        <minTTC time="169.00" position="2539.65,21.11" type="3" value="2.82"/>
        <maxDRAC time="169.00" position="2539.65,21.11" type="3" value="0.76"/>
    </conflict>
    <conflict begin="120.00" end="174.00" ego="EW.12" foe="EW.4">
        <minTTC time="157.00" position="2633.08,21.56" type="2" value="2.47"/>
        <maxDRAC time="157.00" position="2633.08,21.56" type="2" value="1.03"/>
    </conflict>
    <conflict begin="130.00" end="174.00" ego="EW.12" foe="EW.7">
        <minTTC time="169.00" position="2539.65,21.11" type="2" value="2.82"/>
        <maxDRAC time="169.00" position="2539.65,21.11" type="2" value="0.76"/>
    </conflict>
    <conflict begin="158.00" end="163.00" ego="EW.12" foe="WE.0">
        <minTTC time="161.00" position="2582.45,18.02" type="20" value="2.92"/>
        <maxDRAC time="NA" position="NA" type="NA" value="NA"/>
    </conflict>
    <conflict begin="134.00" end="148.00" ego="EW.9" foe="EW.6">
        <minTTC time="141.00" position="2259.76,19.77" type="2" value="4.04"/>
        <maxDRAC time="141.00" position="2259.76,19.77" type="2" value="0.65"/>
    </conflict>
    <conflict begin="166.00" end="171.00" ego="EW.9" foe="WE.1">
        <minTTC time="169.00" position="1865.37,14.57" type="20" value="3.55"/>
        <maxDRAC time="NA" position="NA" type="NA" value="NA"/>
    </conflict>
    <conflict begin="167.00" end="173.00" ego="EW.10" foe="WE.1">
        <minTTC time="171.00" position="1877.40,14.63" type="20" value="2.28"/>
        <maxDRAC time="NA" position="NA" type="NA" value="NA"/>
    </conflict>
    <conflict begin="157.00" end="183.00" ego="stopping" foe="EW.6">
        <minTTC time="178.00" position="1922.88,18.15" type="3" value="2.74"/>
        <maxDRAC time="178.00" position="1922.88,18.15" type="3" value="1.47"/>
    </conflict>
    <conflict begin="157.00" end="183.00" ego="EW.6" foe="stopping">
        <minTTC time="178.00" position="1922.88,18.15" type="2" value="2.74"/>
        <maxDRAC time="178.00" position="1922.88,18.15" type="2" value="1.47"/>
    </conflict>
    <conflict begin="163.00" end="184.00" ego="EW.14" foe="EW.4">
        <minTTC time="179.00" position="2581.46,21.31" type="2" value="3.10"/>
        <maxDRAC time="179.00" position="2581.46,21.31" type="2" value="0.98"/>
    </conflict>
    <conflict begin="169.00" end="184.00" ego="EW.15" foe="EW.16">
        <minTTC time="179.00" position="2684.97,21.81" type="3" value="2.83"/>
        <maxDRAC time="179.00" position="2684.97,21.81" type="3" value="1.41"/>
    </conflict>
    <conflict begin="160.00" end="184.00" ego="EW.16" foe="EW.13">
        <minTTC time="179.00" position="2670.20,21.74" type="2" value="4.96"/>
        <maxDRAC time="179.00" position="2670.20,21.74" type="2" value="0.76"/>
    </conflict>
    <conflict begin="160.00" end="184.00" ego="EW.16" foe="EW.15">
        <minTTC time="179.00" position="2684.97,21.81" type="2" value="2.83"/>
        <maxDRAC time="179.00" position="2684.97,21.81" type="2" value="1.41"/>
    </conflict>
    <conflict begin="169.00" end="191.00" ego="EW.15" foe="EW.13">
        <minTTC time="174.00" position="2697.27,21.87" type="2" value="4.41"/>
        <maxDRAC time="174.00" position="2697.27,21.87" type="2" value="0.20"/>
    </conflict>
    <conflict begin="183.00" end="201.00" ego="EW.10" foe="EW.0">
        <minTTC time="196.00" position="1431.01,15.79" type="2" value="4.13"/>
        <maxDRAC time="196.00" position="1431.01,15.79" type="2" value="1.14"/>
    </conflict>
    <conflict begin="200.00" end="208.00" ego="WE.1" foe="EW.16">
        <minTTC time="205.00" position="2363.09,16.97" type="20" value="2.96"/>
        <maxDRAC time="NA" position="NA" type="NA" value="NA"/>
    </conflict>
    <conflict begin="208.00" end="214.00" ego="WE.1" foe="EW.17">
        <minTTC time="212.00" position="2463.13,17.45" type="20" value="2.14"/>
        <maxDRAC time="NA" position="NA" type="NA" value="NA"/>
    </conflict>
    <conflict begin="163.00" end="214.00" ego="EW.14" foe="EW.16">
        <minTTC time="199.00" position="2421.05,17.24" type="3" value="4.25"/>
        <maxDRAC time="199.00" position="2421.05,17.24" type="3" value="0.55"/>
    </conflict>
    <conflict begin="163.00" end="214.00" ego="EW.16" foe="EW.14">
        <minTTC time="199.00" position="2421.05,17.24" type="2" value="4.25"/>
        <maxDRAC time="199.00" position="2421.05,17.24" type="2" value="0.55"/>
    </conflict>
    <conflict begin="200.00" end="208.00" ego="EW.16" foe="WE.1">
        <minTTC time="205.00" position="2363.09,16.97" type="20" value="2.96"/>
        <maxDRAC time="NA" position="NA" type="NA" value="NA"/>
    </conflict>
    <conflict begin="196.00" end="218.00" ego="EW.15" foe="EW.7">
        <minTTC time="202.00" position="2410.20,20.49" type="2" value="2.08"/>
        <maxDRAC time="200.00" position="2417.66,20.53" type="2" value="2.60"/>
    </conflict>
    <conflict begin="181.00" end="221.00" ego="EW.0" foe="EW.9">
        <minTTC time="216.00" position="1261.84,14.98" type="3" value="4.81"/>
        <maxDRAC time="216.00" position="1261.84,14.98" type="3" value="0.52"/>
    </conflict>
    <conflict begin="183.00" end="201.00" ego="EW.0" foe="EW.10">
        <minTTC time="196.00" position="1431.01,15.79" type="3" value="4.13"/>
        <maxDRAC time="196.00" position="1431.01,15.79" type="3" value="1.14"/>
    </conflict>
    <conflict begin="181.00" end="221.00" ego="EW.9" foe="EW.0">
        <minTTC time="216.00" position="1261.84,14.98" type="2" value="4.81"/>
        <maxDRAC time="216.00" position="1261.84,14.98" type="2" value="0.52"/>
    </conflict>
    <conflict begin="138.00" end="222.00" ego="EW.13" foe="EW.4">
        <minTTC time="209.00" position="2508.23,20.96" type="2" value="2.56"/>
        <maxDRAC time="209.00" position="2508.23,20.96" type="2" value="0.48"/>
    </conflict>
    <conflict begin="140.00" end="159.00" ego="EW.13" foe="EW.14">
        <minTTC time="153.00" position="2807.89,22.40" type="3" value="4.47"/>
        <maxDRAC time="153.00" position="2807.89,22.40" type="3" value="0.39"/>
    </conflict>
    <conflict begin="150.00" end="166.00" ego="EW.13" foe="EW.15">
        <minTTC time="160.00" position="2770.43,22.22" type="3" value="2.76"/>
        <maxDRAC time="160.00" position="2770.43,22.22" type="3" value="2.50"/>
    </conflict>
    <conflict begin="160.00" end="184.00" ego="EW.13" foe="EW.16">
        <minTTC time="179.00" position="2670.20,21.74" type="3" value="4.96"/>
        <maxDRAC time="179.00" position="2670.20,21.74" type="3" value="0.76"/>
    </conflict>
    <conflict begin="169.00" end="191.00" ego="EW.13" foe="EW.15">
        <minTTC time="174.00" position="2697.27,21.87" type="3" value="4.41"/>
        <maxDRAC time="174.00" position="2697.27,21.87" type="3" value="0.20"/>
    </conflict>
    <conflict begin="174.00" end="222.00" ego="EW.13" foe="EW.17">
        <minTTC time="199.00" position="2570.51,21.26" type="3" value="3.02"/>
        <maxDRAC time="199.00" position="2570.51,21.26" type="3" value="1.05"/>
    </conflict>
    <conflict begin="174.00" end="222.00" ego="EW.17" foe="EW.13">
        <minTTC time="199.00" position="2570.51,21.26" type="2" value="3.02"/>
        <maxDRAC time="199.00" position="2570.51,21.26" type="2" value="1.05"/>
    </conflict>
    <conflict begin="196.00" end="233.00" ego="stopping" foe="EW.5">
        <minTTC time="228.00" position="1922.88,18.15" type="3" value="3.96"/>
        <maxDRAC time="228.00" position="1922.88,18.15" type="3" value="0.66"/>
    </conflict>
    <conflict begin="196.00" end="233.00" ego="EW.5" foe="stopping">
        <minTTC time="228.00" position="1922.88,18.15" type="2" value="3.96"/>
        <maxDRAC time="228.00" position="1922.88,18.15" type="2" value="0.66"/>
    </conflict>
    <conflict begin="196.00" end="228.00" ego="EW.17" foe="EW.7">
        <minTTC time="223.00" position="2326.65,20.09" type="2" value="3.01"/>
        <maxDRAC time="223.00" position="2326.65,20.09" type="2" value="1.52"/>
    </conflict>
    <conflict begin="208.00" end="214.00" ego="EW.17" foe="WE.1">
        <minTTC time="212.00" position="2463.13,17.45" type="20" value="2.14"/>
        <maxDRAC time="NA" position="NA" type="NA" value="NA"/>
    </conflict>
    <conflict begin="201.00" end="229.00" ego="EW.18" foe="EW.4">
        <minTTC time="224.00" position="2472.77,20.79" type="2" value="1.65"/>
        <maxDRAC time="224.00" position="2472.77,20.79" type="2" value="2.42"/>
    </conflict>
    <conflict begin="225.00" end="232.00" ego="EW.18" foe="EW.13">
        <minTTC time="226.00" position="2446.90,17.37" type="2" value="3.51"/>
        <maxDRAC time="226.00" position="2446.90,17.37" type="2" value="0.54"/>
    </conflict>
    <conflict begin="225.00" end="232.00" ego="EW.13" foe="EW.18">
        <minTTC time="226.00" position="2446.90,17.37" type="3" value="3.51"/>
        <maxDRAC time="226.00" position="2446.90,17.37" type="3" value="0.54"/>
    </conflict>
    <conflict begin="210.00" end="240.00" ego="EW.21" foe="EW.20">
        <minTTC time="227.00" position="2795.87,22.34" type="2" value="3.76"/>
        <maxDRAC time="227.00" position="2795.87,22.34" type="2" value="0.41"/>
    </conflict>
    <conflict begin="220.00" end="240.00" ego="EW.21" foe="EW.22">
        <minTTC time="235.00" position="2771.58,22.23" type="3" value="4.98"/>
        <maxDRAC time="235.00" position="2771.58,22.23" type="3" value="0.55"/>
    </conflict>
    <conflict begin="220.00" end="240.00" ego="EW.22" foe="EW.21">
        <minTTC time="235.00" position="2771.58,22.23" type="2" value="4.98"/>
        <maxDRAC time="235.00" position="2771.58,22.23" type="2" value="0.55"/>
    </conflict>
    <conflict begin="230.00" end="247.00" ego="EW.23" foe="EW.20">
        <minTTC time="242.00" position="2724.29,22.00" type="2" value="4.32"/>
        <maxDRAC time="242.00" position="2724.29,22.00" type="2" value="1.49"/>
    </conflict>
    <conflict begin="230.00" end="247.00" ego="EW.23" foe="EW.22">
        <minTTC time="242.00" position="2741.40,22.08" type="2" value="4.35"/>
        <maxDRAC time="241.00" position="2750.42,22.13" type="2" value="1.17"/>
    </conflict>
    <conflict begin="243.00" end="252.00" ego="EW.21" foe="EW.23">
        <minTTC time="244.00" position="2700.65,18.59" type="3" value="3.31"/>
        <maxDRAC time="244.00" position="2700.65,18.59" type="3" value="1.60"/>
    </conflict>
    <conflict begin="243.00" end="252.00" ego="EW.23" foe="EW.21">
        <minTTC time="244.00" position="2700.65,18.59" type="2" value="3.31"/>
        <maxDRAC time="244.00" position="2700.65,18.59" type="2" value="1.60"/>
    </conflict>
    <conflict begin="239.00" end="254.00" ego="EW.18" foe="EW.7">
        <minTTC time="249.00" position="2227.32,19.61" type="2" value="2.54"/>
        <maxDRAC time="249.00" position="2227.32,19.61" type="2" value="1.07"/>
    </conflict>
    <conflict begin="243.00" end="260.00" ego="EW.12" foe="EW.15">
        <minTTC time="248.00" position="1928.28,14.88" type="3" value="4.84"/>
        <maxDRAC time="248.00" position="1928.28,14.88" type="3" value="1.21"/>
    </conflict>
    <conflict begin="138.00" end="222.00" ego="EW.4" foe="EW.13">
        <minTTC time="209.00" position="2508.23,20.96" type="3" value="2.56"/>
        <maxDRAC time="209.00" position="2508.23,20.96" type="3" value="0.48"/>
    </conflict>
    <conflict begin="163.00" end="184.00" ego="EW.4" foe="EW.14">
        <minTTC time="179.00" position="2581.46,21.31" type="3" value="3.10"/>
        <maxDRAC time="179.00" position="2581.46,21.31" type="3" value="0.98"/>
    </conflict>
    <conflict begin="201.00" end="229.00" ego="EW.4" foe="EW.18">
        <minTTC time="224.00" position="2472.77,20.79" type="3" value="1.65"/>
        <maxDRAC time="224.00" position="2472.77,20.79" type="3" value="2.42"/>
    </conflict>
    <conflict begin="196.00" end="218.00" ego="EW.7" foe="EW.15">
        <minTTC time="202.00" position="2410.20,20.49" type="3" value="2.08"/>
        <maxDRAC time="200.00" position="2417.66,20.53" type="3" value="2.60"/>
    </conflict>
    <conflict begin="196.00" end="228.00" ego="EW.7" foe="EW.17">
        <minTTC time="223.00" position="2326.65,20.09" type="3" value="3.01"/>
        <maxDRAC time="223.00" position="2326.65,20.09" type="3" value="1.52"/>
    </conflict>
    <conflict begin="226.00" end="268.00" ego="EW.14" foe="EW.15">
        <minTTC time="228.00" position="2185.13,19.41" type="3" value="2.67"/>
        <maxDRAC time="228.00" position="2185.13,19.41" type="3" value="0.97"/>
    </conflict>
    <conflict begin="258.00" end="268.00" ego="EW.23" foe="EW.4">
        <minTTC time="263.00" position="2377.13,20.33" type="2" value="3.07"/>
        <maxDRAC time="263.00" position="2377.13,20.33" type="2" value="2.82"/>
    </conflict>
    <conflict begin="207.00" end="278.00" ego="EW.15" foe="EW.16">
        <minTTC time="208.00" position="2397.14,20.43" type="2" value="1.51"/>
        <maxDRAC time="248.00" position="1944.66,14.96" type="2" value="1.85"/>
    </conflict>
    <conflict begin="226.00" end="268.00" ego="EW.15" foe="EW.14">
        <minTTC time="228.00" position="2185.13,19.41" type="2" value="2.67"/>
        <maxDRAC time="228.00" position="2185.13,19.41" type="2" value="0.97"/>
    </conflict>
    <conflict begin="243.00" end="260.00" ego="EW.15" foe="EW.12">
        <minTTC time="248.00" position="1928.28,14.88" type="2" value="4.84"/>
        <maxDRAC time="248.00" position="1928.28,14.88" type="2" value="1.21"/>
    </conflict>
    <conflict begin="207.00" end="278.00" ego="EW.16" foe="EW.15">
        <minTTC time="208.00" position="2397.14,20.43" type="3" value="1.51"/>
        <maxDRAC time="248.00" position="1944.66,14.96" type="3" value="1.85"/>
    </conflict>
    <conflict begin="250.00" end="279.00" ego="EW.25" foe="EW.24">
        <minTTC time="261.00" position="2763.50,22.19" type="2" value="3.60"/>
        <maxDRAC time="261.00" position="2763.50,22.19" type="2" value="1.45"/>
    </conflict>
    <conflict begin="259.00" end="279.00" ego="EW.25" foe="EW.20">
        <minTTC time="270.00" position="2594.03,21.37" type="2" value="2.72"/>
        <maxDRAC time="269.00" position="2598.23,21.39" type="2" value="2.46"/>
    </conflict>
    <conflict begin="250.00" end="281.00" ego="WE.4" foe="WE.5">
        <minTTC time="260.00" position="269.71,6.91" type="3" value="1.88"/>
        <maxDRAC time="259.00" position="267.29,6.90" type="3" value="3.39"/>
    </conflict>
    <conflict begin="250.00" end="281.00" ego="WE.5" foe="WE.4">
        <minTTC time="260.00" position="269.71,6.91" type="2" value="1.88"/>
        <maxDRAC time="259.00" position="267.29,6.90" type="2" value="3.39"/>
    </conflict>
    <conflict begin="256.00" end="289.00" ego="EW.5" foe="EW.12">
        <minTTC time="282.00" position="1652.47,16.85" type="3" value="4.52"/>
        <maxDRAC time="282.00" position="1652.47,16.85" type="3" value="0.33"/>
    </conflict>
    <conflict begin="256.00" end="289.00" ego="EW.12" foe="EW.5">
        <minTTC time="282.00" position="1652.47,16.85" type="2" value="4.52"/>
        <maxDRAC time="282.00" position="1652.47,16.85" type="2" value="0.33"/>
    </conflict>
    <conflict begin="220.00" end="290.00" ego="EW.22" foe="EW.20">
        <minTTC time="242.00" position="2724.29,22.00" type="2" value="3.01"/>
        <maxDRAC time="242.00" position="2724.29,22.00" type="2" value="0.67"/>
    </conflict>
    <conflict begin="230.00" end="247.00" ego="EW.22" foe="EW.23">
        <minTTC time="242.00" position="2741.40,22.08" type="3" value="4.35"/>
        <maxDRAC time="241.00" position="2750.42,22.13" type="3" value="1.17"/>
    </conflict>
    <conflict begin="270.00" end="294.00" ego="EW.27" foe="EW.26">
        <minTTC time="287.00" position="2630.13,21.55" type="2" value="4.85"/>
        <maxDRAC time="287.00" position="2630.13,21.55" type="2" value="0.97"/>
    </conflict>
    <conflict begin="240.00" end="302.00" ego="EW.24" foe="EW.20">
        <minTTC time="294.00" position="2478.05,20.82" type="2" value="2.73"/>
        <maxDRAC time="294.00" position="2478.05,20.82" type="2" value="0.81"/>
    </conflict>
    <conflict begin="243.00" end="315.00" ego="EW.4" foe="EW.19">
        <minTTC time="302.00" position="2283.23,19.88" type="3" value="1.44"/>
        <maxDRAC time="302.00" position="2283.23,19.88" type="3" value="1.53"/>
    </conflict>
    <conflict begin="258.00" end="268.00" ego="EW.4" foe="EW.23">
        <minTTC time="263.00" position="2377.13,20.33" type="3" value="3.07"/>
        <maxDRAC time="263.00" position="2377.13,20.33" type="3" value="2.82"/>
    </conflict>
    <conflict begin="243.00" end="315.00" ego="EW.19" foe="EW.4">
        <minTTC time="302.00" position="2283.23,19.88" type="2" value="1.44"/>
        <maxDRAC time="302.00" position="2283.23,19.88" type="2" value="1.53"/>
    </conflict>
    <conflict begin="210.00" end="240.00" ego="EW.20" foe="EW.21">
        <minTTC time="227.00" position="2795.87,22.34" type="3" value="3.76"/>
        <maxDRAC time="227.00" position="2795.87,22.34" type="3" value="0.41"/>
    </conflict>
    <conflict begin="220.00" end="290.00" ego="EW.20" foe="EW.22">
        <minTTC time="242.00" position="2724.29,22.00" type="3" value="3.01"/>
        <maxDRAC time="242.00" position="2724.29,22.00" type="3" value="0.67"/>
    </conflict>
    <conflict begin="230.00" end="247.00" ego="EW.20" foe="EW.23">
        <minTTC time="242.00" position="2724.29,22.00" type="3" value="4.32"/>
        <maxDRAC time="242.00" position="2724.29,22.00" type="3" value="1.49"/>
    </conflict>
    <conflict begin="240.00" end="302.00" ego="EW.20" foe="EW.24">
        <minTTC time="294.00" position="2478.05,20.82" type="3" value="2.73"/>
        <maxDRAC time="294.00" position="2478.05,20.82" type="3" value="0.81"/>
    </conflict>
    <conflict begin="259.00" end="279.00" ego="EW.20" foe="EW.25">
        <minTTC time="270.00" position="2594.03,21.37" type="3" value="2.72"/>
        <maxDRAC time="269.00" position="2598.23,21.39" type="3" value="2.46"/>
    </conflict>
    <conflict begin="276.00" end="307.00" ego="EW.20" foe="EW.26">
        <minTTC time="300.00" position="2450.38,20.68" type="3" value="2.97"/>
        <maxDRAC time="300.00" position="2450.38,20.68" type="3" value="1.08"/>
    </conflict>
    <conflict begin="260.00" end="315.00" ego="EW.26" foe="EW.24">
        <minTTC time="297.00" position="2478.71,20.82" type="2" value="3.58"/>
        <maxDRAC time="297.00" position="2478.71,20.82" type="2" value="0.96"/>
    </conflict>
    <conflict begin="270.00" end="294.00" ego="EW.26" foe="EW.27">
        <minTTC time="287.00" position="2630.13,21.55" type="3" value="4.85"/>
        <maxDRAC time="287.00" position="2630.13,21.55" type="3" value="0.97"/>
    </conflict>
    <conflict begin="276.00" end="307.00" ego="EW.26" foe="EW.20">
        <minTTC time="300.00" position="2450.38,20.68" type="2" value="2.97"/>
        <maxDRAC time="300.00" position="2450.38,20.68" type="2" value="1.08"/>
    </conflict>
    <conflict begin="299.00" end="316.00" ego="EW.27" foe="EW.21">
        <minTTC time="305.00" position="2273.09,16.53" type="2" value="3.45"/>
        <maxDRAC time="303.00" position="2286.71,16.60" type="2" value="2.07"/>
    </conflict>
    <conflict begin="264.00" end="325.00" ego="EW.5" foe="EW.14">
        <minTTC time="298.00" position="1566.67,16.44" type="3" value="4.08"/>
        <maxDRAC time="298.00" position="1566.67,16.44" type="3" value="0.47"/>
    </conflict>
    <conflict begin="264.00" end="325.00" ego="EW.14" foe="EW.5">
        <minTTC time="298.00" position="1566.67,16.44" type="2" value="4.08"/>
        <maxDRAC time="298.00" position="1566.67,16.44" type="2" value="0.47"/>
    </conflict>
    <conflict begin="302.00" end="325.00" ego="EW.14" foe="EW.23">
        <minTTC time="310.00" position="1515.14,16.19" type="3" value="2.29"/>
        <maxDRAC time="308.00" position="1524.63,16.24" type="3" value="2.43"/>
    </conflict>
    <conflict begin="302.00" end="325.00" ego="EW.23" foe="EW.14">
        <minTTC time="310.00" position="1515.14,16.19" type="2" value="2.29"/>
        <maxDRAC time="308.00" position="1524.63,16.24" type="2" value="2.43"/>
    </conflict>
    <conflict begin="299.00" end="316.00" ego="EW.21" foe="EW.27">
        <minTTC time="305.00" position="2273.09,16.53" type="3" value="3.45"/>
        <maxDRAC time="303.00" position="2286.71,16.60" type="3" value="2.07"/>
    </conflict>
    <conflict begin="302.00" end="331.00" ego="EW.23" foe="EW.5">
        <minTTC time="324.00" position="1422.56,15.75" type="2" value="3.37"/>
        <maxDRAC time="308.00" position="1510.87,16.17" type="2" value="1.93"/>
    </conflict>