<?xml version="1.0" encoding="UTF-8"?>

<!-- generated on 2022-03-15 12:24:31 by Eclipse SUMO sumo Version v1_12_0+1393-f38ffdc
This data file and the accompanying materials
are made available under the terms of the Eclipse Public License v2.0
which accompanies this distribution, and is available at
http://www.eclipse.org/legal/epl-v20.html
This file may also be made available under the following Secondary
Licenses when the conditions for such availability set forth in the Eclipse
Public License 2.0 are satisfied: GNU General Public License, version 2
or later which is available at
https://www.gnu.org/licenses/old-licenses/gpl-2.0-standalone.html
SPDX-License-Identifier: EPL-2.0 OR GPL-2.0-or-later
<configuration xmlns:xsi="http://www.w3.org/2001/XMLSchema-instance" xsi:noNamespaceSchemaLocation="http://sumo.dlr.de/xsd/sumoConfiguration.xsd">

    <input>
        <net-file value="net.net.xml"/>
        <route-files value="input_routes.rou.xml"/>
    </input>

    <output>
        <write-license value="true"/>
    </output>

    <processing>
        <default.speeddev value="0"/>
    </processing>

    <report>
        <xml-validation value="never"/>
        <xml-validation.routes value="never"/>
        <no-step-log value="true"/>
    </report>

    <ssm_device>
        <device.ssm.probability value="1"/>
        <device.ssm.measures value="TTC DRAC"/>
        <device.ssm.thresholds value="5 3"/>
        <device.ssm.range value="200"/>
        <device.ssm.file value="ssm.xml"/>
    </ssm_device>

</configuration>
-->

<SSMLog>
    <conflict begin="20.00" end="33.00" ego="EW.2" foe="EW.0">
        <minTTC time="27.00" position="2855.21,22.63" type="2" value="4.74"/>
        <maxDRAC time="27.00" position="2855.21,22.63" type="2" value="0.52"/>
    </conflict>
    <conflict begin="30.00" end="56.00" ego="EW.3" foe="EW.0">
        <minTTC time="51.00" position="2655.31,21.67" type="2" value="4.47"/>
        <maxDRAC time="51.00" position="2655.31,21.67" type="2" value="0.57"/>
    </conflict>
    <conflict begin="50.00" end="61.00" ego="EW.5" foe="EW.4">
        <minTTC time="55.00" position="2886.68,22.78" type="2" value="3.72"/>
        <maxDRAC time="55.00" position="2886.68,22.78" type="2" value="0.37"/>
    </conflict>
    <conflict begin="60.00" end="72.00" ego="EW.6" foe="EW.4">
        <minTTC time="67.00" position="2858.24,22.64" type="2" value="2.58"/>
        <maxDRAC time="67.00" position="2858.24,22.64" type="2" value="1.10"/>
    </conflict>
    <conflict begin="20.00" end="36.00" ego="EW.0" foe="EW.2">
        <minTTC time="27.00" position="2855.21,22.63" type="3" value="4.74"/>
        <maxDRAC time="27.00" position="2855.21,22.63" type="3" value="0.52"/>
    </conflict>
    <conflict begin="30.00" end="56.00" ego="EW.0" foe="EW.3">
        <minTTC time="51.00" position="2655.31,21.67" type="3" value="4.47"/>
        <maxDRAC time="51.00" position="2655.31,21.67" type="3" value="0.57"/>
    </conflict>
    <conflict begin="90.00" end="103.00" ego="EW.9" foe="EW.7">
        <minTTC time="98.00" position="2819.71,22.46" type="2" value="2.91"/>
        <maxDRAC time="98.00" position="2819.71,22.46" type="2" value="1.58"/>
    </conflict>
    <conflict begin="100.00" end="115.00" ego="EW.10" foe="EW.4">
        <minTTC time="110.00" position="2751.44,22.13" type="2" value="3.71"/>
        <maxDRAC time="110.00" position="2751.44,22.13" type="2" value="2.18"/>
    </conflict>
    <conflict begin="100.00" end="115.00" ego="EW.10" foe="EW.7">
        <minTTC time="110.00" position="2771.34,22.23" type="2" value="2.88"/>
        <maxDRAC time="110.00" position="2771.34,22.23" type="2" value="2.42"/>
    </conflict>
    <conflict begin="70.00" end="122.00" ego="EW.7" foe="EW.4">
        <minTTC time="117.00" position="2733.61,22.04" type="2" value="3.93"/>
        <maxDRAC time="113.00" position="2743.97,22.09" type="2" value="0.23"/>
    </conflict>
    <conflict begin="90.00" end="104.00" ego="EW.7" foe="EW.9">
        <minTTC time="98.00" position="2819.71,22.46" type="3" value="2.91"/>
        <maxDRAC time="98.00" position="2819.71,22.46" type="3" value="1.58"/>
    </conflict>
    <conflict begin="100.00" end="115.00" ego="EW.7" foe="EW.10">
        <minTTC time="110.00" position="2771.34,22.23" type="3" value="2.88"/>
        <maxDRAC time="110.00" position="2771.34,22.23" type="3" value="2.42"/>
    </conflict>
    <conflict begin="50.00" end="132.00" ego="EW.4" foe="EW.5">
        <minTTC time="55.00" position="2886.68,22.78" type="3" value="3.72"/>
        <maxDRAC time="55.00" position="2886.68,22.78" type="3" value="0.37"/>
    </conflict>
    <conflict begin="60.00" end="80.00" ego="EW.4" foe="EW.6">
        <minTTC time="67.00" position="2858.24,22.64" type="3" value="2.58"/>
        <maxDRAC time="67.00" position="2858.24,22.64" type="3" value="1.10"/>
    </conflict>
    <conflict begin="70.00" end="122.00" ego="EW.4" foe="EW.7">
        <minTTC time="117.00" position="2733.61,22.04" type="3" value="3.93"/>
        <maxDRAC time="113.00" position="2743.97,22.09" type="3" value="0.23"/>
    </conflict>
    <conflict begin="100.00" end="115.00" ego="EW.4" foe="EW.10">
        <minTTC time="110.00" position="2751.44,22.13" type="3" value="3.71"/>
        <maxDRAC time="110.00" position="2751.44,22.13" type="3" value="2.18"/>
    </conflict>
    <conflict begin="110.00" end="135.00" ego="EW.4" foe="EW.11">
        <minTTC time="130.00" position="2703.54,21.90" type="3" value="1.88"/>
        <maxDRAC time="130.00" position="2703.54,21.90" type="3" value="2.48"/>
    </conflict>
    <conflict begin="110.00" end="135.00" ego="EW.11" foe="EW.4">
        <minTTC time="130.00" position="2703.54,21.90" type="2" value="1.88"/>
        <maxDRAC time="130.00" position="2703.54,21.90" type="2" value="2.48"/>
    </conflict>
    <conflict begin="130.00" end="152.00" ego="EW.10" foe="EW.6">
        <minTTC time="145.00" position="2221.68,19.59" type="2" value="4.51"/>
        <maxDRAC time="145.00" position="2221.68,19.59" type="2" value="0.59"/>
    </conflict>
    <conflict begin="130.00" end="152.00" ego="EW.6" foe="EW.10">
        <minTTC time="145.00" position="2221.68,19.59" type="3" value="4.51"/>
        <maxDRAC time="145.00" position="2221.68,19.59" type="3" value="0.59"/>
    </conflict>
    <conflict begin="140.00" end="156.00" ego="EW.14" foe="EW.13">
        <minTTC time="151.00" position="2819.85,22.46" type="2" value="3.69"/>
        <maxDRAC time="150.00" position="2825.22,22.48" type="2" value="0.56"/>
    </conflict>
    <conflict begin="156.00" end="162.00" ego="WE.0" foe="EW.12">
        <minTTC time="160.00" position="2573.84,17.98" type="20" value="4.17"/>
        <maxDRAC time="NA" position="NA" type="NA" value="NA"/>
    </conflict>
    <conflict begin="165.00" end="170.00" ego="WE.1" foe="EW.9">
        <minTTC time="168.00" position="1860.45,14.55" type="20" value="4.31"/>
        <maxDRAC time="NA" position="NA" type="NA" value="NA"/>
    </conflict>
    <conflict begin="166.00" end="172.00" ego="WE.1" foe="EW.10">
        <minTTC time="170.00" position="1873.06,14.61" type="20" value="2.85"/>
        <maxDRAC time="NA" position="NA" type="NA" value="NA"/>
    </conflict>
    <conflict begin="143.00" end="172.00" ego="EW.5" foe="EW.11">
        <minTTC time="167.00" position="2287.77,19.90" type="3" value="3.07"/>
        <maxDRAC time="167.00" position="2287.77,19.90" type="3" value="1.03"/>
    </conflict>
    <conflict begin="143.00" end="172.00" ego="EW.11" foe="EW.5">
        <minTTC time="167.00" position="2287.77,19.90" type="2" value="3.07"/>
        <maxDRAC time="167.00" position="2287.77,19.90" type="2" value="1.03"/>
    </conflict>
    <conflict begin="120.00" end="173.00" ego="EW.4" foe="EW.12">
        <minTTC time="155.00" position="2643.45,21.61" type="3" value="2.39"/>
        <maxDRAC time="155.00" position="2643.45,21.61" type="3" value="1.13"/>
    </conflict>
    <conflict begin="131.00" end="173.00" ego="EW.7" foe="EW.12">
        <minTTC time="168.00" position="2544.49,21.14" type="3" value="3.89"/>
        <maxDRAC time="167.00" position="2548.51,21.16" type="3" value="0.49"/>
    </conflict>
    <conflict begin="120.00" end="173.00" ego="EW.12" foe="EW.4">
        <minTTC time="155.00" position="2643.45,21.61" type="2" value="2.39"/>
        <maxDRAC time="155.00" position="2643.45,21.61" type="2" value="1.13"/>
    </conflict>
    <conflict begin="131.00" end="173.00" ego="EW.12" foe="EW.7">
        <minTTC time="168.00" position="2544.49,21.14" type="2" value="3.89"/>
        <maxDRAC time="167.00" position="2548.51,21.16" type="2" value="0.49"/>
    </conflict>
    <conflict begin="156.00" end="162.00" ego="EW.12" foe="WE.0">
        <minTTC time="160.00" position="2573.84,17.98" type="20" value="4.17"/>
        <maxDRAC time="NA" position="NA" type="NA" value="NA"/>
    </conflict>
    <conflict begin="165.00" end="170.00" ego="EW.9" foe="WE.1">
        <minTTC time="168.00" position="1860.45,14.55" type="20" value="4.31"/>
        <maxDRAC time="NA" position="NA" type="NA" value="NA"/>
    </conflict>
    <conflict begin="166.00" end="172.00" ego="EW.10" foe="WE.1">
        <minTTC time="170.00" position="1873.06,14.61" type="20" value="2.85"/>
        <maxDRAC time="NA" position="NA" type="NA" value="NA"/>
    </conflict>
    <conflict begin="157.00" end="183.00" ego="stopping" foe="EW.6">
        <minTTC time="178.00" position="1922.89,18.15" type="3" value="2.16"/>
        <maxDRAC time="178.00" position="1922.89,18.15" type="3" value="1.90"/>
    </conflict>
    <conflict begin="157.00" end="183.00" ego="EW.6" foe="stopping">
        <minTTC time="178.00" position="1922.89,18.15" type="2" value="2.16"/>
        <maxDRAC time="178.00" position="1922.89,18.15" type="2" value="1.90"/>
    </conflict>
    <conflict begin="160.00" end="183.00" ego="EW.14" foe="EW.4">
        <minTTC time="178.00" position="2585.78,21.33" type="2" value="2.03"/>
        <maxDRAC time="178.00" position="2585.78,21.33" type="2" value="1.75"/>
    </conflict>
    <conflict begin="160.00" end="183.00" ego="EW.16" foe="EW.15">
        <minTTC time="178.00" position="2689.92,21.84" type="2" value="3.76"/>
        <maxDRAC time="178.00" position="2689.92,21.84" type="2" value="0.98"/>
    </conflict>
    <conflict begin="183.00" end="200.00" ego="EW.10" foe="EW.0">
        <minTTC time="195.00" position="1439.47,15.83" type="2" value="4.08"/>
        <maxDRAC time="195.00" position="1439.47,15.83" type="2" value="1.18"/>
    </conflict>
    <conflict begin="206.00" end="212.00" ego="WE.1" foe="EW.17">
        <minTTC time="210.00" position="2454.62,17.40" type="20" value="3.57"/>
        <maxDRAC time="NA" position="NA" type="NA" value="NA"/>
    </conflict>
    <conflict begin="189.00" end="214.00" ego="EW.16" foe="EW.15">
        <minTTC time="209.00" position="2397.65,20.43" type="3" value="2.51"/>
        <maxDRAC time="206.00" position="2412.75,20.50" type="3" value="1.96"/>
    </conflict>
    <conflict begin="192.00" end="214.00" ego="EW.16" foe="EW.7">
        <minTTC time="200.00" position="2421.20,20.54" type="2" value="2.21"/>
        <maxDRAC time="199.00" position="2425.03,20.56" type="2" value="1.64"/>
    </conflict>
    <conflict begin="180.00" end="220.00" ego="EW.0" foe="EW.9">
        <minTTC time="215.00" position="1271.30,15.02" type="3" value="4.86"/>
        <maxDRAC time="214.00" position="1279.82,15.06" type="3" value="0.52"/>
    </conflict>
    <conflict begin="183.00" end="200.00" ego="EW.0" foe="EW.10">
        <minTTC time="195.00" position="1439.47,15.83" type="3" value="4.08"/>
        <maxDRAC time="195.00" position="1439.47,15.83" type="3" value="1.18"/>
    </conflict>
    <conflict begin="180.00" end="220.00" ego="EW.9" foe="EW.0">
        <minTTC time="215.00" position="1271.30,15.02" type="2" value="4.86"/>
        <maxDRAC time="214.00" position="1279.82,15.06" type="2" value="0.52"/>
    </conflict>
    <conflict begin="137.00" end="222.00" ego="EW.13" foe="EW.4">
        <minTTC time="209.00" position="2512.14,20.98" type="2" value="2.46"/>
        <maxDRAC time="209.00" position="2512.14,20.98" type="2" value="0.40"/>
    </conflict>
    <conflict begin="140.00" end="156.00" ego="EW.13" foe="EW.14">
        <minTTC time="151.00" position="2819.85,22.46" type="3" value="3.69"/>
        <maxDRAC time="150.00" position="2825.22,22.48" type="3" value="0.56"/>
    </conflict>
    <conflict begin="150.00" end="222.00" ego="EW.13" foe="EW.15">
        <minTTC time="161.00" position="2767.85,22.21" type="3" value="2.56"/>
        <maxDRAC time="161.00" position="2767.85,22.21" type="3" value="2.13"/>
    </conflict>
    <conflict begin="150.00" end="222.00" ego="EW.15" foe="EW.13">
        <minTTC time="161.00" position="2767.85,22.21" type="2" value="2.56"/>
        <maxDRAC time="161.00" position="2767.85,22.21" type="2" value="2.13"/>
    </conflict>
    <conflict begin="201.00" end="229.00" ego="EW.18" foe="EW.4">
        <minTTC time="223.00" position="2477.01,20.81" type="2" value="1.63"/>
        <maxDRAC time="223.00" position="2477.01,20.81" type="2" value="2.65"/>
    </conflict>
    <conflict begin="197.00" end="233.00" ego="stopping" foe="EW.5">
        <minTTC time="227.00" position="1922.89,18.15" type="3" value="4.82"/>
        <maxDRAC time="227.00" position="1922.89,18.15" type="3" value="0.64"/>
    </conflict>
    <conflict begin="197.00" end="233.00" ego="EW.5" foe="stopping">
        <minTTC time="227.00" position="1922.89,18.15" type="2" value="4.82"/>
        <maxDRAC time="227.00" position="1922.89,18.15" type="2" value="0.64"/>
    </conflict>
    <conflict begin="230.00" end="234.00" ego="WE.2" foe="EW.16">
        <minTTC time="232.00" position="2066.89,15.54" type="20" value="4.42"/>
        <maxDRAC time="NA" position="NA" type="NA" value="NA"/>
    </conflict>
    <conflict begin="170.00" end="238.00" ego="EW.13" foe="EW.17">
        <minTTC time="199.00" position="2570.39,21.26" type="3" value="2.73"/>
        <maxDRAC time="198.00" position="2575.18,21.28" type="3" value="1.10"/>
    </conflict>
    <conflict begin="170.00" end="238.00" ego="EW.17" foe="EW.13">
        <minTTC time="199.00" position="2570.39,21.26" type="2" value="2.73"/>
        <maxDRAC time="198.00" position="2575.18,21.28" type="2" value="1.10"/>
    </conflict>
    <conflict begin="230.00" end="234.00" ego="EW.16" foe="WE.2">
        <minTTC time="232.00" position="2066.89,15.54" type="20" value="4.42"/>
        <maxDRAC time="NA" position="NA" type="NA" value="NA"/>
    </conflict>
    <conflict begin="210.00" end="241.00" ego="EW.21" foe="EW.20">
        <minTTC time="225.00" position="2807.72,22.40" type="2" value="4.23"/>
        <maxDRAC time="225.00" position="2807.72,22.40" type="2" value="0.36"/>
    </conflict>
    <conflict begin="159.00" end="247.00" ego="EW.15" foe="EW.4">
        <minTTC time="195.00" position="2546.07,21.14" type="2" value="1.72"/>
        <maxDRAC time="194.00" position="2548.44,21.16" type="2" value="2.66"/>
    </conflict>
    <conflict begin="160.00" end="183.00" ego="EW.15" foe="EW.16">
        <minTTC time="178.00" position="2689.92,21.84" type="3" value="3.76"/>
        <maxDRAC time="178.00" position="2689.92,21.84" type="3" value="0.98"/>
    </conflict>
    <conflict begin="220.00" end="248.00" ego="EW.22" foe="EW.20">
        <minTTC time="242.00" position="2727.57,22.02" type="2" value="3.34"/>
        <maxDRAC time="242.00" position="2727.57,22.02" type="2" value="0.65"/>
    </conflict>
    <conflict begin="230.00" end="248.00" ego="EW.22" foe="EW.23">
        <minTTC time="243.00" position="2739.65,22.07" type="3" value="3.65"/>
        <maxDRAC time="241.00" position="2755.79,22.15" type="3" value="1.21"/>
    </conflict>
    <conflict begin="230.00" end="248.00" ego="EW.23" foe="EW.22">
        <minTTC time="243.00" position="2739.65,22.07" type="2" value="3.65"/>
        <maxDRAC time="241.00" position="2755.79,22.15" type="2" value="1.21"/>
    </conflict>
    <conflict begin="170.00" end="254.00" ego="EW.17" foe="EW.15">
        <minTTC time="219.00" position="2359.77,20.25" type="2" value="3.12"/>
        <maxDRAC time="219.00" position="2359.77,20.25" type="2" value="1.46"/>
    </conflict>
    <conflict begin="195.00" end="224.00" ego="EW.17" foe="EW.7">
        <minTTC time="219.00" position="2347.64,20.19" type="2" value="4.45"/>
        <maxDRAC time="219.00" position="2347.64,20.19" type="2" value="1.02"/>
    </conflict>
    <conflict begin="206.00" end="212.00" ego="EW.17" foe="WE.1">
        <minTTC time="210.00" position="2454.62,17.40" type="20" value="3.57"/>
        <maxDRAC time="NA" position="NA" type="NA" value="NA"/>
    </conflict>
    <conflict begin="234.00" end="254.00" ego="EW.18" foe="EW.7">
        <minTTC time="249.00" position="2230.35,19.63" type="2" value="2.66"/>
        <maxDRAC time="249.00" position="2230.35,19.63" type="2" value="0.99"/>
    </conflict>
    <conflict begin="166.00" end="257.00" ego="EW.15" foe="EW.7">
        <minTTC time="211.00" position="2378.86,20.34" type="2" value="2.51"/>
        <maxDRAC time="207.00" position="2393.72,20.41" type="2" value="1.57"/>
    </conflict>
    <conflict begin="170.00" end="254.00" ego="EW.15" foe="EW.17">
        <minTTC time="219.00" position="2359.77,20.25" type="3" value="3.12"/>
        <maxDRAC time="219.00" position="2359.77,20.25" type="3" value="1.46"/>
    </conflict>
    <conflict begin="189.00" end="214.00" ego="EW.15" foe="EW.16">
        <minTTC time="209.00" position="2397.65,20.43" type="2" value="2.51"/>
        <maxDRAC time="206.00" position="2412.75,20.50" type="2" value="1.96"/>
    </conflict>
    <conflict begin="248.00" end="261.00" ego="EW.15" foe="stopping">
        <minTTC time="255.00" position="1922.89,18.15" type="2" value="3.51"/>
        <maxDRAC time="253.00" position="1922.89,18.15" type="2" value="2.37"/>
    </conflict>
    <conflict begin="226.00" end="263.00" ego="EW.14" foe="EW.17">
        <minTTC time="252.00" position="1956.58,15.01" type="3" value="4.85"/>
        <maxDRAC time="252.00" position="1956.58,15.01" type="3" value="0.32"/>
    </conflict>
    <conflict begin="226.00" end="263.00" ego="EW.17" foe="EW.14">
        <minTTC time="252.00" position="1956.58,15.01" type="2" value="4.85"/>
        <maxDRAC time="252.00" position="1956.58,15.01" type="2" value="0.32"/>
    </conflict>
    <conflict begin="137.00" end="222.00" ego="EW.4" foe="EW.13">
        <minTTC time="209.00" position="2512.14,20.98" type="3" value="2.46"/>
        <maxDRAC time="209.00" position="2512.14,20.98" type="3" value="0.40"/>
    </conflict>
    <conflict begin="159.00" end="247.00" ego="EW.4" foe="EW.15">
        <minTTC time="195.00" position="2546.07,21.14" type="3" value="1.72"/>
        <maxDRAC time="194.00" position="2548.44,21.16" type="3" value="2.66"/>
    </conflict>
    <conflict begin="160.00" end="183.00" ego="EW.4" foe="EW.14">
        <minTTC time="178.00" position="2585.78,21.33" type="3" value="2.03"/>
        <maxDRAC time="178.00" position="2585.78,21.33" type="3" value="1.75"/>
    </conflict>
    <conflict begin="201.00" end="229.00" ego="EW.4" foe="EW.18">
        <minTTC time="223.00" position="2477.01,20.81" type="3" value="1.63"/>
        <maxDRAC time="223.00" position="2477.01,20.81" type="3" value="2.65"/>
    </conflict>
    <conflict begin="166.00" end="257.00" ego="EW.7" foe="EW.15">
        <minTTC time="211.00" position="2378.86,20.34" type="3" value="2.51"/>
        <maxDRAC time="207.00" position="2393.72,20.41" type="3" value="1.57"/>
    </conflict>
    <conflict begin="192.00" end="214.00" ego="EW.7" foe="EW.16">
        <minTTC time="200.00" position="2421.20,20.54" type="3" value="2.21"/>
        <maxDRAC time="199.00" position="2425.03,20.56" type="3" value="1.64"/>
    </conflict>
    <conflict begin="195.00" end="224.00" ego="EW.7" foe="EW.17">
        <minTTC time="219.00" position="2347.64,20.19" type="3" value="4.45"/>
        <maxDRAC time="219.00" position="2347.64,20.19" type="3" value="1.02"/>
    </conflict>
    <conflict begin="248.00" end="261.00" ego="stopping" foe="EW.15">
        <minTTC time="255.00" position="1922.89,18.15" type="3" value="3.51"/>
        <maxDRAC time="253.00" position="1922.89,18.15" type="3" value="2.37"/>
    </conflict>
    <conflict begin="230.00" end="278.00" ego="EW.23" foe="EW.20">
        <minTTC time="245.00" position="2715.77,21.96" type="2" value="1.96"/>
        <maxDRAC time="245.00" position="2715.77,21.96" type="2" value="2.77"/>
    </conflict>
    <conflict begin="250.00" end="279.00" ego="WE.4" foe="WE.5">
        <minTTC time="260.00" position="274.88,6.93" type="3" value="2.07"/>
        <maxDRAC time="259.00" position="272.22,6.92" type="3" value="2.83"/>
    </conflict>
    <conflict begin="250.00" end="279.00" ego="WE.5" foe="WE.4">
        <minTTC time="260.00" position="274.88,6.93" type="2" value="2.07"/>
        <maxDRAC time="259.00" position="272.22,6.92" type="2" value="2.83"/>
    </conflict>
    <conflict begin="250.00" end="282.00" ego="EW.25" foe="EW.24">
        <minTTC time="261.00" position="2765.01,22.20" type="2" value="3.56"/>
        <maxDRAC time="261.00" position="2765.01,22.20" type="2" value="1.40"/>
    </conflict>
    <conflict begin="272.00" end="281.00" ego="EW.15" foe="EW.12">
        <minTTC time="273.00" position="1747.45,17.31" type="2" value="3.97"/>
        <maxDRAC time="273.00" position="1747.45,17.31" type="2" value="0.70"/>
    </conflict>
    <conflict begin="252.00" end="288.00" ego="EW.5" foe="EW.12">
        <minTTC time="281.00" position="1665.30,16.91" type="3" value="4.58"/>
        <maxDRAC time="279.00" position="1675.33,16.96" type="3" value="0.32"/>
    </conflict>
    <conflict begin="252.00" end="288.00" ego="EW.12" foe="EW.5">
        <minTTC time="281.00" position="1665.30,16.91" type="2" value="4.58"/>
        <maxDRAC time="279.00" position="1675.33,16.96" type="2" value="0.32"/>
    </conflict>
    <conflict begin="272.00" end="281.00" ego="EW.12" foe="EW.15">
        <minTTC time="273.00" position="1747.45,17.31" type="3" value="3.97"/>
        <maxDRAC time="273.00" position="1747.45,17.31" type="3" value="0.70"/>
    </conflict>
    <conflict begin="262.00" end="289.00" ego="EW.22" foe="EW.23">
        <minTTC time="282.00" position="2434.58,17.31" type="3" value="4.00"/>
        <maxDRAC time="282.00" position="2434.58,17.31" type="3" value="1.23"/>
    </conflict>
    <conflict begin="255.00" end="289.00" ego="EW.23" foe="EW.25">
        <minTTC time="272.00" position="2601.89,21.41" type="3" value="2.37"/>
        <maxDRAC time="269.00" position="2615.07,21.48" type="3" value="2.84"/>
    </conflict>
    <conflict begin="262.00" end="289.00" ego="EW.23" foe="EW.22">
        <minTTC time="282.00" position="2434.58,17.31" type="2" value="4.00"/>
        <maxDRAC time="282.00" position="2434.58,17.31" type="2" value="1.23"/>
    </conflict>
    <conflict begin="255.00" end="289.00" ego="EW.25" foe="EW.23">
        <minTTC time="272.00" position="2601.89,21.41" type="2" value="2.37"/>
        <maxDRAC time="269.00" position="2615.07,21.48" type="2" value="2.84"/>
    </conflict>
    <conflict begin="258.00" end="282.00" ego="EW.25" foe="EW.20">
        <minTTC time="276.00" position="2569.40,21.26" type="2" value="2.58"/>
        <maxDRAC time="269.00" position="2602.18,21.41" type="2" value="2.07"/>
    </conflict>
    <conflict begin="234.00" end="254.00" ego="EW.7" foe="EW.18">
        <minTTC time="249.00" position="2230.35,19.63" type="3" value="2.66"/>
        <maxDRAC time="249.00" position="2230.35,19.63" type="3" value="0.99"/>
    </conflict>
    <conflict begin="285.00" end="304.00" ego="EW.23" foe="EW.21">
        <minTTC time="286.00" position="2405.77,20.47" type="2" value="3.09"/>
        <maxDRAC time="286.00" position="2405.77,20.47" type="2" value="1.07"/>
    </conflict>
    <conflict begin="299.00" end="308.00" ego="EW.27" foe="EW.19">
        <minTTC time="303.00" position="2292.25,19.92" type="2" value="3.30"/>
        <maxDRAC time="303.00" position="2292.25,19.92" type="2" value="2.70"/>
    </conflict>
    <conflict begin="299.00" end="308.00" ego="EW.27" foe="EW.21">
        <minTTC time="303.00" position="2302.63,19.97" type="2" value="2.69"/>
        <maxDRAC time="303.00" position="2302.63,19.97" type="2" value="3.36"/>
    </conflict>
    <conflict begin="299.00" end="308.00" ego="EW.27" foe="EW.4">
        <minTTC time="303.00" position="2282.04,19.88" type="2" value="3.74"/>
        <maxDRAC time="303.00" position="2282.04,19.88" type="2" value="2.47"/>
    </conflict>
    <conflict begin="241.00" end="319.00" ego="EW.4" foe="EW.19">
        <minTTC time="298.00" position="2294.38,19.94" type="3" value="2.68"/>
        <maxDRAC time="296.00" position="2299.30,19.96" type="3" value="0.60"/>
    </conflict>
    <conflict begin="241.00" end="319.00" ego="EW.19" foe="EW.4">
        <minTTC time="298.00" position="2294.38,19.94" type="2" value="2.68"/>
        <maxDRAC time="296.00" position="2299.30,19.96" type="2" value="0.60"/>
    </conflict>
    <conflict begin="245.00" end="319.00" ego="EW.19" foe="EW.21">
        <minTTC time="302.00" position="2295.04,19.94" type="3" value="2.83"/>
        <maxDRAC time="302.00" position="2295.04,19.94" type="3" value="0.32"/>
    </conflict>
    <conflict begin="299.00" end="308.00" ego="EW.19" foe="EW.27">
        <minTTC time="303.00" position="2292.25,19.92" type="3" value="3.30"/>
        <maxDRAC time="303.00" position="2292.25,19.92" type="3" value="2.70"/>
    </conflict>
    <conflict begin="210.00" end="241.00" ego="EW.20" foe="EW.21">
        <minTTC time="225.00" position="2807.72,22.40" type="3" value="4.23"/>
        <maxDRAC time="225.00" position="2807.72,22.40" type="3" value="0.36"/>
    </conflict>
    <conflict begin="220.00" end="248.00" ego="EW.20" foe="EW.22">
        <minTTC time="242.00" position="2727.57,22.02" type="3" value="3.34"/>
        <maxDRAC time="242.00" position="2727.57,22.02" type="3" value="0.65"/>
    </conflict>
    <conflict begin="230.00" end="278.00" ego="EW.20" foe="EW.23">
        <minTTC time="245.00" position="2715.77,21.96" type="3" value="1.96"/>
        <maxDRAC time="245.00" position="2715.77,21.96" type="3" value="2.77"/>
    </conflict>
    <conflict begin="245.00" end="319.00" ego="EW.21" foe="EW.19">
        <minTTC time="302.00" position="2295.04,19.94" type="2" value="2.83"/>
        <maxDRAC time="302.00" position="2295.04,19.94" type="2" value="0.32"/>
    </conflict>
    <conflict begin="259.00" end="323.00" ego="EW.5" foe="EW.14">
        <minTTC time="292.00" position="1604.94,16.62" type="3" value="4.15"/>
        <maxDRAC time="292.00" position="1604.94,16.62" type="3" value="0.45"/>
    </conflict>
    <conflict begin="259.00" end="323.00" ego="EW.14" foe="EW.5">
        <minTTC time="292.00" position="1604.94,16.62" type="2" value="4.15"/>
        <maxDRAC time="292.00" position="1604.94,16.62" type="2" value="0.45"/>
    </conflict>
    <conflict begin="292.00" end="333.00" ego="EW.5" foe="EW.18">
        <minTTC time="328.00" position="1406.69,15.67" type="3" value="3.15"/>
        <maxDRAC time="328.00" position="1406.69,15.67" type="3" value="0.87"/>
    </conflict>
    <conflict begin="292.00" end="333.00" ego="EW.18" foe="EW.5">
        <minTTC time="328.00" position="1406.69,15.67" type="2" value="3.15"/>
        <maxDRAC time="328.00" position="1406.69,15.67" type="2" value="0.87"/>
    </conflict>
    <conflict begin="240.00" end="342.00" ego="EW.20" foe="EW.24">
        <minTTC time="293.00" position="2491.21,20.88" type="3" value="2.93"/>
        <maxDRAC time="293.00" position="2491.21,20.88" type="3" value="0.74"/>
    </conflict>
    <conflict begin="240.00" end="342.00" ego="EW.24" foe="EW.20">
        <minTTC time="293.00" position="2491.21,20.88" type="2" value="2.93"/>
        <maxDRAC time="293.00" position="2491.21,20.88" type="2" value="0.74"/>
    </conflict>
    <conflict begin="250.00" end="282.00" ego="EW.24" foe="EW.25">
        <minTTC time="261.00" position="2765.01,22.20" type="3" value="3.56"/>
        <maxDRAC time="261.00" position="2765.01,22.20" type="3" value="1.40"/>
    </conflict>
    <conflict begin="260.00" end="342.00" ego="EW.24" foe="EW.26">
        <minTTC time="295.00" position="2496.37,20.91" type="3" value="3.48"/>
        <maxDRAC time="295.00" position="2496.37,20.91" type="3" value="0.95"/>
    </conflict>
    <conflict begin="307.00" end="342.00" ego="EW.24" foe="EW.28">
        <minTTC time="331.00" position="2325.75,20.09" type="3" value="4.56"/>
        <maxDRAC time="331.00" position="2325.75,20.09" type="3" value="0.80"/>
    </conflict>
    <conflict begin="260.00" end="342.00" ego="EW.26" foe="EW.24">
        <minTTC time="295.00" position="2496.37,20.91" type="2" value="3.48"/>
        <maxDRAC time="295.00" position="2496.37,20.91" type="2" value="0.95"/>
    </conflict>
    <conflict begin="309.00" end="344.00" ego="WE.3" foe="WE.5">
        <minTTC time="319.00" position="1540.68,13.01" type="3" value="3.71"/>
        <maxDRAC time="319.00" position="1540.68,13.01" type="3" value="1.92"/>
    </conflict>
    <conflict begin="309.00" end="344.00" ego="WE.5" foe="WE.3">
        <minTTC time="319.00" position="1540.68,13.01" type="2" value="3.71"/>
        <maxDRAC time="319.00" position="1540.68,13.01" type="2" value="1.92"/>
    </conflict>
    <conflict begin="331.00" end="336.00" ego="WE.5" foe="EW.13">
        <minTTC time="334.00" position="1857.21,14.54" type="20" value="4.05"/>
        <maxDRAC time="NA" position="NA" type="NA" value="NA"/>
    </conflict>
    <conflict begin="340.00" end="342.00" ego="WE.5" foe="EW.27">
        <minTTC time="340.00" position="2021.06,15.32" type="20" value="4.78"/>