<?xml version="1.0" encoding="UTF-8"?>

<!-- generated on 2022-02-08 11:26:41 by Eclipse SUMO sumo Version v1_12_0+0353-0cd4bcd
This data file and the accompanying materials
are made available under the terms of the Eclipse Public License v2.0
which accompanies this distribution, and is available at
http://www.eclipse.org/legal/epl-v20.html
This file may also be made available under the following Secondary
Licenses when the conditions for such availability set forth in the Eclipse
Public License 2.0 are satisfied: GNU General Public License, version 2
or later which is available at
https://www.gnu.org/licenses/old-licenses/gpl-2.0-standalone.html
SPDX-License-Identifier: EPL-2.0 OR GPL-2.0-or-later
<configuration xmlns:xsi="http://www.w3.org/2001/XMLSchema-instance" xsi:noNamespaceSchemaLocation="http://sumo.dlr.de/xsd/sumoConfiguration.xsd">

    <input>
        <net-file value="net.net.xml"/>
        <route-files value="input_routes.rou.xml"/>
    </input>

    <output>
        <write-license value="true"/>
    </output>

    <processing>
        <default.speeddev value="0"/>
    </processing>

    <report>
        <xml-validation value="never"/>
        <xml-validation.routes value="never"/>
        <no-step-log value="true"/>
    </report>

    <ssm_device>
        <device.ssm.probability value="1"/>
        <device.ssm.measures value="TTC DRAC"/>
        <device.ssm.thresholds value="5 3"/>
        <device.ssm.range value="200"/>
        <device.ssm.file value="ssm.xml"/>
    </ssm_device>

</configuration>
-->

<SSMLog>
    <conflict begin="20.00" end="33.00" ego="EW.2" foe="EW.0">
        <minTTC time="27.00" position="2855.21,22.63" type="2" value="4.74"/>
        <maxDRAC time="27.00" position="2855.21,22.63" type="2" value="0.52"/>
    </conflict>
    <conflict begin="30.00" end="56.00" ego="EW.3" foe="EW.0">
        <minTTC time="51.00" position="2655.31,21.67" type="2" value="4.47"/>
        <maxDRAC time="51.00" position="2655.31,21.67" type="2" value="0.57"/>
    </conflict>
    <conflict begin="50.00" end="61.00" ego="EW.5" foe="EW.4">
        <minTTC time="55.00" position="2886.68,22.78" type="2" value="3.72"/>
        <maxDRAC time="55.00" position="2886.68,22.78" type="2" value="0.37"/>
    </conflict>
    <conflict begin="60.00" end="72.00" ego="EW.6" foe="EW.4">
        <minTTC time="67.00" position="2858.24,22.64" type="2" value="2.58"/>
        <maxDRAC time="67.00" position="2858.24,22.64" type="2" value="1.10"/>
    </conflict>
    <conflict begin="20.00" end="36.00" ego="EW.0" foe="EW.2">
        <minTTC time="27.00" position="2855.21,22.63" type="3" value="4.74"/>
        <maxDRAC time="27.00" position="2855.21,22.63" type="3" value="0.52"/>
    </conflict>
    <conflict begin="30.00" end="56.00" ego="EW.0" foe="EW.3">
        <minTTC time="51.00" position="2655.31,21.67" type="3" value="4.47"/>
        <maxDRAC time="51.00" position="2655.31,21.67" type="3" value="0.57"/>
    </conflict>
    <conflict begin="90.00" end="103.00" ego="EW.9" foe="EW.7">
        <minTTC time="98.00" position="2819.71,22.46" type="2" value="2.91"/>
        <maxDRAC time="98.00" position="2819.71,22.46" type="2" value="1.58"/>
    </conflict>
    <conflict begin="100.00" end="115.00" ego="EW.10" foe="EW.4">
        <minTTC time="110.00" position="2751.44,22.13" type="2" value="3.71"/>
        <maxDRAC time="110.00" position="2751.44,22.13" type="2" value="2.18"/>
    </conflict>
    <conflict begin="100.00" end="115.00" ego="EW.10" foe="EW.7">
        <minTTC time="110.00" position="2771.34,22.23" type="2" value="2.88"/>
        <maxDRAC time="110.00" position="2771.34,22.23" type="2" value="2.42"/>
    </conflict>
    <conflict begin="70.00" end="122.00" ego="EW.7" foe="EW.4">
        <minTTC time="117.00" position="2733.61,22.04" type="2" value="3.93"/>
        <maxDRAC time="113.00" position="2743.97,22.09" type="2" value="0.23"/>
    </conflict>
    <conflict begin="90.00" end="104.00" ego="EW.7" foe="EW.9">
        <minTTC time="98.00" position="2819.71,22.46" type="3" value="2.91"/>
        <maxDRAC time="98.00" position="2819.71,22.46" type="3" value="1.58"/>
    </conflict>
    <conflict begin="100.00" end="115.00" ego="EW.7" foe="EW.10">
        <minTTC time="110.00" position="2771.34,22.23" type="3" value="2.88"/>
        <maxDRAC time="110.00" position="2771.34,22.23" type="3" value="2.42"/>
    </conflict>
    <conflict begin="50.00" end="132.00" ego="EW.4" foe="EW.5">
        <minTTC time="55.00" position="2886.68,22.78" type="3" value="3.72"/>
        <maxDRAC time="55.00" position="2886.68,22.78" type="3" value="0.37"/>
    </conflict>
    <conflict begin="60.00" end="80.00" ego="EW.4" foe="EW.6">
        <minTTC time="67.00" position="2858.24,22.64" type="3" value="2.58"/>
        <maxDRAC time="67.00" position="2858.24,22.64" type="3" value="1.10"/>
    </conflict>
    <conflict begin="70.00" end="122.00" ego="EW.4" foe="EW.7">
        <minTTC time="117.00" position="2733.61,22.04" type="3" value="3.93"/>
        <maxDRAC time="113.00" position="2743.97,22.09" type="3" value="0.23"/>
    </conflict>
    <conflict begin="100.00" end="115.00" ego="EW.4" foe="EW.10">
        <minTTC time="110.00" position="2751.44,22.13" type="3" value="3.71"/>
        <maxDRAC time="110.00" position="2751.44,22.13" type="3" value="2.18"/>
    </conflict>
    <conflict begin="110.00" end="135.00" ego="EW.4" foe="EW.11">
        <minTTC time="130.00" position="2703.54,21.90" type="3" value="1.88"/>
        <maxDRAC time="130.00" position="2703.54,21.90" type="3" value="2.48"/>
    </conflict>
    <conflict begin="110.00" end="135.00" ego="EW.11" foe="EW.4">
        <minTTC time="130.00" position="2703.54,21.90" type="2" value="1.88"/>
        <maxDRAC time="130.00" position="2703.54,21.90" type="2" value="2.48"/>
    </conflict>
    <conflict begin="123.00" end="148.00" ego="EW.9" foe="EW.6">
        <minTTC time="139.00" position="2271.48,19.83" type="2" value="4.79"/>
        <maxDRAC time="139.00" position="2271.48,19.83" type="2" value="0.57"/>
    </conflict>
    <conflict begin="132.00" end="152.00" ego="EW.10" foe="EW.6">
        <minTTC time="147.00" position="2204.26,19.50" type="2" value="4.25"/>
        <maxDRAC time="147.00" position="2204.26,19.50" type="2" value="0.59"/>
    </conflict>
    <conflict begin="123.00" end="148.00" ego="EW.6" foe="EW.9">
        <minTTC time="139.00" position="2271.48,19.83" type="3" value="4.79"/>
        <maxDRAC time="139.00" position="2271.48,19.83" type="3" value="0.57"/>
    </conflict>
    <conflict begin="132.00" end="152.00" ego="EW.6" foe="EW.10">
        <minTTC time="147.00" position="2204.26,19.50" type="3" value="4.25"/>
        <maxDRAC time="147.00" position="2204.26,19.50" type="3" value="0.59"/>
    </conflict>
    <conflict begin="140.00" end="158.00" ego="EW.14" foe="EW.13">
        <minTTC time="152.00" position="2813.19,22.43" type="2" value="3.78"/>
        <maxDRAC time="152.00" position="2813.19,22.43" type="2" value="0.56"/>
    </conflict>
    <conflict begin="157.00" end="162.00" ego="WE.0" foe="EW.12">
        <minTTC time="160.00" position="2577.24,17.99" type="20" value="3.81"/>
        <maxDRAC time="NA" position="NA" type="NA" value="NA"/>
    </conflict>
    <conflict begin="163.00" end="168.00" ego="WE.0" foe="EW.15">
        <minTTC time="166.00" position="2669.42,18.44" type="20" value="2.57"/>
        <maxDRAC time="NA" position="NA" type="NA" value="NA"/>
    </conflict>
    <conflict begin="166.00" end="170.00" ego="WE.1" foe="EW.9">
        <minTTC time="168.00" position="1860.61,14.55" type="20" value="4.54"/>
        <maxDRAC time="NA" position="NA" type="NA" value="NA"/>
    </conflict>
    <conflict begin="166.00" end="170.00" ego="EW.9" foe="WE.1">
        <minTTC time="168.00" position="1860.61,14.55" type="20" value="4.54"/>
        <maxDRAC time="NA" position="NA" type="NA" value="NA"/>
    </conflict>
    <conflict begin="169.00" end="173.00" ego="WE.1" foe="EW.10">
        <minTTC time="171.00" position="1875.16,14.62" type="20" value="3.18"/>
        <maxDRAC time="NA" position="NA" type="NA" value="NA"/>
    </conflict>
    <conflict begin="120.00" end="174.00" ego="EW.4" foe="EW.12">
        <minTTC time="156.00" position="2640.07,21.60" type="3" value="2.42"/>
        <maxDRAC time="156.00" position="2640.07,21.60" type="3" value="1.03"/>
    </conflict>
    <conflict begin="131.00" end="174.00" ego="EW.7" foe="EW.12">
        <minTTC time="169.00" position="2538.74,21.11" type="3" value="4.06"/>
        <maxDRAC time="169.00" position="2538.74,21.11" type="3" value="0.43"/>
    </conflict>
    <conflict begin="120.00" end="174.00" ego="EW.12" foe="EW.4">
        <minTTC time="156.00" position="2640.07,21.60" type="2" value="2.42"/>
        <maxDRAC time="156.00" position="2640.07,21.60" type="2" value="1.03"/>
    </conflict>
    <conflict begin="131.00" end="174.00" ego="EW.12" foe="EW.7">
        <minTTC time="169.00" position="2538.74,21.11" type="2" value="4.06"/>
        <maxDRAC time="169.00" position="2538.74,21.11" type="2" value="0.43"/>
    </conflict>
    <conflict begin="157.00" end="162.00" ego="EW.12" foe="WE.0">
        <minTTC time="160.00" position="2577.24,17.99" type="20" value="3.81"/>
        <maxDRAC time="NA" position="NA" type="NA" value="NA"/>
    </conflict>
    <conflict begin="150.00" end="174.00" ego="EW.15" foe="EW.13">
        <minTTC time="161.00" position="2766.83,22.20" type="2" value="3.03"/>
        <maxDRAC time="160.00" position="2772.39,22.23" type="2" value="1.89"/>
    </conflict>
    <conflict begin="159.00" end="174.00" ego="EW.15" foe="EW.4">
        <minTTC time="169.00" position="2607.48,21.44" type="2" value="2.38"/>
        <maxDRAC time="169.00" position="2607.48,21.44" type="2" value="3.99"/>
    </conflict>
    <conflict begin="143.00" end="175.00" ego="EW.5" foe="EW.11">
        <minTTC time="167.00" position="2287.53,19.90" type="3" value="3.46"/>
        <maxDRAC time="167.00" position="2287.53,19.90" type="3" value="0.86"/>
    </conflict>
    <conflict begin="143.00" end="175.00" ego="EW.11" foe="EW.5">
        <minTTC time="167.00" position="2287.53,19.90" type="2" value="3.46"/>
        <maxDRAC time="167.00" position="2287.53,19.90" type="2" value="0.86"/>
    </conflict>
    <conflict begin="159.00" end="179.00" ego="EW.10" foe="stopping">
        <minTTC time="167.00" position="1922.89,18.15" type="2" value="1.28"/>
        <maxDRAC time="165.00" position="1922.89,18.15" type="2" value="4.86"/>
    </conflict>
    <conflict begin="157.00" end="183.00" ego="stopping" foe="EW.6">
        <minTTC time="178.00" position="1922.89,18.15" type="3" value="2.25"/>
        <maxDRAC time="178.00" position="1922.89,18.15" type="3" value="1.78"/>
    </conflict>
    <conflict begin="159.00" end="179.00" ego="stopping" foe="EW.10">
        <minTTC time="167.00" position="1922.89,18.15" type="3" value="1.28"/>
        <maxDRAC time="165.00" position="1922.89,18.15" type="3" value="4.86"/>
    </conflict>
    <conflict begin="157.00" end="183.00" ego="EW.6" foe="stopping">
        <minTTC time="178.00" position="1922.89,18.15" type="2" value="2.25"/>
        <maxDRAC time="178.00" position="1922.89,18.15" type="2" value="1.78"/>
    </conflict>
    <conflict begin="160.00" end="185.00" ego="EW.16" foe="EW.13">
        <minTTC time="180.00" position="2669.17,21.74" type="2" value="3.05"/>
        <maxDRAC time="180.00" position="2669.17,21.74" type="2" value="1.37"/>
    </conflict>
    <conflict begin="169.00" end="173.00" ego="EW.10" foe="WE.1">
        <minTTC time="171.00" position="1875.16,14.62" type="20" value="3.18"/>
        <maxDRAC time="NA" position="NA" type="NA" value="NA"/>
    </conflict>
    <conflict begin="182.00" end="201.00" ego="EW.10" foe="EW.0">
        <minTTC time="196.00" position="1429.35,15.78" type="2" value="3.84"/>
        <maxDRAC time="196.00" position="1429.35,15.78" type="2" value="1.28"/>
    </conflict>
    <conflict begin="161.00" end="201.00" ego="EW.12" foe="EW.15">
        <minTTC time="177.00" position="2487.38,17.56" type="3" value="4.04"/>
        <maxDRAC time="174.00" position="2510.96,17.68" type="3" value="1.31"/>
    </conflict>
    <conflict begin="161.00" end="201.00" ego="EW.15" foe="EW.12">
        <minTTC time="177.00" position="2487.38,17.56" type="2" value="4.04"/>
        <maxDRAC time="174.00" position="2510.96,17.68" type="2" value="1.31"/>
    </conflict>
    <conflict begin="163.00" end="168.00" ego="EW.15" foe="WE.0">
        <minTTC time="166.00" position="2669.42,18.44" type="20" value="2.57"/>
        <maxDRAC time="NA" position="NA" type="NA" value="NA"/>
    </conflict>
    <conflict begin="162.00" end="202.00" ego="EW.14" foe="EW.16">
        <minTTC time="197.00" position="2458.75,20.72" type="3" value="4.49"/>
        <maxDRAC time="197.00" position="2458.75,20.72" type="3" value="0.52"/>
    </conflict>
    <conflict begin="162.00" end="202.00" ego="EW.16" foe="EW.14">
        <minTTC time="197.00" position="2458.75,20.72" type="2" value="4.49"/>
        <maxDRAC time="197.00" position="2458.75,20.72" type="2" value="0.52"/>
    </conflict>
    <conflict begin="188.00" end="202.00" ego="EW.16" foe="EW.4">
        <minTTC time="189.00" position="2555.76,21.19" type="2" value="2.73"/>
        <maxDRAC time="189.00" position="2555.76,21.19" type="2" value="1.74"/>
    </conflict>
    <conflict begin="188.00" end="202.00" ego="EW.16" foe="EW.7">
        <minTTC time="197.00" position="2432.69,20.60" type="2" value="4.69"/>
        <maxDRAC time="197.00" position="2432.69,20.60" type="2" value="1.07"/>
    </conflict>
    <conflict begin="170.00" end="203.00" ego="EW.17" foe="EW.13">
        <minTTC time="198.00" position="2575.79,21.29" type="2" value="3.53"/>
        <maxDRAC time="198.00" position="2575.79,21.29" type="2" value="0.96"/>
    </conflict>
    <conflict begin="200.00" end="205.00" ego="WE.1" foe="EW.16">
        <minTTC time="203.00" position="2350.97,16.91" type="20" value="3.95"/>
        <maxDRAC time="NA" position="NA" type="NA" value="NA"/>
    </conflict>
    <conflict begin="187.00" end="208.00" ego="EW.5" foe="EW.15">
        <minTTC time="196.00" position="2127.24,19.13" type="3" value="3.56"/>
        <maxDRAC time="196.00" position="2127.24,19.13" type="3" value="2.17"/>
    </conflict>
    <conflict begin="187.00" end="208.00" ego="EW.15" foe="EW.5">
        <minTTC time="196.00" position="2127.24,19.13" type="2" value="3.56"/>
        <maxDRAC time="196.00" position="2127.24,19.13" type="2" value="2.17"/>
    </conflict>
    <conflict begin="162.00" end="215.00" ego="EW.14" foe="EW.4">
        <minTTC time="180.00" position="2578.12,21.30" type="2" value="3.46"/>
        <maxDRAC time="180.00" position="2578.12,21.30" type="2" value="0.77"/>
    </conflict>
    <conflict begin="162.00" end="215.00" ego="EW.14" foe="EW.7">
        <minTTC time="199.00" position="2424.19,20.56" type="2" value="3.25"/>
        <maxDRAC time="197.00" position="2432.69,20.60" type="2" value="0.68"/>
    </conflict>
    <conflict begin="180.00" end="221.00" ego="EW.0" foe="EW.9">
        <minTTC time="216.00" position="1259.69,14.97" type="3" value="4.49"/>
        <maxDRAC time="215.00" position="1268.43,15.01" type="3" value="0.57"/>
    </conflict>
    <conflict begin="182.00" end="201.00" ego="EW.0" foe="EW.10">
        <minTTC time="196.00" position="1429.35,15.78" type="3" value="3.84"/>
        <maxDRAC time="196.00" position="1429.35,15.78" type="3" value="1.28"/>
    </conflict>
    <conflict begin="180.00" end="221.00" ego="EW.9" foe="EW.0">
        <minTTC time="216.00" position="1259.69,14.97" type="2" value="4.49"/>
        <maxDRAC time="215.00" position="1268.43,15.01" type="2" value="0.57"/>
    </conflict>
    <conflict begin="137.00" end="222.00" ego="EW.13" foe="EW.4">
        <minTTC time="210.00" position="2502.74,20.94" type="2" value="2.85"/>
        <maxDRAC time="209.00" position="2504.95,20.95" type="2" value="0.49"/>
    </conflict>
    <conflict begin="140.00" end="158.00" ego="EW.13" foe="EW.14">
        <minTTC time="152.00" position="2813.19,22.43" type="3" value="3.78"/>
        <maxDRAC time="152.00" position="2813.19,22.43" type="3" value="0.56"/>
    </conflict>
    <conflict begin="150.00" end="174.00" ego="EW.13" foe="EW.15">
        <minTTC time="161.00" position="2766.83,22.20" type="3" value="3.03"/>
        <maxDRAC time="160.00" position="2772.39,22.23" type="3" value="1.89"/>
    </conflict>
    <conflict begin="160.00" end="185.00" ego="EW.13" foe="EW.16">
        <minTTC time="180.00" position="2669.17,21.74" type="3" value="3.05"/>
        <maxDRAC time="180.00" position="2669.17,21.74" type="3" value="1.37"/>
    </conflict>
    <conflict begin="170.00" end="203.00" ego="EW.13" foe="EW.17">
        <minTTC time="198.00" position="2575.79,21.29" type="3" value="3.53"/>
        <maxDRAC time="198.00" position="2575.79,21.29" type="3" value="0.96"/>
    </conflict>
    <conflict begin="206.00" end="223.00" ego="EW.14" foe="EW.17">
        <minTTC time="217.00" position="2330.58,16.81" type="3" value="4.92"/>
        <maxDRAC time="209.00" position="2399.25,20.44" type="3" value="0.67"/>
    </conflict>
    <conflict begin="202.00" end="230.00" ego="EW.18" foe="EW.4">
        <minTTC time="225.00" position="2468.08,20.77" type="2" value="1.70"/>
        <maxDRAC time="224.00" position="2470.93,20.78" type="2" value="1.85"/>
    </conflict>
    <conflict begin="196.00" end="233.00" ego="stopping" foe="EW.5">
        <minTTC time="228.00" position="1922.89,18.15" type="3" value="4.16"/>
        <maxDRAC time="228.00" position="1922.89,18.15" type="3" value="0.68"/>
    </conflict>
    <conflict begin="196.00" end="233.00" ego="EW.5" foe="stopping">
        <minTTC time="228.00" position="1922.89,18.15" type="2" value="4.16"/>
        <maxDRAC time="228.00" position="1922.89,18.15" type="2" value="0.68"/>
    </conflict>
    <conflict begin="204.00" end="225.00" ego="EW.12" foe="EW.16">
        <minTTC time="220.00" position="2160.28,19.29" type="3" value="4.84"/>
        <maxDRAC time="219.00" position="2167.86,19.33" type="3" value="0.55"/>
    </conflict>
    <conflict begin="200.00" end="205.00" ego="EW.16" foe="WE.1">
        <minTTC time="203.00" position="2350.97,16.91" type="20" value="3.95"/>
        <maxDRAC time="NA" position="NA" type="NA" value="NA"/>
    </conflict>
    <conflict begin="204.00" end="225.00" ego="EW.16" foe="EW.12">
        <minTTC time="220.00" position="2160.28,19.29" type="2" value="4.84"/>
        <maxDRAC time="219.00" position="2167.86,19.33" type="2" value="0.55"/>
    </conflict>
    <conflict begin="206.00" end="223.00" ego="EW.17" foe="EW.14">
        <minTTC time="217.00" position="2330.58,16.81" type="2" value="4.92"/>
        <maxDRAC time="209.00" position="2399.25,20.44" type="2" value="0.67"/>
    </conflict>
    <conflict begin="206.00" end="220.00" ego="EW.17" foe="EW.7">
        <minTTC time="215.00" position="2363.77,20.27" type="2" value="2.71"/>
        <maxDRAC time="215.00" position="2363.77,20.27" type="2" value="1.62"/>
    </conflict>
    <conflict begin="220.00" end="241.00" ego="EW.21" foe="EW.22">
        <minTTC time="236.00" position="2768.22,22.21" type="3" value="5.00"/>
        <maxDRAC time="235.00" position="2773.03,22.23" type="3" value="0.46"/>
    </conflict>
    <conflict begin="220.00" end="241.00" ego="EW.22" foe="EW.21">
        <minTTC time="236.00" position="2768.22,22.21" type="2" value="5.00"/>
        <maxDRAC time="235.00" position="2773.03,22.23" type="2" value="0.46"/>
    </conflict>
    <conflict begin="220.00" end="248.00" ego="EW.22" foe="EW.20">
        <minTTC time="242.00" position="2727.43,22.02" type="2" value="3.24"/>
        <maxDRAC time="242.00" position="2727.43,22.02" type="2" value="0.56"/>
    </conflict>
    <conflict begin="230.00" end="248.00" ego="EW.22" foe="EW.23">
        <minTTC time="243.00" position="2738.24,22.07" type="3" value="2.66"/>
        <maxDRAC time="243.00" position="2738.24,22.07" type="3" value="1.77"/>
    </conflict>
    <conflict begin="230.00" end="248.00" ego="EW.23" foe="EW.22">
        <minTTC time="243.00" position="2738.24,22.07" type="2" value="2.66"/>
        <maxDRAC time="243.00" position="2738.24,22.07" type="2" value="1.77"/>
    </conflict>
    <conflict begin="233.00" end="254.00" ego="EW.18" foe="EW.7">
        <minTTC time="247.00" position="2241.66,19.68" type="2" value="2.19"/>
        <maxDRAC time="247.00" position="2241.66,19.68" type="2" value="1.50"/>
    </conflict>
    <conflict begin="245.00" end="260.00" ego="EW.17" foe="EW.12">
        <minTTC time="250.00" position="1920.86,14.84" type="2" value="4.81"/>
        <maxDRAC time="250.00" position="1920.86,14.84" type="2" value="0.48"/>
    </conflict>
    <conflict begin="245.00" end="260.00" ego="EW.12" foe="EW.17">
        <minTTC time="250.00" position="1920.86,14.84" type="3" value="4.81"/>
        <maxDRAC time="250.00" position="1920.86,14.84" type="3" value="0.48"/>
    </conflict>
    <conflict begin="137.00" end="222.00" ego="EW.4" foe="EW.13">
        <minTTC time="210.00" position="2502.74,20.94" type="3" value="2.85"/>
        <maxDRAC time="209.00" position="2504.95,20.95" type="3" value="0.49"/>
    </conflict>
    <conflict begin="159.00" end="174.00" ego="EW.4" foe="EW.15">
        <minTTC time="169.00" position="2607.48,21.44" type="3" value="2.38"/>
        <maxDRAC time="169.00" position="2607.48,21.44" type="3" value="3.99"/>
    </conflict>
    <conflict begin="162.00" end="215.00" ego="EW.4" foe="EW.14">
        <minTTC time="180.00" position="2578.12,21.30" type="3" value="3.46"/>
        <maxDRAC time="180.00" position="2578.12,21.30" type="3" value="0.77"/>
    </conflict>
    <conflict begin="188.00" end="202.00" ego="EW.4" foe="EW.16">
        <minTTC time="189.00" position="2555.76,21.19" type="3" value="2.73"/>
        <maxDRAC time="189.00" position="2555.76,21.19" type="3" value="1.74"/>
    </conflict>
    <conflict begin="202.00" end="230.00" ego="EW.4" foe="EW.18">
        <minTTC time="225.00" position="2468.08,20.77" type="3" value="1.70"/>
        <maxDRAC time="224.00" position="2470.93,20.78" type="3" value="1.85"/>
    </conflict>
    <conflict begin="162.00" end="215.00" ego="EW.7" foe="EW.14">
        <minTTC time="199.00" position="2424.19,20.56" type="3" value="3.25"/>
        <maxDRAC time="197.00" position="2432.69,20.60" type="3" value="0.68"/>
    </conflict>
    <conflict begin="188.00" end="202.00" ego="EW.7" foe="EW.16">
        <minTTC time="197.00" position="2432.69,20.60" type="3" value="4.69"/>
        <maxDRAC time="197.00" position="2432.69,20.60" type="3" value="1.07"/>
    </conflict>
    <conflict begin="206.00" end="220.00" ego="EW.7" foe="EW.17">
        <minTTC time="215.00" position="2363.77,20.27" type="3" value="2.71"/>
        <maxDRAC time="215.00" position="2363.77,20.27" type="3" value="1.62"/>
    </conflict>
    <conflict begin="250.00" end="280.00" ego="WE.4" foe="WE.5">
        <minTTC time="260.00" position="272.56,6.92" type="3" value="1.62"/>
        <maxDRAC time="259.00" position="270.55,6.91" type="3" value="3.76"/>
    </conflict>
    <conflict begin="250.00" end="280.00" ego="WE.5" foe="WE.4">
        <minTTC time="260.00" position="272.56,6.92" type="2" value="1.62"/>
        <maxDRAC time="259.00" position="270.55,6.91" type="2" value="3.76"/>
    </conflict>
    <conflict begin="256.00" end="283.00" ego="EW.25" foe="EW.23">
        <minTTC time="269.00" position="2621.78,21.51" type="2" value="2.63"/>
        <maxDRAC time="266.00" position="2636.41,21.58" type="2" value="2.40"/>
    </conflict>
    <conflict begin="258.00" end="281.00" ego="EW.25" foe="EW.20">
        <minTTC time="276.00" position="2575.83,21.29" type="2" value="2.35"/>
        <maxDRAC time="266.00" position="2622.65,21.51" type="2" value="1.81"/>
    </conflict>
    <conflict begin="249.00" end="287.00" ego="EW.0" foe="EW.15">
        <minTTC time="261.00" position="877.90,13.13" type="3" value="4.07"/>
        <maxDRAC time="261.00" position="877.90,13.13" type="3" value="1.50"/>
    </conflict>
    <conflict begin="249.00" end="287.00" ego="EW.15" foe="EW.0">
        <minTTC time="261.00" position="877.90,13.13" type="2" value="4.07"/>
        <maxDRAC time="261.00" position="877.90,13.13" type="2" value="1.50"/>
    </conflict>
    <conflict begin="255.00" end="291.00" ego="EW.5" foe="EW.12">
        <minTTC time="286.00" position="1631.94,16.75" type="3" value="3.75"/>
        <maxDRAC time="286.00" position="1631.94,16.75" type="3" value="0.41"/>
    </conflict>
    <conflict begin="255.00" end="291.00" ego="EW.12" foe="EW.5">
        <minTTC time="286.00" position="1631.94,16.75" type="2" value="3.75"/>
        <maxDRAC time="286.00" position="1631.94,16.75" type="2" value="0.41"/>
    </conflict>
    <conflict begin="270.00" end="292.00" ego="EW.27" foe="EW.26">
        <minTTC time="287.00" position="2623.45,21.52" type="2" value="4.44"/>
        <maxDRAC time="287.00" position="2623.45,21.52" type="2" value="0.96"/>
    </conflict>
    <conflict begin="246.00" end="294.00" ego="EW.21" foe="EW.23">
        <minTTC time="283.00" position="2432.72,20.60" type="3" value="3.33"/>
        <maxDRAC time="282.00" position="2439.87,20.63" type="3" value="1.60"/>
    </conflict>
    <conflict begin="230.00" end="294.00" ego="EW.23" foe="EW.20">
        <minTTC time="252.00" position="2686.94,21.82" type="2" value="0.76"/>
        <maxDRAC time="252.00" position="2686.94,21.82" type="2" value="3.06"/>
    </conflict>
    <conflict begin="240.00" end="296.00" ego="EW.24" foe="EW.20">
        <minTTC time="290.00" position="2511.19,20.98" type="2" value="4.37"/>
        <maxDRAC time="290.00" position="2511.19,20.98" type="2" value="0.37"/>
    </conflict>
    <conflict begin="270.00" end="292.00" ego="EW.26" foe="EW.27">
        <minTTC time="287.00" position="2623.45,21.52" type="3" value="4.44"/>
        <maxDRAC time="287.00" position="2623.45,21.52" type="3" value="0.96"/>
    </conflict>
    <conflict begin="233.00" end="254.00" ego="EW.7" foe="EW.18">
        <minTTC time="247.00" position="2241.66,19.68" type="3" value="2.19"/>
        <maxDRAC time="247.00" position="2241.66,19.68" type="3" value="1.50"/>
    </conflict>
    <conflict begin="243.00" end="323.00" ego="EW.4" foe="EW.19">
        <minTTC time="303.00" position="2276.68,19.85" type="3" value="2.58"/>
        <maxDRAC time="302.00" position="2278.57,19.86" type="3" value="0.63"/>
    </conflict>
    <conflict begin="243.00" end="323.00" ego="EW.19" foe="EW.4">
        <minTTC time="303.00" position="2276.68,19.85" type="2" value="2.58"/>
        <maxDRAC time="302.00" position="2278.57,19.86" type="2" value="0.63"/>
    </conflict>
    <conflict begin="220.00" end="248.00" ego="EW.20" foe="EW.22">
        <minTTC time="242.00" position="2727.43,22.02" type="3" value="3.24"/>
        <maxDRAC time="242.00" position="2727.43,22.02" type="3" value="0.56"/>
    </conflict>
    <conflict begin="230.00" end="294.00" ego="EW.20" foe="EW.23">
        <minTTC time="252.00" position="2686.94,21.82" type="3" value="0.76"/>
        <maxDRAC time="252.00" position="2686.94,21.82" type="3" value="3.06"/>
    </conflict>
    <conflict begin="240.00" end="296.00" ego="EW.20" foe="EW.24">
        <minTTC time="290.00" position="2511.19,20.98" type="3" value="4.37"/>
        <maxDRAC time="290.00" position="2511.19,20.98" type="3" value="0.37"/>
    </conflict>
    <conflict begin="258.00" end="281.00" ego="EW.20" foe="EW.25">
        <minTTC time="276.00" position="2575.83,21.29" type="3" value="2.35"/>
        <maxDRAC time="266.00" position="2622.65,21.51" type="3" value="1.81"/>
    </conflict>
    <conflict begin="267.00" end="324.00" ego="EW.5" foe="EW.14">
        <minTTC time="317.00" position="1463.86,15.95" type="3" value="4.72"/>
        <maxDRAC time="313.00" position="1485.62,16.05" type="3" value="0.31"/>
    </conflict>
    <conflict begin="267.00" end="324.00" ego="EW.14" foe="EW.5">
        <minTTC time="317.00" position="1463.86,15.95" type="2" value="4.72"/>
        <maxDRAC time="313.00" position="1485.62,16.05" type="2" value="0.31"/>
    </conflict>
    <conflict begin="293.00" end="334.00" ego="EW.5" foe="EW.18">
        <minTTC time="328.00" position="1405.38,15.67" type="3" value="2.89"/>
        <maxDRAC time="328.00" position="1405.38,15.67" type="3" value="1.26"/>
    </conflict>
    <conflict begin="293.00" end="334.00" ego="EW.18" foe="EW.5">
        <minTTC time="328.00" position="1405.38,15.67" type="2" value="2.89"/>
        <maxDRAC time="328.00" position="1405.38,15.67" type="2" value="1.26"/>
    </conflict>
    <conflict begin="246.00" end="294.00" ego="EW.23" foe="EW.21">
        <minTTC time="283.00" position="2432.72,20.60" type="2" value="3.33"/>
        <maxDRAC time="282.00" position="2439.87,20.63" type="2" value="1.60"/>
    </conflict>
    <conflict begin="256.00" end="283.00" ego="EW.23" foe="EW.25">
        <minTTC time="269.00" position="2621.78,21.51" type="3" value="2.63"/>
        <maxDRAC time="266.00" position="2636.41,21.58" type="3" value="2.40"/>
    </conflict>
    <conflict begin="330.00" end="344.00" ego="EW.32" foe="EW.33">
        <minTTC time="339.00" position="2812.17,22.42" type="3" value="4.07"/>
        <maxDRAC time="338.00" position="2818.72,22.45" type="3" value="0.83"/>
    </conflict>
    <conflict begin="330.00" end="344.00" ego="EW.33" foe="EW.32">
        <minTTC time="339.00" position="2812.17,22.42" type="2" value="4.07"/>
        <maxDRAC time="338.00" position="2818.72,22.45" type="2" value="0.83"/>
    </conflict>
    <conflict begin="311.00" end="346.00" ego="WE.3" foe="WE.5">
        <minTTC time="322.00" position="1568.84,13.15" type="3" value="3.94"/>