<?xml version="1.0" encoding="UTF-8"?>

<!-- generated on 11.12.2019 09:10:29 by Eclipse SUMO netedit Version v1_4_0+0017-d2e7b7ff2f
<configuration xmlns:xsi="http://www.w3.org/2001/XMLSchema-instance" xsi:noNamespaceSchemaLocation="http://sumo.dlr.de/xsd/netconvertConfiguration.xsd">

    <input>
        <sumo-net-file value="C:\Users\alva_pa\.texttest\tmp\netedit.gui.11Dec090724.13908\netedit.gui\demandElements\stop\stopLane\create\until\input_net.net.xml"/>
    </input>

    <output>
        <output-file value="C:\Users\alva_pa\.texttest\tmp\netedit.gui.11Dec090724.13908\netedit.gui\demandElements\stop\stopLane\create\until\net.net.xml"/>
    </output>

    <processing>
        <geometry.min-radius.fix.railways value="false"/>
        <geometry.max-grade.fix value="false"/>
        <offset.disable-normalization value="true"/>
        <lefthand value="false"/>
    </processing>

    <junctions>
        <no-turnarounds value="true"/>
        <junctions.corner-detail value="5"/>
        <junctions.limit-turn-speed value="5.5"/>
        <rectangular-lane-cut value="false"/>
    </junctions>

    <pedestrian>
        <walkingareas value="false"/>
    </pedestrian>

    <netedit>
        <additional-files value="C:\Users\alva_pa\.texttest\tmp\netedit.gui.11Dec090724.13908\netedit.gui\demandElements\stop\stopLane\create\until\additionals.xml"/>
        <additionals-output value="C:\Users\alva_pa\.texttest\tmp\netedit.gui.11Dec090724.13908\netedit.gui\demandElements\stop\stopLane\create\until\additionals.xml"/>
        <route-files value="C:\Users\alva_pa\.texttest\tmp\netedit.gui.11Dec090724.13908\netedit.gui\demandElements\stop\stopLane\create\until\routes.xml"/>
        <demandelements-output value="C:\Users\alva_pa\.texttest\tmp\netedit.gui.11Dec090724.13908\netedit.gui\demandElements\stop\stopLane\create\until\routes.xml"/>
    </netedit>

    <visualisation>
        <gui-settings-file value="C:\Users\alva_pa\.texttest\tmp\netedit.gui.11Dec090724.13908\netedit.gui\demandElements\stop\stopLane\create\until\gui-settings.xml"/>
        <window-size value="700,500"/>
        <window-pos value="50,50"/>
        <gui-testing value="true"/>
        <gui-testing-debug value="true"/>
        <gui-testing-debug-gl value="true"/>
        <gui-testing.setting-output value="C:\Users\alva_pa\.texttest\tmp\netedit.gui.11Dec090724.13908\netedit.gui\demandElements\stop\stopLane\create\until\guisettingsoutput.xml"/>
    </visualisation>

    <report>
        <no-warnings value="true"/>
        <aggregate-warnings value="5"/>
        <error-log value="C:\Users\alva_pa\.texttest\tmp\netedit.gui.11Dec090724.13908\netedit.gui\demandElements\stop\stopLane\create\until\log.txt"/>
    </report>

</configuration>
-->

<net version="1.6" junctionCornerDetail="5" limitTurnSpeed="5.50" xmlns:xsi="http://www.w3.org/2001/XMLSchema-instance" xsi:noNamespaceSchemaLocation="http://sumo.dlr.de/xsd/net_file.xsd">

    <location netOffset="25.00,0.00" convBoundary="0.00,0.00,50.00,0.00" origBoundary="-10000000000.00,-10000000000.00,10000000000.00,10000000000.00" projParameter="!"/>

    <edge id=":gneJ0_0" function="internal">
        <lane id=":gneJ0_0_0" index="0" speed="3.65" length="4.67" shape="0.00,1.60 -1.20,0.80 -1.60,0.00 -1.20,-0.80 0.00,-1.60"/>
    </edge>
    <edge id=":gneJ1_0" function="internal">
        <lane id=":gneJ1_0_0" index="0" speed="3.65" length="4.67" shape="50.00,-1.60 51.20,-0.80 51.60,0.00 51.20,0.80 50.00,1.60"/>
    </edge>

    <edge id="gneE0" from="gneJ0" to="gneJ1" priority="1">
        <lane id="gneE0_0" index="0" speed="13.89" length="50.00" shape="0.00,-1.60 50.00,-1.60"/>
    </edge>
    <edge id="gneE1" from="gneJ1" to="gneJ0" priority="1">
        <lane id="gneE1_0" index="0" speed="13.89" length="50.00" shape="50.00,1.60 0.00,1.60"/>
    </edge>

    <tlLogic id="gneJ0" type="static" programID="0" offset="0">
        <phase duration="87" state="G"/>
        <phase duration="3"  state="y"/>
    </tlLogic>
    <tlLogic id="gneJ1" type="static" programID="0" offset="0">
        <phase duration="87" state="G"/>
        <phase duration="3"  state="y"/>
    </tlLogic>

    <junction id="gneJ0" type="traffic_light" x="0.00" y="0.00" incLanes="gneE1_0" intLanes=":gneJ0_0_0" shape="0.00,0.00 0.00,3.20 0.00,0.00">
        <request index="0" response="0" foes="0" cont="0"/>
    </junction>
    <junction id="gneJ1" type="traffic_light" x="50.00" y="0.00" incLanes="gneE0_0" intLanes=":gneJ1_0_0" shape="50.00,0.00 50.00,-3.20 50.00,0.00">
        <request index="0" response="0" foes="0" cont="0"/>
    </junction>

    <connection from="gneE0" to="gneE1" fromLane="0" toLane="0" via=":gneJ1_0_0" tl="gneJ1" linkIndex="0" dir="t" state="O"/>
    <connection from="gneE1" to="gneE0" fromLane="0" toLane="0" via=":gneJ0_0_0" tl="gneJ0" linkIndex="0" dir="t" state="O"/>

    <connection from=":gneJ0_0" to="gneE0" fromLane="0" toLane="0" dir="t" state="M"/>
    <connection from=":gneJ1_0" to="gneE1" fromLane="0" toLane="0" dir="t" state="M"/>

</net>
