<trips>
    <vType id="DEFAULT_VEHTYPE" sigma="0"/>

	<trip id="disconnected" depart="10" fromTaz="2" toTaz="1"/>
	<trip id="disconnected2" depart="20" fromTaz="2" toTaz="1"/>
</trips>
