<?xml version="1.0" encoding="UTF-8"?>

<!-- generated on 2021-06-25 09:21:27 by Eclipse SUMO netedit Version v1_9_2+0644-f4a64959a8
<configuration xmlns:xsi="http://www.w3.org/2001/XMLSchema-instance" xsi:noNamespaceSchemaLocation="http://sumo.dlr.de/xsd/netconvertConfiguration.xsd">

    <input>
        <sumo-net-file value="C:\Users\SUMO-Test\.texttest\tmp\netedit.gui.2_from_24Jun160554.7408\netedit.gui\shapeElements\poigeo\inspect_selected\parameters\input_net.net.xml"/>
    </input>

    <output>
        <output-file value="C:\Users\SUMO-Test\.texttest\tmp\netedit.gui.2_from_24Jun160554.7408\netedit.gui\shapeElements\poigeo\inspect_selected\parameters\net.net.xml"/>
    </output>

    <processing>
        <geometry.min-radius.fix.railways value="false"/>
        <geometry.max-grade.fix value="false"/>
        <offset.disable-normalization value="true"/>
        <lefthand value="false"/>
    </processing>

    <junctions>
        <no-turnarounds value="true"/>
        <junctions.corner-detail value="5"/>
        <junctions.limit-turn-speed value="5.5"/>
        <rectangular-lane-cut value="false"/>
    </junctions>

    <pedestrian>
        <walkingareas value="false"/>
    </pedestrian>

    <netedit>
        <additional-files value="C:\Users\SUMO-Test\.texttest\tmp\netedit.gui.2_from_24Jun160554.7408\netedit.gui\shapeElements\poigeo\inspect_selected\parameters\additionals.xml"/>
        <additionals-output value="C:\Users\SUMO-Test\.texttest\tmp\netedit.gui.2_from_24Jun160554.7408\netedit.gui\shapeElements\poigeo\inspect_selected\parameters\additionals.xml"/>
        <route-files value="C:\Users\SUMO-Test\.texttest\tmp\netedit.gui.2_from_24Jun160554.7408\netedit.gui\shapeElements\poigeo\inspect_selected\parameters\routes.xml"/>
        <demandelements-output value="C:\Users\SUMO-Test\.texttest\tmp\netedit.gui.2_from_24Jun160554.7408\netedit.gui\shapeElements\poigeo\inspect_selected\parameters\routes.xml"/>
        <data-files value="C:\Users\SUMO-Test\.texttest\tmp\netedit.gui.2_from_24Jun160554.7408\netedit.gui\shapeElements\poigeo\inspect_selected\parameters\datas.xml"/>
        <dataelements-output value="C:\Users\SUMO-Test\.texttest\tmp\netedit.gui.2_from_24Jun160554.7408\netedit.gui\shapeElements\poigeo\inspect_selected\parameters\datas.xml"/>
    </netedit>

    <visualisation>
        <gui-settings-file value="C:\Users\SUMO-Test\.texttest\tmp\netedit.gui.2_from_24Jun160554.7408\netedit.gui\shapeElements\poigeo\inspect_selected\parameters\gui-settings.xml"/>
        <window-size value="936,697"/>
        <window-pos value="50,50"/>
        <gui-testing value="true"/>
        <gui-testing-debug value="true"/>
        <gui-testing-debug-gl value="true"/>
        <gui-testing.setting-output value="C:\Users\SUMO-Test\.texttest\tmp\netedit.gui.2_from_24Jun160554.7408\netedit.gui\shapeElements\poigeo\inspect_selected\parameters\guisettingsoutput.xml"/>
    </visualisation>

    <report>
        <no-warnings value="true"/>
        <aggregate-warnings value="5"/>
        <error-log value="C:\Users\SUMO-Test\.texttest\tmp\netedit.gui.2_from_24Jun160554.7408\netedit.gui\shapeElements\poigeo\inspect_selected\parameters\log.txt"/>
    </report>

</configuration>
-->

<additional xmlns:xsi="http://www.w3.org/2001/XMLSchema-instance" xsi:noNamespaceSchemaLocation="http://sumo.dlr.de/xsd/additional_file.xsd">
    <poi id="POI_1" color="red" layer="202.00" lon="10.511086" lat="0.000162">
        <param key="keyFinal1" value="value1"/>
        <param key="keyFinal2" value="value2"/>
        <param key="keyFinal3" value="value3"/>
    </poi>
    <poi id="POI_2" color="red" layer="202.00" lon="10.511086" lat="0.000162">
        <param key="keyFinal1" value="value1"/>
        <param key="keyFinal2" value="value2"/>
        <param key="keyFinal3" value="value3"/>
    </poi>
</additional>
