<?xml version="1.0" encoding="UTF-8"?>

<!-- generated on 2022-02-04 15:44:47 by Eclipse SUMO netedit Version v1_12_0+0260-107ade780a5
-->

<additional xmlns:xsi="http://www.w3.org/2001/XMLSchema-instance" xsi:noNamespaceSchemaLocation="http://sumo.dlr.de/xsd/additional_file.xsd">
    <poi id="POI_1" color="red" layer="202.00" lon="10.511086" lat="0.000162">
        <param key="keyFinal1" value="value1"/>
        <param key="keyFinal2" value="value2"/>
        <param key="keyFinal3" value="value3"/>
    </poi>
    <poi id="POI_2" color="red" layer="202.00" lon="10.511086" lat="0.000162">
        <param key="keyFinal1" value="value1"/>
        <param key="keyFinal2" value="value2"/>
        <param key="keyFinal3" value="value3"/>
    </poi>
</additional>
