<?xml version="1.0"?>
<routes xmlns:xsi="http://www.w3.org/2001/XMLSchema-instance" xsi:noNamespaceSchemaLocation="http://sumo-sim.org/xsd/routes_file.xsd">
   <vType id="0" emissionClass="HDV_3_1"/>
   <vehicle id="0_0" type="0" depart="0">
      <route edges="beg middle end"/>
   </vehicle>
</routes>
