<?xml version="1.0" encoding="UTF-8"?>

<!-- generated on 2025-07-10 09:54:17 by Eclipse SUMO netedit Version v1_23_1+0978-b3f6417a0cf
-->

<neteditConfiguration xmlns:xsi="http://www.w3.org/2001/XMLSchema-instance" xsi:noNamespaceSchemaLocation="http://sumo.dlr.de/xsd/neteditConfiguration.xsd">

    <input>
        <node-files value="D:\SUMO\tests\netedit\network\trafficlights\joined\phases\delay_based\net.nod.xml"/>
        <edge-files value="D:\SUMO\tests\netedit\network\trafficlights\joined\phases\delay_based\net.edg.xml"/>
        <connection-files value="D:\SUMO\tests\netedit\network\trafficlights\joined\phases\delay_based\net.con.xml"/>
        <tllogic-files value="D:\SUMO\tests\netedit\network\trafficlights\joined\phases\delay_based\net.tll.xml"/>
    </input>

    <processing>
        <geometry.min-radius.fix.railways value="false"/>
        <geometry.avoid-overlap value="false"/>
        <geometry.max-grade.fix value="false"/>
        <offset.disable-normalization value="true"/>
        <lefthand value="0"/>
    </processing>

    <junctions>
        <no-turnarounds value="true"/>
        <junctions.corner-detail value="5"/>
        <junctions.limit-turn-speed value="5.50"/>
        <rectangular-lane-cut value="0"/>
    </junctions>

    <pedestrian>
        <walkingareas value="0"/>
    </pedestrian>

</neteditConfiguration>
