<?xml version="1.0" encoding="UTF-8"?>
<!-- generated on 2019-03-21 09:58:39.177811 by $Id: randomTrips.py v1_0_1+0098-8affe8886f jakob.erdmann@dlr.de 2018-08-29 20:55:11 +0200 $
  options: -n net2.net.xml -s 42 <doubleminus>vclass truck -a input_additional.add.xml -r out.rou.xml -t type="truck" -e 10
-->
<routes xmlns:xsi="http://www.w3.org/2001/XMLSchema-instance" xsi:noNamespaceSchemaLocation="http://sumo.dlr.de/xsd/routes_file.xsd">
    <trip id="0" depart="0.00" from="left" to="beg2left" type="truck"/>
    <trip id="1" depart="1.00" from="beg2left" to="end" type="truck"/>
    <trip id="2" depart="2.00" from="left" to="left2end" type="truck"/>
    <trip id="3" depart="3.00" from="left2end" to="beg2left" type="truck"/>
    <trip id="4" depart="4.00" from="end" to="beg2left" type="truck"/>
    <trip id="5" depart="5.00" from="beg2left" to="left" type="truck"/>
    <trip id="6" depart="6.00" from="beg" to="beg2left" type="truck"/>
    <trip id="7" depart="7.00" from="left" to="left" type="truck"/>
    <trip id="8" depart="8.00" from="beg2left" to="left" type="truck"/>
    <trip id="9" depart="9.00" from="left2end" to="beg2left" type="truck"/>
</routes>
