<routes xmlns:xsi="http://www.w3.org/2001/XMLSchema-instance" xsi:noNamespaceSchemaLocation="http://sumo.dlr.de/xsd/routes_file.xsd">
    <personFlow id="p" begin="0" number="10" period="10">
        <walk from="SC" to="CN"/>
    </personFlow>
</routes>
