<?xml version="1.0" encoding="UTF-8"?>

<!-- generated on 2022-03-04 10:20:47 by Eclipse SUMO netedit Version v1_12_0+1137-e9106068858
-->

<additional xmlns:xsi="http://www.w3.org/2001/XMLSchema-instance" xsi:noNamespaceSchemaLocation="http://sumo.dlr.de/xsd/additional_file.xsd">
    <!-- StoppingPlaces -->
    <parkingArea id="pa_0" lane="gneE0_0" startPos="14.00" endPos="24.00"/>
    <parkingArea id="pa_1" lane="gneE0_0" startPos="4.00" endPos="14.00"/>
    <parkingArea id="pa_2" lane="gneE0_0" startPos="9.00" endPos="19.00"/>
</additional>
