<?xml version="1.0" encoding="UTF-8"?>

<!-- generated on Tue Aug 15 13:34:02 2017 by SUMO Version dev-SVN-r25607
<?xml version="1.0" encoding="UTF-8"?>

<configuration xmlns:xsi="http://www.w3.org/2001/XMLSchema-instance" xsi:noNamespaceSchemaLocation="http://sumo.dlr.de/xsd/sumoConfiguration.xsd">

    <input>
        <net-file value="net.net.xml"/>
        <route-files value="input_routes.rou.xml"/>
        <additional-files value="input_additional.add.xml"/>
    </input>

    <time>
        <begin value="10000"/>
    </time>

    <report>
        <xml-validation value="never"/>
        <duration-log.disable value="true"/>
        <no-step-log value="true"/>
    </report>

</configuration>
-->

<tlsStates xmlns:xsi="http://www.w3.org/2001/XMLSchema-instance" xsi:noNamespaceSchemaLocation="http://sumo.dlr.de/xsd/tlsstates_file.xsd">
    <tlsState time="10000.00" id="0" programID="0" phase="0" state="GGggrrrrGGggrrrr"/>
    <tlsState time="10009.00" id="0" programID="0" phase="1" state="yyggrrrryyggrrrr"/>
    <tlsState time="10013.00" id="0" programID="0" phase="2" state="rrGGrrrrrrGGrrrr"/>
    <tlsState time="10019.00" id="0" programID="0" phase="3" state="rryyrrrrrryyrrrr"/>
    <tlsState time="10023.00" id="0" programID="0" phase="4" state="rrrrGGggrrrrGGgg"/>
    <tlsState time="10039.00" id="0" programID="0" phase="5" state="rrrryyggrrrryygg"/>
    <tlsState time="10043.00" id="0" programID="0" phase="6" state="rrrrrrGGrrrrrrGG"/>
    <tlsState time="10049.00" id="0" programID="0" phase="7" state="rrrrrryyrrrrrryy"/>
    <tlsState time="10053.00" id="0" programID="0" phase="0" state="GGggrrrrGGggrrrr"/>
    <tlsState time="10063.00" id="0" programID="0" phase="1" state="yyggrrrryyggrrrr"/>
    <tlsState time="10067.00" id="0" programID="0" phase="2" state="rrGGrrrrrrGGrrrr"/>
    <tlsState time="10073.00" id="0" programID="0" phase="3" state="rryyrrrrrryyrrrr"/>
    <tlsState time="10077.00" id="0" programID="0" phase="4" state="rrrrGGggrrrrGGgg"/>
    <tlsState time="10095.00" id="0" programID="0" phase="5" state="rrrryyggrrrryygg"/>
    <tlsState time="10099.00" id="0" programID="0" phase="6" state="rrrrrrGGrrrrrrGG"/>
    <tlsState time="10105.00" id="0" programID="0" phase="7" state="rrrrrryyrrrrrryy"/>
    <tlsState time="10109.00" id="0" programID="0" phase="0" state="GGggrrrrGGggrrrr"/>
    <tlsState time="10118.00" id="0" programID="0" phase="1" state="yyggrrrryyggrrrr"/>
    <tlsState time="10122.00" id="0" programID="0" phase="2" state="rrGGrrrrrrGGrrrr"/>
    <tlsState time="10128.00" id="0" programID="0" phase="3" state="rryyrrrrrryyrrrr"/>
    <tlsState time="10132.00" id="0" programID="0" phase="4" state="rrrrGGggrrrrGGgg"/>
    <tlsState time="10162.00" id="0" programID="0" phase="5" state="rrrryyggrrrryygg"/>
    <tlsState time="10166.00" id="0" programID="0" phase="6" state="rrrrrrGGrrrrrrGG"/>
    <tlsState time="10172.00" id="0" programID="0" phase="7" state="rrrrrryyrrrrrryy"/>
    <tlsState time="10176.00" id="0" programID="0" phase="0" state="GGggrrrrGGggrrrr"/>
    <tlsState time="10199.00" id="0" programID="0" phase="1" state="yyggrrrryyggrrrr"/>
    <tlsState time="10203.00" id="0" programID="0" phase="2" state="rrGGrrrrrrGGrrrr"/>
    <tlsState time="10209.00" id="0" programID="0" phase="3" state="rryyrrrrrryyrrrr"/>
    <tlsState time="10213.00" id="0" programID="0" phase="4" state="rrrrGGggrrrrGGgg"/>
    <tlsState time="10240.00" id="0" programID="0" phase="5" state="rrrryyggrrrryygg"/>
    <tlsState time="10244.00" id="0" programID="0" phase="6" state="rrrrrrGGrrrrrrGG"/>
    <tlsState time="10250.00" id="0" programID="0" phase="7" state="rrrrrryyrrrrrryy"/>
    <tlsState time="10254.00" id="0" programID="0" phase="0" state="GGggrrrrGGggrrrr"/>
    <tlsState time="10267.00" id="0" programID="0" phase="1" state="yyggrrrryyggrrrr"/>
    <tlsState time="10271.00" id="0" programID="0" phase="2" state="rrGGrrrrrrGGrrrr"/>
    <tlsState time="10277.00" id="0" programID="0" phase="3" state="rryyrrrrrryyrrrr"/>
    <tlsState time="10281.00" id="0" programID="0" phase="4" state="rrrrGGggrrrrGGgg"/>
    <tlsState time="10317.00" id="0" programID="0" phase="5" state="rrrryyggrrrryygg"/>
    <tlsState time="10321.00" id="0" programID="0" phase="6" state="rrrrrrGGrrrrrrGG"/>
    <tlsState time="10327.00" id="0" programID="0" phase="7" state="rrrrrryyrrrrrryy"/>
    <tlsState time="10331.00" id="0" programID="0" phase="0" state="GGggrrrrGGggrrrr"/>
    <tlsState time="10346.00" id="0" programID="0" phase="1" state="yyggrrrryyggrrrr"/>
    <tlsState time="10350.00" id="0" programID="0" phase="2" state="rrGGrrrrrrGGrrrr"/>
    <tlsState time="10356.00" id="0" programID="0" phase="3" state="rryyrrrrrryyrrrr"/>
    <tlsState time="10360.00" id="0" programID="0" phase="4" state="rrrrGGggrrrrGGgg"/>
    <tlsState time="10405.00" id="0" programID="0" phase="5" state="rrrryyggrrrryygg"/>
    <tlsState time="10409.00" id="0" programID="0" phase="6" state="rrrrrrGGrrrrrrGG"/>
    <tlsState time="10415.00" id="0" programID="0" phase="7" state="rrrrrryyrrrrrryy"/>
    <tlsState time="10419.00" id="0" programID="0" phase="0" state="GGggrrrrGGggrrrr"/>
    <tlsState time="10432.00" id="0" programID="0" phase="1" state="yyggrrrryyggrrrr"/>
    <tlsState time="10436.00" id="0" programID="0" phase="2" state="rrGGrrrrrrGGrrrr"/>
    <tlsState time="10442.00" id="0" programID="0" phase="3" state="rryyrrrrrryyrrrr"/>
    <tlsState time="10446.00" id="0" programID="0" phase="4" state="rrrrGGggrrrrGGgg"/>
    <tlsState time="10455.00" id="0" programID="0" phase="5" state="rrrryyggrrrryygg"/>
    <tlsState time="10459.00" id="0" programID="0" phase="6" state="rrrrrrGGrrrrrrGG"/>
    <tlsState time="10465.00" id="0" programID="0" phase="7" state="rrrrrryyrrrrrryy"/>
    <tlsState time="10469.00" id="0" programID="0" phase="0" state="GGggrrrrGGggrrrr"/>
    <tlsState time="10478.00" id="0" programID="0" phase="1" state="yyggrrrryyggrrrr"/>
    <tlsState time="10482.00" id="0" programID="0" phase="2" state="rrGGrrrrrrGGrrrr"/>
    <tlsState time="10488.00" id="0" programID="0" phase="3" state="rryyrrrrrryyrrrr"/>
    <tlsState time="10492.00" id="0" programID="0" phase="4" state="rrrrGGggrrrrGGgg"/>
</tlsStates>
