<?xml version="1.0" encoding="UTF-8"?>

<!-- generated on Wed Oct 28 07:08:47 2015 by SUMO netconvert Version dev-SVN-r19184I
<?xml version="1.0" encoding="UTF-8"?>

<configuration xmlns:xsi="http://www.w3.org/2001/XMLSchema-instance" xsi:noNamespaceSchemaLocation="http://sumo.dlr.de/xsd/netconvertConfiguration.xsd">

    <input>
        <node-files value="input_plain.nod.xml"/>
        <edge-files value="input_plain.edg.xml"/>
    </input>

    <output>
        <output-file value="net.net.xml"/>
    </output>

    <processing>
        <no-internal-links value="true"/>
        <roundabouts.guess value="true"/>
    </processing>

    <report>
        <xml-validation value="never"/>
    </report>

</configuration>
-->

<net version="0.13" xmlns:xsi="http://www.w3.org/2001/XMLSchema-instance" xsi:noNamespaceSchemaLocation="http://sumo.dlr.de/xsd/net_file.xsd">

    <location netOffset="-392703.18,-5819257.60" convBoundary="0.00,0.00,331.63,290.75" origBoundary="1275890.000000,5218519.000000,1383308.000000,5282609.000000" projParameter="+proj=utm +zone=33 +ellps=WGS84 +datum=WGS84 +units=m +no_defs"/>

    <edge id="-53517343" from="565355469" to="61057727" priority="-4" spreadType="center" shape="42.07,260.31 33.20,258.27 30.44,256.11 28.98,251.69 30.17,243.88">
        <lane id="-53517343_0" index="0" speed="8.33" length="18.23" shape="29.99,254.73 29.34,252.77"/>
    </edge>
    <edge id="-733292862" from="817135706" to="817135705" priority="-6">
        <lane id="-733292862_0" index="0" allow="pedestrian" speed="1.39" length="42.47" shape="73.14,291.44 59.50,261.91"/>
    </edge>
    <edge id="-733292874" from="817135710" to="817135711" priority="-6">
        <lane id="-733292874_0" index="0" allow="pedestrian" speed="1.39" length="58.91" shape="289.47,184.50 262.47,139.45"/>
    </edge>
    <edge id="-733292875" from="817135712" to="565355470" priority="-2" spreadType="center">
        <lane id="-733292875_0" index="0" speed="13.89" length="54.56" shape="252.75,108.92 291.41,85.61"/>
        <lane id="-733292875_1" index="1" speed="13.89" length="54.56" shape="254.45,111.75 293.11,88.44"/>
        <lane id="-733292875_2" index="2" speed="13.89" length="54.56" shape="256.16,114.57 294.82,91.26"/>
        <lane id="-733292875_3" index="3" speed="13.89" length="54.56" shape="257.86,117.40 296.52,94.09"/>
    </edge>
    <edge id="-754278085" from="565355470" to="832012177" priority="-2" spreadType="center">
        <lane id="-754278085_0" index="0" speed="13.89" length="27.68" shape="296.05,81.00 315.72,69.41"/>
        <lane id="-754278085_1" index="1" speed="13.89" length="27.68" shape="297.72,83.84 317.40,72.26"/>
        <lane id="-754278085_2" index="2" speed="13.89" length="27.68" shape="299.39,86.68 319.07,75.10"/>
        <lane id="-754278085_3" index="3" speed="13.89" length="27.68" shape="301.07,89.53 320.74,77.94"/>
        <lane id="-754278085_4" index="4" speed="13.89" length="27.68" shape="302.74,92.37 322.42,80.79"/>
    </edge>
    <edge id="-774056209" from="845427206" to="848552965" priority="-6" shape="36.20,178.09 123.41,130.56 146.77,174.56">
        <lane id="-774056209_0" index="0" allow="pedestrian" speed="1.39" length="149.14" shape="35.41,176.64 124.09,128.31 145.19,168.06"/>
    </edge>
    <edge id="-778474594" from="61057727" to="848552962" priority="-2" spreadType="center">
        <lane id="-778474594_0" index="0" speed="13.89" length="20.29" shape="29.80,240.26 45.90,230.64"/>
        <lane id="-778474594_1" index="1" speed="13.89" length="20.29" shape="31.49,243.09 47.59,233.48"/>
        <lane id="-778474594_2" index="2" speed="13.89" length="20.29" shape="33.18,245.92 49.28,236.31"/>
    </edge>
    <edge id="-778474597" from="848552964" to="61057727" priority="-2" spreadType="center">
        <lane id="-778474597_0" index="0" speed="13.89" length="34.80" shape="-1.65,258.37 22.06,244.73"/>
        <lane id="-778474597_1" index="1" speed="13.89" length="34.80" shape="0.00,261.23 23.71,247.60"/>
        <lane id="-778474597_2" index="2" speed="13.89" length="34.80" shape="1.65,264.09 25.35,250.46"/>
    </edge>
    <edge id="-778474599" from="848552965" to="817135712" priority="-2" spreadType="center">
        <lane id="-778474599_0" index="0" speed="13.89" length="120.13" shape="149.40,169.29 245.39,115.12"/>
        <lane id="-778474599_1" index="1" speed="13.89" length="120.13" shape="151.02,172.16 247.01,117.99"/>
        <lane id="-778474599_2" index="2" speed="13.89" length="120.13" shape="152.64,175.04 248.63,120.87"/>
    </edge>
    <edge id="-778474600" from="848552962" to="848552965" priority="-2" spreadType="center">
        <lane id="-778474600_0" index="0" speed="13.89" length="115.36" shape="45.90,230.64 141.20,174.03"/>
        <lane id="-778474600_1" index="1" speed="13.89" length="115.36" shape="47.59,233.48 142.89,176.87"/>
        <lane id="-778474600_2" index="2" speed="13.89" length="115.36" shape="49.28,236.32 144.57,179.70"/>
    </edge>
    <edge id="-782340477" from="817135712" to="851117110" priority="-6" shape="251.39,115.52 218.35,63.94 215.44,55.11 226.76,44.84 253.54,27.57 292.99,0.00">
        <lane id="-782340477_0" index="0" allow="pedestrian" speed="1.39" length="165.83" shape="245.70,109.70 216.85,64.65 213.54,54.61 225.65,43.62 252.65,26.18 292.04,-1.35"/>
    </edge>
    <edge id="53517341" from="565355470" to="61057722" priority="-4" spreadType="center" shape="291.59,91.28 299.78,93.32 304.02,101.02 300.80,108.88">
        <lane id="53517341_0" index="0" speed="8.33" length="13.56" shape="302.26,97.82 302.69,98.61"/>
    </edge>
    <edge id="733292861" from="817135705" to="565355469" priority="-2" spreadType="center">
        <lane id="733292861_0" index="0" speed="13.89" length="26.03" shape="55.34,260.54 41.34,268.24"/>
        <lane id="733292861_1" index="1" speed="13.89" length="26.03" shape="53.75,257.65 39.75,265.35"/>
        <lane id="733292861_2" index="2" speed="13.89" length="26.03" shape="52.16,254.76 38.16,262.46"/>
        <lane id="733292861_3" index="3" speed="13.89" length="26.03" shape="50.56,251.87 36.57,259.57"/>
        <lane id="733292861_4" index="4" speed="13.89" length="26.03" shape="48.97,248.98 34.98,256.68"/>
    </edge>
    <edge id="733292862" from="817135705" to="817135706" priority="-6">
        <lane id="733292862_0" index="0" allow="pedestrian" speed="1.39" length="42.47" shape="62.50,260.53 76.14,290.06"/>
    </edge>
    <edge id="733292872" from="61057722" to="817135711" priority="-2" spreadType="center">
        <lane id="733292872_0" index="0" speed="13.89" length="55.22" shape="306.62,109.23 266.36,133.50"/>
        <lane id="733292872_1" index="1" speed="13.89" length="55.22" shape="304.91,106.40 264.66,130.67"/>
        <lane id="733292872_2" index="2" speed="13.89" length="55.22" shape="303.21,103.57 262.95,127.85"/>
    </edge>
    <edge id="733292874" from="817135711" to="817135710" priority="-6">
        <lane id="733292874_0" index="0" allow="pedestrian" speed="1.39" length="58.91" shape="265.30,137.75 292.31,182.80"/>
    </edge>
    <edge id="733292978" from="817135763" to="61057722" priority="-2" spreadType="center">
        <lane id="733292978_0" index="0" speed="13.89" length="7.91" shape="314.53,104.79 310.94,106.85"/>
        <lane id="733292978_1" index="1" speed="13.89" length="7.91" shape="312.87,101.94 309.30,103.99"/>
        <lane id="733292978_2" index="2" speed="13.89" length="7.91" shape="311.12,99.14 307.65,101.13"/>
    </edge>
    <edge id="754262765" from="832002545" to="817135705" priority="-2" spreadType="center">
        <lane id="754262765_0" index="0" speed="13.89" length="75.96" shape="123.74,219.06 62.90,254.39"/>
        <lane id="754262765_1" index="1" speed="13.89" length="75.96" shape="122.08,216.20 61.25,251.53"/>
        <lane id="754262765_2" index="2" speed="13.89" length="75.96" shape="120.43,213.35 59.59,248.68"/>
        <lane id="754262765_3" index="3" speed="13.89" length="75.96" shape="118.77,210.49 57.93,245.83"/>
    </edge>
    <edge id="774056209" from="848552965" to="845427206" priority="-6" shape="146.77,174.56 123.41,130.56 36.20,178.09">
        <lane id="774056209_0" index="0" allow="pedestrian" speed="1.39" length="149.14" shape="142.27,169.61 122.73,132.81 36.99,179.54"/>
    </edge>
    <edge id="778474595" from="565355469" to="848552963" priority="-2" spreadType="center">
        <lane id="778474595_0" index="0" speed="13.89" length="37.64" shape="36.23,271.37 7.87,287.97"/>
        <lane id="778474595_1" index="1" speed="13.89" length="37.64" shape="34.57,268.52 6.21,285.12"/>
        <lane id="778474595_2" index="2" speed="13.89" length="37.64" shape="32.90,265.68 4.54,282.27"/>
        <lane id="778474595_3" index="3" speed="13.89" length="37.64" shape="31.23,262.83 2.87,279.42"/>
        <lane id="778474595_4" index="4" speed="13.89" length="37.64" shape="29.57,259.98 1.21,276.57"/>
    </edge>
    <edge id="778474601" from="817135711" to="848552966" priority="-2" spreadType="center" shape="260.60,133.12 218.36,157.41 155.33,193.29">
        <lane id="778474601_0" index="0" speed="13.89" length="121.25" shape="258.20,138.30 220.01,160.27 157.14,196.06"/>
        <lane id="778474601_1" index="1" speed="13.89" length="121.25" shape="256.56,135.44 218.36,157.41 155.33,193.29"/>
        <lane id="778474601_2" index="2" speed="13.89" length="121.25" shape="254.91,132.58 216.71,154.55 153.65,190.45"/>
    </edge>
    <edge id="778474602" from="848552966" to="832002545" priority="-2" spreadType="center">
        <lane id="778474602_0" index="0" speed="13.89" length="38.82" shape="156.92,196.19 125.52,216.05"/>
        <lane id="778474602_1" index="1" speed="13.89" length="38.82" shape="155.33,193.29 123.76,213.26"/>
        <lane id="778474602_2" index="2" speed="13.89" length="38.82" shape="153.61,190.47 121.99,210.47"/>
    </edge>
    <edge id="781909616" from="850831077" to="817135763" priority="-2" spreadType="center">
        <lane id="781909616_0" index="0" speed="13.89" length="22.03" shape="333.36,93.21 314.58,104.76"/>
        <lane id="781909616_1" index="1" speed="13.89" length="22.03" shape="331.63,90.40 312.87,101.94"/>
        <lane id="781909616_2" index="2" speed="13.89" length="22.03" shape="329.90,87.59 311.24,99.07"/>
    </edge>
    <edge id="782340477" from="851117110" to="817135712" priority="-6" shape="292.99,0.00 253.54,27.57 226.76,44.84 215.44,55.11 218.35,63.94 251.39,115.52">
        <lane id="782340477_0" index="0" allow="pedestrian" speed="1.39" length="165.83" shape="293.94,1.35 254.49,28.92 227.65,46.23 217.34,55.61 219.85,63.23 248.48,107.92"/>
    </edge>

    <junction id="565355469" type="priority" x="42.07" y="260.31" incLanes="733292861_0 733292861_1 733292861_2 733292861_3 733292861_4" intLanes="" shape="42.11,269.65 34.21,255.28 30.98,252.64 28.99,256.83 28.76,258.60 37.04,272.75">
        <request index="0" response="000000" foes="000000"/>
        <request index="1" response="000000" foes="000000"/>
        <request index="2" response="000000" foes="000000"/>
        <request index="3" response="000000" foes="000000"/>
        <request index="4" response="000000" foes="000000"/>
        <request index="5" response="000000" foes="000000"/>
    </junction>
    <junction id="565355470" type="priority" x="291.59" y="91.28" incLanes="-733292875_0 -733292875_1 -733292875_2 -733292875_3" intLanes="" shape="301.53,99.82 302.99,95.83 303.56,93.75 295.23,79.62 290.58,84.24 297.35,95.46">
        <request index="0" response="000000" foes="000000"/>
        <request index="1" response="000000" foes="000000"/>
        <request index="2" response="000000" foes="000000"/>
        <request index="3" response="000000" foes="000000"/>
        <request index="4" response="000000" foes="000000"/>
        <request index="5" response="000000" foes="000000"/>
    </junction>
    <junction id="61057722" type="priority" x="300.80" y="108.88" incLanes="733292978_0 733292978_1 733292978_2 53517341_0" intLanes="" shape="311.74,108.24 306.86,99.75 304.83,99.18 300.55,98.04 302.38,102.20 307.44,110.60">
        <request index="0" response="00000" foes="11000"/>
        <request index="1" response="00000" foes="11000"/>
        <request index="2" response="00000" foes="11000"/>
        <request index="3" response="00111" foes="00111"/>
        <request index="4" response="00111" foes="00111"/>
    </junction>
    <junction id="61057727" type="priority" x="30.17" y="243.88" incLanes="-778474597_0 -778474597_1 -778474597_2 -53517343_0" intLanes="" shape="34.00,247.30 28.98,238.88 21.27,243.35 26.15,251.84 27.58,252.55 31.10,253.00">
        <request index="0" response="00000" foes="11000"/>
        <request index="1" response="00000" foes="11000"/>
        <request index="2" response="00000" foes="11000"/>
        <request index="3" response="00111" foes="00111"/>
        <request index="4" response="00111" foes="00111"/>
    </junction>
    <junction id="817135705" type="priority" x="56.83" y="252.19" incLanes="-733292862_0 754262765_0 754262765_1 754262765_2 754262765_3" intLanes="" shape="58.05,262.58 63.95,259.86 63.71,255.77 57.13,244.44 48.20,247.58 56.11,261.95">
        <request index="0" response="000000" foes="000000"/>
        <request index="1" response="000000" foes="000000"/>
        <request index="2" response="000000" foes="000000"/>
        <request index="3" response="000000" foes="000000"/>
        <request index="4" response="000000" foes="000000"/>
        <request index="5" response="000000" foes="000000"/>
    </junction>
    <junction id="817135706" type="priority" x="74.64" y="290.75" incLanes="733292862_0" intLanes="" shape="74.59,290.77 71.69,292.11 77.59,289.39 74.69,290.73">
        <request index="0" response="0" foes="0"/>
    </junction>
    <junction id="817135710" type="priority" x="290.89" y="183.65" incLanes="733292874_0" intLanes="" shape="290.85,183.68 288.10,185.32 293.68,181.98 290.93,183.62">
        <request index="0" response="0" foes="0"/>
    </junction>
    <junction id="817135711" type="priority" x="260.60" y="133.12" incLanes="-733292874_0 733292872_0 733292872_1 733292872_2" intLanes="" shape="261.10,140.27 266.67,136.93 267.19,134.87 262.13,126.48 254.12,131.20 259.00,139.69">
        <request index="0" response="0000" foes="0000"/>
        <request index="1" response="0000" foes="0000"/>
        <request index="2" response="0000" foes="0000"/>
        <request index="3" response="0000" foes="0000"/>
    </junction>
    <junction id="817135712" type="priority" x="251.39" y="115.52" incLanes="782340477_0 -778474599_0 -778474599_1 -778474599_2" intLanes="" shape="258.69,118.77 251.92,107.55 249.83,107.06 244.36,110.57 244.60,113.72 249.42,122.26">
        <request index="0" response="00000" foes="00000"/>
        <request index="1" response="00000" foes="00000"/>
        <request index="2" response="00000" foes="00000"/>
        <request index="3" response="00000" foes="00000"/>
        <request index="4" response="00000" foes="00000"/>
    </junction>
    <junction id="817135763" type="priority" x="312.87" y="101.94" incLanes="781909616_0 781909616_1 781909616_2" intLanes="" shape="315.42,106.13 310.28,97.78 310.45,97.68 315.33,106.18">
        <request index="0" response="000" foes="000"/>
        <request index="1" response="000" foes="000"/>
        <request index="2" response="000" foes="000"/>
    </junction>
    <junction id="832002545" type="priority" x="122.52" y="214.04" incLanes="778474602_0 778474602_1 778474602_2" intLanes="" shape="126.38,217.40 121.14,209.12 117.96,209.11 124.54,220.44">
        <request index="0" response="0000" foes="0000"/>
        <request index="1" response="0000" foes="0000"/>
        <request index="2" response="0000" foes="0000"/>
        <request index="3" response="0000" foes="0000"/>
    </junction>
    <junction id="832012177" type="unregulated" x="319.07" y="75.10" incLanes="-754278085_0 -754278085_1 -754278085_2 -754278085_3 -754278085_4" intLanes="" shape="314.91,68.03 323.23,82.17"/>
    <junction id="845427206" type="priority" x="36.20" y="178.09" incLanes="774056209_0" intLanes="" shape="36.18,178.05 34.64,175.24 37.76,180.94 36.22,178.13">
        <request index="0" response="0" foes="0"/>
    </junction>
    <junction id="848552962" type="priority" x="47.59" y="233.48" incLanes="-778474594_0 -778474594_1 -778474594_2" intLanes="" shape="50.09,237.69 45.09,229.27 50.10,237.69">
        <request index="0" response="000" foes="000"/>
        <request index="1" response="000" foes="000"/>
        <request index="2" response="000" foes="000"/>
    </junction>
    <junction id="848552963" type="unregulated" x="4.54" y="282.27" incLanes="778474595_0 778474595_1 778474595_2 778474595_3 778474595_4" intLanes="" shape="8.68,289.35 0.40,275.19"/>
    <junction id="848552964" type="unregulated" x="0.00" y="261.23" incLanes="" intLanes="" shape="2.44,265.48 -2.44,256.98"/>
    <junction id="848552965" type="priority" x="146.77" y="174.56" incLanes="-774056209_0 -778474600_0 -778474600_1 -778474600_2" intLanes="" shape="153.43,176.43 148.61,167.90 146.60,167.31 140.86,170.36 140.38,172.66 145.39,181.08">
        <request index="0" response="0000" foes="0000"/>
        <request index="1" response="0000" foes="0000"/>
        <request index="2" response="0000" foes="0000"/>
        <request index="3" response="0000" foes="0000"/>
    </junction>
    <junction id="848552966" type="priority" x="155.33" y="193.29" incLanes="778474601_0 778474601_1 778474601_2" intLanes="" shape="157.71,197.58 152.86,189.06 152.76,189.12 157.99,197.40">
        <request index="0" response="000" foes="000"/>
        <request index="1" response="000" foes="000"/>
        <request index="2" response="000" foes="000"/>
    </junction>
    <junction id="850831077" type="unregulated" x="331.63" y="90.40" incLanes="" intLanes="" shape="329.06,86.23 334.20,94.57"/>
    <junction id="851117110" type="priority" x="292.99" y="0.00" incLanes="-782340477_0" intLanes="" shape="293.02,0.04 294.85,2.66 291.13,-2.66 292.96,-0.04">
        <request index="0" response="0" foes="0"/>
    </junction>

    <connection from="-53517343" to="-778474594" fromLane="0" toLane="1" dir="l" state="m"/>
    <connection from="-53517343" to="-778474594" fromLane="0" toLane="2" dir="l" state="m"/>
    <connection from="-733292862" to="733292862" fromLane="0" toLane="0" dir="t" state="m"/>
    <connection from="-733292874" to="733292874" fromLane="0" toLane="0" dir="t" state="m"/>
    <connection from="-733292875" to="-754278085" fromLane="0" toLane="0" dir="s" state="M"/>
    <connection from="-733292875" to="-754278085" fromLane="1" toLane="1" dir="s" state="M"/>
    <connection from="-733292875" to="-754278085" fromLane="2" toLane="2" dir="s" state="M"/>
    <connection from="-733292875" to="-754278085" fromLane="2" toLane="3" dir="s" state="M"/>
    <connection from="-733292875" to="-754278085" fromLane="2" toLane="4" dir="s" state="M"/>
    <connection from="-733292875" to="53517341" fromLane="3" toLane="0" dir="l" state="M"/>
    <connection from="-774056209" to="774056209" fromLane="0" toLane="0" dir="t" state="m"/>
    <connection from="-778474594" to="-778474600" fromLane="0" toLane="0" dir="s" state="M"/>
    <connection from="-778474594" to="-778474600" fromLane="1" toLane="1" dir="s" state="M"/>
    <connection from="-778474594" to="-778474600" fromLane="2" toLane="2" dir="s" state="M"/>
    <connection from="-778474597" to="-778474594" fromLane="0" toLane="0" dir="s" state="M"/>
    <connection from="-778474597" to="-778474594" fromLane="1" toLane="1" dir="s" state="M"/>
    <connection from="-778474597" to="-778474594" fromLane="2" toLane="2" dir="s" state="M"/>
    <connection from="-778474599" to="-733292875" fromLane="0" toLane="0" dir="s" state="M"/>
    <connection from="-778474599" to="-733292875" fromLane="1" toLane="1" dir="s" state="M"/>
    <connection from="-778474599" to="-733292875" fromLane="2" toLane="2" dir="s" state="M"/>
    <connection from="-778474599" to="-733292875" fromLane="2" toLane="3" dir="s" state="M"/>
    <connection from="-778474600" to="-778474599" fromLane="0" toLane="0" dir="s" state="M"/>
    <connection from="-778474600" to="-778474599" fromLane="1" toLane="1" dir="s" state="M"/>
    <connection from="-778474600" to="-778474599" fromLane="2" toLane="2" dir="s" state="M"/>
    <connection from="-782340477" to="782340477" fromLane="0" toLane="0" dir="t" state="M"/>
    <connection from="53517341" to="733292872" fromLane="0" toLane="1" dir="s" state="m"/>
    <connection from="53517341" to="733292872" fromLane="0" toLane="2" dir="s" state="m"/>
    <connection from="733292861" to="778474595" fromLane="0" toLane="0" dir="s" state="M"/>
    <connection from="733292861" to="778474595" fromLane="1" toLane="1" dir="s" state="M"/>
    <connection from="733292861" to="778474595" fromLane="2" toLane="2" dir="s" state="M"/>
    <connection from="733292861" to="778474595" fromLane="3" toLane="3" dir="s" state="M"/>
    <connection from="733292861" to="778474595" fromLane="3" toLane="4" dir="s" state="M"/>
    <connection from="733292861" to="-53517343" fromLane="4" toLane="0" dir="s" state="M"/>
    <connection from="733292862" to="-733292862" fromLane="0" toLane="0" dir="t" state="M"/>
    <connection from="733292872" to="778474601" fromLane="0" toLane="0" dir="s" state="M"/>
    <connection from="733292872" to="778474601" fromLane="1" toLane="1" dir="s" state="M"/>
    <connection from="733292872" to="778474601" fromLane="2" toLane="2" dir="s" state="M"/>
    <connection from="733292874" to="-733292874" fromLane="0" toLane="0" dir="t" state="M"/>
    <connection from="733292978" to="733292872" fromLane="0" toLane="0" dir="s" state="M"/>
    <connection from="733292978" to="733292872" fromLane="1" toLane="1" dir="s" state="M"/>
    <connection from="733292978" to="733292872" fromLane="2" toLane="2" dir="s" state="M"/>
    <connection from="754262765" to="733292861" fromLane="0" toLane="0" dir="s" state="M"/>
    <connection from="754262765" to="733292861" fromLane="1" toLane="1" dir="s" state="M"/>
    <connection from="754262765" to="733292861" fromLane="2" toLane="2" dir="s" state="M"/>
    <connection from="754262765" to="733292861" fromLane="3" toLane="3" dir="s" state="M"/>
    <connection from="754262765" to="733292861" fromLane="3" toLane="4" dir="s" state="M"/>
    <connection from="774056209" to="-774056209" fromLane="0" toLane="0" dir="t" state="M"/>
    <connection from="778474601" to="778474602" fromLane="0" toLane="0" dir="s" state="M"/>
    <connection from="778474601" to="778474602" fromLane="1" toLane="1" dir="s" state="M"/>
    <connection from="778474601" to="778474602" fromLane="2" toLane="2" dir="s" state="M"/>
    <connection from="778474602" to="754262765" fromLane="0" toLane="0" dir="s" state="M"/>
    <connection from="778474602" to="754262765" fromLane="0" toLane="1" dir="s" state="M"/>
    <connection from="778474602" to="754262765" fromLane="1" toLane="2" dir="s" state="M"/>
    <connection from="778474602" to="754262765" fromLane="2" toLane="3" dir="s" state="M"/>
    <connection from="781909616" to="733292978" fromLane="0" toLane="0" dir="s" state="M"/>
    <connection from="781909616" to="733292978" fromLane="1" toLane="1" dir="s" state="M"/>
    <connection from="781909616" to="733292978" fromLane="2" toLane="2" dir="s" state="M"/>
    <connection from="782340477" to="-782340477" fromLane="0" toLane="0" dir="t" state="m"/>

</net>
