<?xml version="1.0" encoding="UTF-8"?>

<!-- generated on 2025-03-06 08:45:40.273750 by gtfs2pt.py v1_22_0+0672-7b0ff7b5103
  options: -n test/osm.net.xml.gz <doubleminus>gtfs data/GTFS_VBB_Mitte_20190713.zip <doubleminus>date 20190713 <doubleminus>osm-routes test/osm_ptlines.xml
-->

<additional xmlns:xsi="http://www.w3.org/2001/XMLSchema-instance" xsi:noNamespaceSchemaLocation="http://sumo.dlr.de/xsd/additional_file.xsd">
    <trainStop id="000008011155_0" lane="32590636#1_0" startPos="413.08" endPos="523.08" name="S+U Alexanderplatz Bhf (Berlin)" friendlyPos="true">
        <access friendlyPos="true" lane="272757341#0_0" pos="0.06" length="1.71"/>
        <access friendlyPos="true" lane="272757341#2_0" pos="0.20" length="5.02"/>
        <access friendlyPos="true" lane="272757311_0" pos="0.00" length="5.56"/>
        <access friendlyPos="true" lane="272757341#1_0" pos="0.13" length="6.66"/>
        <access friendlyPos="true" lane="272757273_0" pos="0.00" length="7.91"/>
        <access friendlyPos="true" lane="272757271_0" pos="0.00" length="10.52"/>
        <access friendlyPos="true" lane="272757274_0" pos="7.28" length="9.50"/>
        <access friendlyPos="true" lane="272757314_0" pos="2.41" length="11.73"/>
        <access friendlyPos="true" lane="272757342#1_0" pos="10.46" length="15.24"/>
        <access friendlyPos="true" lane="272757322#0_0" pos="0.00" length="20.24"/>
    </trainStop>
    <trainStop id="000008011306_0" lane="25946656#1_0" startPos="7.11" endPos="117.11" name="S+U Friedrichstr. Bhf (Berlin)" friendlyPos="true">
        <access friendlyPos="true" lane="254523901#1_0" pos="19.03" length="8.14"/>
        <access friendlyPos="true" lane="274524381#1_0" pos="1.57" length="19.68"/>
        <access friendlyPos="true" lane="274524381#0_0" pos="2.96" length="22.06"/>
        <access friendlyPos="true" lane="440946431_0" pos="0.00" length="23.40"/>
        <access friendlyPos="true" lane="335043665#0_0" pos="0.00" length="21.79"/>
        <access friendlyPos="true" lane="428486924_0" pos="0.00" length="22.86"/>
        <access friendlyPos="true" lane="274524361#0_0" pos="0.84" length="23.40"/>
        <access friendlyPos="true" lane="254339574_0" pos="11.20" length="27.43"/>
        <access friendlyPos="true" lane="274524361#1_0" pos="0.00" length="23.94"/>
        <access friendlyPos="true" lane="254339586_0" pos="0.00" length="27.97"/>
    </trainStop>
    <trainStop id="060007104411_0" lane="230976794#2_0" startPos="211.06" endPos="321.06" name="S Nordbahnhof (Berlin)" friendlyPos="true"/>
    <trainStop id="060007104413_0" lane="230976794#2_0" startPos="211.06" endPos="321.06" name="S Nordbahnhof (Berlin)" friendlyPos="true"/>
    <trainStop id="060007104414_0" lane="230976794#2_0" startPos="211.06" endPos="321.06" name="S Nordbahnhof (Berlin)" friendlyPos="true"/>
    <trainStop id="060100000431_0" lane="465376248_0" startPos="531.36" endPos="641.36" name="S+U Friedrichstr. Bhf (Berlin)" friendlyPos="true">
        <access friendlyPos="true" lane="254523901#1_0" pos="19.03" length="8.14"/>
        <access friendlyPos="true" lane="274524381#1_0" pos="1.57" length="19.68"/>
        <access friendlyPos="true" lane="274524381#0_0" pos="2.96" length="22.06"/>
        <access friendlyPos="true" lane="440946431_0" pos="0.00" length="23.40"/>
        <access friendlyPos="true" lane="335043665#0_0" pos="0.00" length="21.79"/>
        <access friendlyPos="true" lane="428486924_0" pos="0.00" length="22.86"/>
        <access friendlyPos="true" lane="274524361#0_0" pos="0.84" length="23.40"/>
        <access friendlyPos="true" lane="254339574_0" pos="11.20" length="27.43"/>
        <access friendlyPos="true" lane="274524361#1_0" pos="0.00" length="23.94"/>
        <access friendlyPos="true" lane="254339586_0" pos="0.00" length="27.97"/>
    </trainStop>
    <trainStop id="060100000432_0" lane="459344269_0" startPos="672.57" endPos="782.57" name="S+U Friedrichstr. Bhf (Berlin)" friendlyPos="true">
        <access friendlyPos="true" lane="254523901#1_0" pos="19.03" length="8.14"/>
        <access friendlyPos="true" lane="274524381#1_0" pos="1.57" length="19.68"/>
        <access friendlyPos="true" lane="274524381#0_0" pos="2.96" length="22.06"/>
        <access friendlyPos="true" lane="440946431_0" pos="0.00" length="23.40"/>
        <access friendlyPos="true" lane="335043665#0_0" pos="0.00" length="21.79"/>
        <access friendlyPos="true" lane="428486924_0" pos="0.00" length="22.86"/>
        <access friendlyPos="true" lane="274524361#0_0" pos="0.84" length="23.40"/>
        <access friendlyPos="true" lane="254339574_0" pos="11.20" length="27.43"/>
        <access friendlyPos="true" lane="274524361#1_0" pos="0.00" length="23.94"/>
        <access friendlyPos="true" lane="254339586_0" pos="0.00" length="27.97"/>
    </trainStop>
    <trainStop id="060100001756_0" lane="25946662#2_0" startPos="0.00" endPos="110.00" name="S+U Friedrichstr. Bhf (Berlin)" friendlyPos="true">
        <access friendlyPos="true" lane="254523901#1_0" pos="19.03" length="8.14"/>
        <access friendlyPos="true" lane="274524381#1_0" pos="1.57" length="19.68"/>
        <access friendlyPos="true" lane="274524381#0_0" pos="2.96" length="22.06"/>
        <access friendlyPos="true" lane="440946431_0" pos="0.00" length="23.40"/>
        <access friendlyPos="true" lane="335043665#0_0" pos="0.00" length="21.79"/>
        <access friendlyPos="true" lane="428486924_0" pos="0.00" length="22.86"/>
        <access friendlyPos="true" lane="274524361#0_0" pos="0.84" length="23.40"/>
        <access friendlyPos="true" lane="254339574_0" pos="11.20" length="27.43"/>
        <access friendlyPos="true" lane="274524361#1_0" pos="0.00" length="23.94"/>
        <access friendlyPos="true" lane="254339586_0" pos="0.00" length="27.97"/>
    </trainStop>
    <trainStop id="060100002734_0" lane="32590640#1_0" startPos="0.00" endPos="110.00" name="S Hackescher Markt (Berlin)" friendlyPos="true">
        <access friendlyPos="true" lane="1018271757_0" pos="3.91" length="9.31"/>
        <access friendlyPos="true" lane="377110621#0_0" pos="0.00" length="11.09"/>
        <access friendlyPos="true" lane="377110617_0" pos="2.91" length="16.51"/>
        <access friendlyPos="true" lane="377110621#1_0" pos="0.00" length="14.67"/>
        <access friendlyPos="true" lane="377110614_0" pos="0.00" length="16.93"/>
        <access friendlyPos="true" lane="377110621#2_0" pos="0.00" length="19.14"/>
        <access friendlyPos="true" lane="304514893#3_0" pos="42.95" length="16.09"/>
        <access friendlyPos="true" lane="377110615_0" pos="3.60" length="17.91"/>
        <access friendlyPos="true" lane="377110622#1_0" pos="26.23" length="24.60"/>
        <access friendlyPos="true" lane="377110622#2_0" pos="0.00" length="24.44"/>
    </trainStop>
    <trainStop id="060100003724_0" lane="25946659#2_0" startPos="0.00" endPos="110.00" name="S+U Alexanderplatz Bhf (Berlin)" friendlyPos="true">
        <access friendlyPos="true" lane="272757341#0_0" pos="0.06" length="1.71"/>
        <access friendlyPos="true" lane="272757341#2_0" pos="0.20" length="5.02"/>
        <access friendlyPos="true" lane="272757311_0" pos="0.00" length="5.56"/>
        <access friendlyPos="true" lane="272757341#1_0" pos="0.13" length="6.66"/>
        <access friendlyPos="true" lane="272757273_0" pos="0.00" length="7.91"/>
        <access friendlyPos="true" lane="272757271_0" pos="0.00" length="10.52"/>
        <access friendlyPos="true" lane="272757274_0" pos="7.28" length="9.50"/>
        <access friendlyPos="true" lane="272757314_0" pos="2.41" length="11.73"/>
        <access friendlyPos="true" lane="272757342#1_0" pos="10.46" length="15.24"/>
        <access friendlyPos="true" lane="272757322#0_0" pos="0.00" length="20.24"/>
    </trainStop>
    <trainStop id="060100004704_0" lane="32590416_0" startPos="0.00" endPos="110.00" name="S+U Jannowitzbrücke (Berlin)" friendlyPos="true">
        <access friendlyPos="true" lane="82652397#1_0" pos="70.09" length="1.79"/>
        <access friendlyPos="true" lane="156364559#0_0" pos="0.00" length="20.19"/>
        <access friendlyPos="true" lane="311247957_0" pos="42.22" length="46.55"/>
        <access friendlyPos="true" lane="343965611_0" pos="4.41" length="95.21"/>
        <access friendlyPos="true" lane="343965615#0_0" pos="0.00" length="95.21"/>
        <access friendlyPos="true" lane="72985556#0_0" pos="0.00" length="95.88"/>
        <access friendlyPos="true" lane="343965609_0" pos="4.36" length="100.07"/>
        <access friendlyPos="true" lane="72985556#1_0" pos="0.00" length="96.07"/>
        <access friendlyPos="true" lane="344594967_0" pos="0.00" length="96.78"/>
        <access friendlyPos="true" lane="4612966#0_0" pos="0.00" length="100.78"/>
    </trainStop>
    <trainStop id="060100007431_0" lane="230976793#1_0" startPos="0.00" endPos="110.00" name="S Oranienburger Str. (Berlin)" friendlyPos="true">
        <access friendlyPos="true" lane="1095407477#5_0" pos="8.02" length="0.79"/>
        <access friendlyPos="true" lane="225400596_0" pos="9.17" length="12.32"/>
        <access friendlyPos="true" lane="1192156002_0" pos="0.00" length="15.84"/>
        <access friendlyPos="true" lane="1095407477#4_0" pos="4.39" length="18.95"/>
        <access friendlyPos="true" lane="225400588#0_0" pos="7.09" length="21.01"/>
        <access friendlyPos="true" lane="465398530#3_0" pos="3.43" length="26.20"/>
        <access friendlyPos="true" lane="1095407477#3_0" pos="28.83" length="25.07"/>
        <access friendlyPos="true" lane="1069997461#1_0" pos="0.00" length="29.12"/>
        <access friendlyPos="true" lane="465398530#2_0" pos="0.20" length="28.49"/>
        <access friendlyPos="true" lane="1192156005_0" pos="0.00" length="32.98"/>
    </trainStop>
    <trainStop id="060100007432_0" lane="463462760_0" startPos="0.00" endPos="110.00" name="S Oranienburger Str. (Berlin)" friendlyPos="true">
        <access friendlyPos="true" lane="1095407477#5_0" pos="8.02" length="0.79"/>
        <access friendlyPos="true" lane="225400596_0" pos="9.17" length="12.32"/>
        <access friendlyPos="true" lane="1192156002_0" pos="0.00" length="15.84"/>
        <access friendlyPos="true" lane="1095407477#4_0" pos="4.39" length="18.95"/>
        <access friendlyPos="true" lane="225400588#0_0" pos="7.09" length="21.01"/>
        <access friendlyPos="true" lane="465398530#3_0" pos="3.43" length="26.20"/>
        <access friendlyPos="true" lane="1095407477#3_0" pos="28.83" length="25.07"/>
        <access friendlyPos="true" lane="1069997461#1_0" pos="0.00" length="29.12"/>
        <access friendlyPos="true" lane="465398530#2_0" pos="0.20" length="28.49"/>
        <access friendlyPos="true" lane="1192156005_0" pos="0.00" length="32.98"/>
    </trainStop>
    <trainStop id="060100025432_0" lane="459344269_0" startPos="22.17" endPos="132.17" name="S+U Brandenburger Tor (Berlin)" friendlyPos="true">
        <access friendlyPos="true" lane="915958593#3_0" pos="126.01" length="0.46"/>
        <access friendlyPos="true" lane="317859982#3_0" pos="23.40" length="11.63"/>
        <access friendlyPos="true" lane="1169204832_0" pos="1.22" length="16.34"/>
        <access friendlyPos="true" lane="1169204816_0" pos="14.64" length="16.46"/>
        <access friendlyPos="true" lane="915958593#4_0" pos="65.65" length="17.11"/>
        <access friendlyPos="true" lane="1169204836_0" pos="3.59" length="17.28"/>
        <access friendlyPos="true" lane="1169204835_0" pos="0.00" length="20.36"/>
        <access friendlyPos="true" lane="541320665#2_0" pos="1.49" length="20.75"/>
        <access friendlyPos="true" lane="1169204833_0" pos="2.43" length="20.93"/>
        <access friendlyPos="true" lane="1169204820_0" pos="0.00" length="21.11"/>
    </trainStop>
    <trainStop id="060100025441_0" lane="394320752#1_0" startPos="443.87" endPos="553.87" name="S+U Brandenburger Tor (Berlin)" friendlyPos="true">
        <access friendlyPos="true" lane="915958593#3_0" pos="126.01" length="0.46"/>
        <access friendlyPos="true" lane="317859982#3_0" pos="23.40" length="11.63"/>
        <access friendlyPos="true" lane="1169204832_0" pos="1.22" length="16.34"/>
        <access friendlyPos="true" lane="1169204816_0" pos="14.64" length="16.46"/>
        <access friendlyPos="true" lane="915958593#4_0" pos="65.65" length="17.11"/>
        <access friendlyPos="true" lane="1169204836_0" pos="3.59" length="17.28"/>
        <access friendlyPos="true" lane="1169204835_0" pos="0.00" length="20.36"/>
        <access friendlyPos="true" lane="541320665#2_0" pos="1.49" length="20.75"/>
        <access friendlyPos="true" lane="1169204833_0" pos="2.43" length="20.93"/>
        <access friendlyPos="true" lane="1169204820_0" pos="0.00" length="21.11"/>
    </trainStop>
    <busStop id="070101005118_0" lane="-755551646#0_1" startPos="91.50" endPos="104.50" name="Berlin, Fischerinsel." friendlyPos="true">
        <access friendlyPos="true" lane="1228652562#2_0" pos="21.37" length="11.49"/>
        <access friendlyPos="true" lane="1199398236_0" pos="0.62" length="14.69"/>
        <access friendlyPos="true" lane="1199398238#2_0" pos="4.00" length="15.55"/>
        <access friendlyPos="true" lane="1199398238#1_0" pos="13.57" length="20.59"/>
        <access friendlyPos="true" lane="-684542992#0_0" pos="0.00" length="29.71"/>
        <access friendlyPos="true" lane="1199398238#3_0" pos="0.00" length="35.70"/>
        <access friendlyPos="true" lane="684542992#0_0" pos="3.65" length="33.74"/>
        <access friendlyPos="true" lane="43139878#3_0" pos="0.29" length="37.16"/>
        <access friendlyPos="true" lane="-43139878#3_0" pos="0.00" length="41.81"/>
        <access friendlyPos="true" lane="43139878#2_0" pos="10.91" length="40.54"/>
    </busStop>
    <busStop id="070101005139_0" lane="319339413_0" startPos="214.35" endPos="227.35" name="U Rosa-Luxemburg-Platz (Berlin)" friendlyPos="true">
        <access friendlyPos="true" lane="1212774062_0" pos="89.10" length="32.51"/>
        <access friendlyPos="true" lane="1071049481#4_0" pos="0.20" length="43.82"/>
        <access friendlyPos="true" lane="1212774061_0" pos="0.00" length="46.92"/>
        <access friendlyPos="true" lane="1071007455#0_0" pos="0.00" length="48.86"/>
        <access friendlyPos="true" lane="1071049481#3_0" pos="48.70" length="52.01"/>
        <access friendlyPos="true" lane="1071049479#0_0" pos="0.00" length="53.62"/>
        <access friendlyPos="true" lane="1071049479#1_0" pos="0.00" length="90.43"/>
        <access friendlyPos="true" lane="1071049477#1_0" pos="0.00" length="76.29"/>
        <access friendlyPos="true" lane="1212774064#5_0" pos="8.46" length="86.33"/>
        <access friendlyPos="true" lane="1219518637#0_0" pos="95.74" length="101.87"/>
    </busStop>
    <busStop id="070101005142_0" lane="-169717723#2_0" startPos="32.01" endPos="45.01" name="Berlin, Torstr./U Oranienburger Tor" friendlyPos="true">
        <access friendlyPos="true" lane="374734397#3_0" pos="45.77" length="2.17"/>
        <access friendlyPos="true" lane="1352908832#1_0" pos="0.00" length="4.79"/>
        <access friendlyPos="true" lane="1184308669_0" pos="0.20" length="3.74"/>
        <access friendlyPos="true" lane="504171783#0_0" pos="0.00" length="13.51"/>
        <access friendlyPos="true" lane="1068129615#1_0" pos="3.78" length="13.09"/>
        <access friendlyPos="true" lane="1184308667#2_0" pos="0.20" length="22.12"/>
        <access friendlyPos="true" lane="1068129615#0_0" pos="0.20" length="26.84"/>
        <access friendlyPos="true" lane="1068129616#1_0" pos="0.00" length="35.92"/>
        <access friendlyPos="true" lane="1158428731#0_0" pos="5.34" length="33.58"/>
        <access friendlyPos="true" lane="1069677813_0" pos="0.00" length="35.82"/>
    </busStop>
    <busStop id="070101005145_0" lane="-1100903090#1_0" startPos="0.00" endPos="13.00" name="Berlin, Robert-Koch-Platz" friendlyPos="true">
        <access friendlyPos="true" lane="504171782#12_0" pos="84.99" length="123.32"/>
    </busStop>
    <busStop id="070101005146_0" lane="169717723#1_0" startPos="0.00" endPos="13.00" name="Berlin, Torstr./U Oranienburger Tor" friendlyPos="true">
        <access friendlyPos="true" lane="374734397#3_0" pos="45.77" length="2.17"/>
        <access friendlyPos="true" lane="1352908832#1_0" pos="0.00" length="4.79"/>
        <access friendlyPos="true" lane="1184308669_0" pos="0.20" length="3.74"/>
        <access friendlyPos="true" lane="504171783#0_0" pos="0.00" length="13.51"/>
        <access friendlyPos="true" lane="1068129615#1_0" pos="3.78" length="13.09"/>
        <access friendlyPos="true" lane="1184308667#2_0" pos="0.20" length="22.12"/>
        <access friendlyPos="true" lane="1068129615#0_0" pos="0.20" length="26.84"/>
        <access friendlyPos="true" lane="1068129616#1_0" pos="0.00" length="35.92"/>
        <access friendlyPos="true" lane="1158428731#0_0" pos="5.34" length="33.58"/>
        <access friendlyPos="true" lane="1069677813_0" pos="0.00" length="35.82"/>
    </busStop>
    <busStop id="070101005149_0" lane="1105526087_0" startPos="0.00" endPos="13.00" name="U Rosa-Luxemburg-Platz (Berlin)" friendlyPos="true">
        <access friendlyPos="true" lane="1212774062_0" pos="89.10" length="32.51"/>
        <access friendlyPos="true" lane="1071049481#4_0" pos="0.20" length="43.82"/>
        <access friendlyPos="true" lane="1212774061_0" pos="0.00" length="46.92"/>
        <access friendlyPos="true" lane="1071007455#0_0" pos="0.00" length="48.86"/>
        <access friendlyPos="true" lane="1071049481#3_0" pos="48.70" length="52.01"/>
        <access friendlyPos="true" lane="1071049479#0_0" pos="0.00" length="53.62"/>
        <access friendlyPos="true" lane="1071049479#1_0" pos="0.00" length="90.43"/>
        <access friendlyPos="true" lane="1071049477#1_0" pos="0.00" length="76.29"/>
        <access friendlyPos="true" lane="1212774064#5_0" pos="8.46" length="86.33"/>
        <access friendlyPos="true" lane="1219518637#0_0" pos="95.74" length="101.87"/>
    </busStop>
    <busStop id="070101005153_0" lane="120359703_1" startPos="22.30" endPos="35.30" name="U Spittelmarkt (Berlin)" friendlyPos="true">
        <access friendlyPos="true" lane="312744264_0" pos="24.08" length="28.22"/>
        <access friendlyPos="true" lane="1195383146#1_0" pos="36.26" length="72.73"/>
        <access friendlyPos="true" lane="1301027747#1_0" pos="389.55" length="90.37"/>
        <access friendlyPos="true" lane="1195383171_0" pos="0.00" length="95.39"/>
        <access friendlyPos="true" lane="1195383145#1_0" pos="54.51" length="98.97"/>
        <access friendlyPos="true" lane="1195383172_0" pos="0.00" length="103.41"/>
        <access friendlyPos="true" lane="1195383146#0_0" pos="0.20" length="100.61"/>
        <access friendlyPos="true" lane="24607786_0" pos="78.60" length="105.81"/>
        <access friendlyPos="true" lane="-36958426_0" pos="33.17" length="108.80"/>
        <access friendlyPos="true" lane="4611723_2" pos="6.47" length="116.50"/>
    </busStop>
    <busStop id="070101005157_0" lane="1100903090#1_0" startPos="2.70" endPos="15.70" name="Berlin, Robert-Koch-Platz" friendlyPos="true">
        <access friendlyPos="true" lane="504171782#12_0" pos="84.99" length="123.32"/>
    </busStop>
    <busStop id="070101005163_0" lane="4612431#0_1" startPos="0.00" endPos="13.00" name="U Heinrich-Heine-Str. (Berlin)" friendlyPos="true">
        <access friendlyPos="true" lane="-4612431#1_0" pos="92.80" length="34.32"/>
        <access friendlyPos="true" lane="1134020214#1_0" pos="150.22" length="56.95"/>
        <access friendlyPos="true" lane="-83510030_0" pos="0.00" length="134.90"/>
        <access friendlyPos="true" lane="83510030_0" pos="129.01" length="143.16"/>
    </busStop>
    <busStop id="070101005164_0" lane="18997847#0_2" startPos="14.39" endPos="27.39" name="S+U Jannowitzbrücke (Berlin)" friendlyPos="true"/>
    <busStop id="070101005178_0" lane="22954357#1_1" startPos="0.00" endPos="13.00" name="U Märkisches Museum (Berlin)" friendlyPos="true"/>
    <busStop id="070101005179_0" lane="753730627#1_0" startPos="0.00" endPos="13.00" name="Berlin, Fischerinsel" friendlyPos="true">
        <access friendlyPos="true" lane="1199398249#1_0" pos="2.32" length="19.41"/>
        <access friendlyPos="true" lane="1195383166#1_0" pos="0.20" length="20.12"/>
        <access friendlyPos="true" lane="1228652562#2_0" pos="71.32" length="24.95"/>
        <access friendlyPos="true" lane="1195383164#1_0" pos="0.23" length="24.83"/>
        <access friendlyPos="true" lane="1195383157#5_0" pos="1.16" length="32.19"/>
        <access friendlyPos="true" lane="1199398247#1_0" pos="0.00" length="31.13"/>
        <access friendlyPos="true" lane="1199398243#1_0" pos="0.00" length="30.98"/>
        <access friendlyPos="true" lane="1199398245_0" pos="1.22" length="41.43"/>
        <access friendlyPos="true" lane="1195383160#0_0" pos="0.00" length="34.75"/>
        <access friendlyPos="true" lane="1199398244_0" pos="0.20" length="38.67"/>
    </busStop>
    <busStop id="070101005222_0" lane="-1127602336_2" startPos="0.00" endPos="13.00" name="Berlin, Werderscher Markt" friendlyPos="true"/>
    <busStop id="070101005224_0" lane="1100889498_0" startPos="0.00" endPos="13.00" name="Berlin, Friedrichstr./Reinhardtstr." friendlyPos="true">
        <access friendlyPos="true" lane="1087301095#1_0" pos="87.42" length="4.95"/>
        <access friendlyPos="true" lane="465376251#2_0" pos="25.11" length="18.21"/>
        <access friendlyPos="true" lane="1232425168#5_0" pos="31.83" length="43.22"/>
        <access friendlyPos="true" lane="-27628628#0_0" pos="0.69" length="43.80"/>
        <access friendlyPos="true" lane="465376251#1_0" pos="0.20" length="43.97"/>
        <access friendlyPos="true" lane="-27628628#1_0" pos="0.00" length="44.07"/>
        <access friendlyPos="true" lane="27628628#0_0" pos="0.00" length="48.36"/>
        <access friendlyPos="true" lane="27628628#1_0" pos="0.20" length="48.82"/>
        <access friendlyPos="true" lane="465376251#0_0" pos="9.64" length="54.51"/>
        <access friendlyPos="true" lane="-1249563427_0" pos="0.00" length="72.98"/>
    </busStop>
    <busStop id="070101005225_0" lane="176043807#3_0" startPos="10.22" endPos="23.22" name="Berlin, Deutsches Theater" friendlyPos="true">
        <access friendlyPos="true" lane="1225644852#4_0" pos="18.10" length="3.82"/>
        <access friendlyPos="true" lane="1225644854#1_0" pos="20.90" length="18.58"/>
        <access friendlyPos="true" lane="1225644854#2_0" pos="0.00" length="18.70"/>
        <access friendlyPos="true" lane="1181318842_0" pos="0.20" length="20.88"/>
        <access friendlyPos="true" lane="1181318844_0" pos="1.56" length="20.45"/>
        <access friendlyPos="true" lane="582998123_0" pos="43.54" length="23.21"/>
        <access friendlyPos="true" lane="-256678741#1_0" pos="8.14" length="37.53"/>
        <access friendlyPos="true" lane="1225644853#1_0" pos="0.00" length="38.93"/>
        <access friendlyPos="true" lane="1225644852#5_0" pos="0.00" length="40.42"/>
        <access friendlyPos="true" lane="1225644853#0_0" pos="0.20" length="41.99"/>
    </busStop>
    <busStop id="070101005227_0" lane="-176043807#4_0" startPos="5.09" endPos="18.09" name="Berlin, Deutsches Theater" friendlyPos="true">
        <access friendlyPos="true" lane="1225644852#4_0" pos="18.10" length="3.82"/>
        <access friendlyPos="true" lane="1225644854#1_0" pos="20.90" length="18.58"/>
        <access friendlyPos="true" lane="1225644854#2_0" pos="0.00" length="18.70"/>
        <access friendlyPos="true" lane="1181318842_0" pos="0.20" length="20.88"/>
        <access friendlyPos="true" lane="1181318844_0" pos="1.56" length="20.45"/>
        <access friendlyPos="true" lane="582998123_0" pos="43.54" length="23.21"/>
        <access friendlyPos="true" lane="-256678741#1_0" pos="8.14" length="37.53"/>
        <access friendlyPos="true" lane="1225644853#1_0" pos="0.00" length="38.93"/>
        <access friendlyPos="true" lane="1225644852#5_0" pos="0.00" length="40.42"/>
        <access friendlyPos="true" lane="1225644853#0_0" pos="0.20" length="41.99"/>
    </busStop>
    <busStop id="070101005228_0" lane="-1100824590#0_0" startPos="50.47" endPos="63.47" name="Berlin, Friedrichstr./Reinhardtstr." friendlyPos="true">
        <access friendlyPos="true" lane="1087301095#1_0" pos="87.42" length="4.95"/>
        <access friendlyPos="true" lane="465376251#2_0" pos="25.11" length="18.21"/>
        <access friendlyPos="true" lane="1232425168#5_0" pos="31.83" length="43.22"/>
        <access friendlyPos="true" lane="-27628628#0_0" pos="0.69" length="43.80"/>
        <access friendlyPos="true" lane="465376251#1_0" pos="0.20" length="43.97"/>
        <access friendlyPos="true" lane="-27628628#1_0" pos="0.00" length="44.07"/>
        <access friendlyPos="true" lane="27628628#0_0" pos="0.00" length="48.36"/>
        <access friendlyPos="true" lane="27628628#1_0" pos="0.20" length="48.82"/>
        <access friendlyPos="true" lane="465376251#0_0" pos="9.64" length="54.51"/>
        <access friendlyPos="true" lane="-1249563427_0" pos="0.00" length="72.98"/>
    </busStop>
    <busStop id="070101005230_0" lane="1127602336_2" startPos="20.29" endPos="33.29" name="Berlin, Werderscher Markt" friendlyPos="true"/>
    <busStop id="070101005235_0" lane="312533962#1_0" startPos="0.00" endPos="13.00" name="Berlin, Alexanderstr." friendlyPos="true">
        <access friendlyPos="true" lane="830728710#0_0" pos="14.59" length="36.53"/>
        <access friendlyPos="true" lane="473081308#0_0" pos="0.00" length="46.66"/>
        <access friendlyPos="true" lane="1186656843#0_0" pos="8.66" length="50.89"/>
        <access friendlyPos="true" lane="749876418#2_0" pos="24.06" length="78.08"/>
        <access friendlyPos="true" lane="334070743#1_0" pos="0.00" length="74.08"/>
        <access friendlyPos="true" lane="473081308#1_0" pos="0.00" length="77.55"/>
        <access friendlyPos="true" lane="334070743#0_0" pos="0.20" length="76.36"/>
        <access friendlyPos="true" lane="-1186656843#1_0" pos="0.00" length="62.65"/>
        <access friendlyPos="true" lane="380636480#0_0" pos="0.00" length="68.56"/>
        <access friendlyPos="true" lane="-194962398#2_0" pos="0.00" length="77.31"/>
    </busStop>
    <busStop id="070101005242_0" lane="1126244314#1_1" startPos="67.19" endPos="80.19" name="Berlin, Lustgarten" friendlyPos="true">
        <access friendlyPos="true" lane="1173733854#1_0" pos="64.73" length="19.79"/>
        <access friendlyPos="true" lane="1181092879#0_0" pos="11.12" length="22.86"/>
        <access friendlyPos="true" lane="4773023#0_0" pos="0.00" length="24.84"/>
        <access friendlyPos="true" lane="1048127663#0_0" pos="0.00" length="30.97"/>
        <access friendlyPos="true" lane="4773024#0_0" pos="0.00" length="31.09"/>
        <access friendlyPos="true" lane="974193167#1_0" pos="34.47" length="33.68"/>
        <access friendlyPos="true" lane="1170011367#1_0" pos="2.44" length="33.18"/>
        <access friendlyPos="true" lane="1254634273#1_0" pos="1.03" length="31.46"/>
        <access friendlyPos="true" lane="1254634274#1_0" pos="0.20" length="35.52"/>
        <access friendlyPos="true" lane="1254634273#2_0" pos="0.00" length="35.90"/>
    </busStop>
    <busStop id="070101005243_0" lane="61584187#1_0" startPos="5.50" endPos="18.50" name="Berlin, Lustgarten" friendlyPos="true">
        <access friendlyPos="true" lane="1173733854#1_0" pos="64.73" length="19.79"/>
        <access friendlyPos="true" lane="1181092879#0_0" pos="11.12" length="22.86"/>
        <access friendlyPos="true" lane="4773023#0_0" pos="0.00" length="24.84"/>
        <access friendlyPos="true" lane="1048127663#0_0" pos="0.00" length="30.97"/>
        <access friendlyPos="true" lane="4773024#0_0" pos="0.00" length="31.09"/>
        <access friendlyPos="true" lane="974193167#1_0" pos="34.47" length="33.68"/>
        <access friendlyPos="true" lane="1170011367#1_0" pos="2.44" length="33.18"/>
        <access friendlyPos="true" lane="1254634273#1_0" pos="1.03" length="31.46"/>
        <access friendlyPos="true" lane="1254634274#1_0" pos="0.20" length="35.52"/>
        <access friendlyPos="true" lane="1254634273#2_0" pos="0.00" length="35.90"/>
    </busStop>
    <busStop id="070101005262_0" lane="4773464#0_0" startPos="0.00" endPos="13.00" name="U Spittelmarkt (Berlin)" friendlyPos="true">
        <access friendlyPos="true" lane="312744264_0" pos="24.08" length="28.22"/>
        <access friendlyPos="true" lane="1195383146#1_0" pos="36.26" length="72.73"/>
        <access friendlyPos="true" lane="1301027747#1_0" pos="389.55" length="90.37"/>
        <access friendlyPos="true" lane="1195383171_0" pos="0.00" length="95.39"/>
        <access friendlyPos="true" lane="1195383145#1_0" pos="54.51" length="98.97"/>
        <access friendlyPos="true" lane="1195383172_0" pos="0.00" length="103.41"/>
        <access friendlyPos="true" lane="1195383146#0_0" pos="0.20" length="100.61"/>
        <access friendlyPos="true" lane="24607786_0" pos="78.60" length="105.81"/>
        <access friendlyPos="true" lane="-36958426_0" pos="33.17" length="108.80"/>
        <access friendlyPos="true" lane="4611723_2" pos="6.47" length="116.50"/>
    </busStop>
    <busStop id="070101005357_0" lane="328426208#0_0" startPos="23.49" endPos="36.49" name="Berlin, Fischerinsel" friendlyPos="true">
        <access friendlyPos="true" lane="1199398249#1_0" pos="2.32" length="19.41"/>
        <access friendlyPos="true" lane="1195383166#1_0" pos="0.20" length="20.12"/>
        <access friendlyPos="true" lane="1228652562#2_0" pos="71.32" length="24.95"/>
        <access friendlyPos="true" lane="1195383164#1_0" pos="0.23" length="24.83"/>
        <access friendlyPos="true" lane="1195383157#5_0" pos="1.16" length="32.19"/>
        <access friendlyPos="true" lane="1199398247#1_0" pos="0.00" length="31.13"/>