<?xml version="1.0" encoding="UTF-8"?>

<!-- generated on 2022-02-17 14:44:12 by Eclipse SUMO netedit Version v1_12_0+0643-1e72016e5f9
-->

<routes xmlns:xsi="http://www.w3.org/2001/XMLSchema-instance" xsi:noNamespaceSchemaLocation="http://sumo.dlr.de/xsd/routes_file.xsd">
    <flow id="f_0" begin="0.00" from="gneE2" to="gneE5" end="3600.00" probability="0.50"/>
</routes>
