<routes>    
    <vType id="car" sigma="0" width="2.1"/>
    <person id="p0" depart="0">
        <walk edges="beg end" departPos="-10"/>
    </person>
    <flow id="car" type="car" begin="0" period="5" number="1" departSpeed="max">
        <route edges="beg end"/>
    </flow>
</routes>
