<?xml version="1.0" encoding="UTF-8"?>

<!-- generated on Mon Feb 17 15:31:03 2020 by Eclipse SUMO netconvert Version v1_5_0+0130-ceb0a01
This data file and the accompanying materials
are made available under the terms of the Eclipse Public License v2.0
which accompanies this distribution, and is available at
http://www.eclipse.org/legal/epl-v20.html
SPDX-License-Identifier: EPL-2.0
<configuration xmlns:xsi="http://www.w3.org/2001/XMLSchema-instance" xsi:noNamespaceSchemaLocation="http://sumo.dlr.de/xsd/netconvertConfiguration.xsd">

    <input>
        <node-files value="input_plain.nod.xml"/>
        <edge-files value="input_plain.edg.xml"/>
        <connection-files value="input_plain.con.xml"/>
    </input>

    <output>
        <write-license value="true"/>
        <output-file value="net.net.xml"/>
    </output>

    <ramp_guessing>
        <ramps.guess value="true"/>
    </ramp_guessing>

    <junctions>
        <no-internal-links value="true"/>
    </junctions>

    <report>
        <xml-validation value="never"/>
        <aggregate-warnings value="5"/>
    </report>

</configuration>
-->

<net version="1.6" junctionCornerDetail="5" limitTurnSpeed="5.50" xmlns:xsi="http://www.w3.org/2001/XMLSchema-instance" xsi:noNamespaceSchemaLocation="http://sumo.dlr.de/xsd/net_file.xsd">

    <location netOffset="47.30,4.42" convBoundary="0.00,0.00,276.09,34.95" origBoundary="-10000000000.00,-10000000000.00,10000000000.00,10000000000.00" projParameter="!"/>

    <edge id="A" from="gneJ0" to="gneJ1" priority="1">
        <lane id="A_0" index="0" speed="30.00" length="77.48" shape="-0.01,30.15 73.43,29.95"/>
        <lane id="A_1" index="1" speed="30.00" length="77.48" shape="-0.00,33.35 73.44,33.15"/>
    </edge>
    <edge id="B" from="B-AddedOnRampNode" to="gneJ2" priority="1">
        <lane id="B_0" index="0" speed="30.00" length="52.72" shape="177.40,25.85 225.86,25.42"/>
        <lane id="B_1" index="1" speed="30.00" length="52.72" shape="177.43,29.05 225.88,28.62"/>
        <lane id="B_2" index="2" speed="30.00" length="52.72" shape="177.46,32.25 225.91,31.82"/>
    </edge>
    <edge id="B-AddedOnRampEdge" from="gneJ1" to="B-AddedOnRampNode" priority="1">
        <lane id="B-AddedOnRampEdge_0" index="0" speed="30.00" length="100.00" acceleration="1" shape="82.25,26.70 177.40,25.85"/>
        <lane id="B-AddedOnRampEdge_1" index="1" speed="30.00" length="100.00" shape="82.27,29.90 177.43,29.05"/>
        <lane id="B-AddedOnRampEdge_2" index="2" speed="30.00" length="100.00" shape="82.30,33.10 177.46,32.25"/>
    </edge>
    <edge id="C" from="gneJ2" to="gneJ3" priority="1">
        <lane id="C_0" index="0" speed="30.00" length="45.90" shape="234.26,28.64 276.16,29.21"/>
        <lane id="C_1" index="1" speed="30.00" length="45.90" shape="234.21,31.84 276.11,32.41"/>
    </edge>
    <edge id="off" from="gneJ2" to="gneJ5" priority="1" shape="230.13,26.98 274.20,19.27">
        <lane id="off_0" index="0" speed="30.00" length="48.72" shape="234.06,24.67 273.92,17.69"/>
    </edge>
    <edge id="on" from="gneJ4" to="gneJ1" priority="1" shape="25.90,0.00 77.42,28.34">
        <lane id="on_0" index="0" speed="30.00" length="63.70" shape="26.67,-1.40 73.96,24.61"/>
    </edge>

    <junction id="B-AddedOnRampNode" type="priority" x="177.48" y="33.85" incLanes="B-AddedOnRampEdge_0 B-AddedOnRampEdge_1 B-AddedOnRampEdge_2" intLanes="" shape="177.48,33.85 177.39,24.25 177.48,33.85">
        <request index="0" response="000" foes="000"/>
        <request index="1" response="000" foes="000"/>
        <request index="2" response="000" foes="000"/>
    </junction>
    <junction id="gneJ0" type="dead_end" x="0.00" y="34.95" incLanes="" intLanes="" shape="0.00,34.95 -0.02,28.55"/>
    <junction id="gneJ1" type="priority" x="77.48" y="34.74" incLanes="on_0 A_0 A_1" intLanes="" shape="82.32,34.70 82.23,25.10 79.32,25.04 78.30,24.86 77.32,24.53 76.19,24.00 74.73,23.21 73.18,26.01 73.42,28.35 73.44,34.75">
        <request index="0" response="000" foes="000"/>
        <request index="1" response="000" foes="000"/>
        <request index="2" response="000" foes="000"/>
    </junction>
    <junction id="gneJ2" type="priority" x="230.19" y="33.38" incLanes="B_0 B_1 B_2" intLanes="" shape="234.19,33.43 234.28,27.04 234.33,26.25 233.78,23.09 230.86,23.58 229.83,23.70 228.80,23.77 227.54,23.80 225.84,23.82 225.93,33.42">
        <request index="0" response="0000" foes="0010"/>
        <request index="1" response="0001" foes="0001"/>
        <request index="2" response="0000" foes="0000"/>
        <request index="3" response="0000" foes="0000"/>
    </junction>
    <junction id="gneJ3" type="dead_end" x="276.09" y="34.01" incLanes="C_0 C_1" intLanes="" shape="276.18,27.61 276.09,34.01"/>
    <junction id="gneJ4" type="dead_end" x="25.90" y="0.00" incLanes="" intLanes="" shape="25.90,0.00 27.44,-2.80"/>
    <junction id="gneJ5" type="dead_end" x="274.20" y="19.27" incLanes="off_0" intLanes="" shape="273.65,16.12 274.20,19.27"/>

    <connection from="A" to="B-AddedOnRampEdge" fromLane="0" toLane="1" dir="s" state="M"/>
    <connection from="A" to="B-AddedOnRampEdge" fromLane="1" toLane="2" dir="s" state="M"/>
    <connection from="B" to="off" fromLane="0" toLane="0" dir="R" state="M"/>
    <connection from="B" to="off" fromLane="1" toLane="0" dir="R" state="m"/>
    <connection from="B" to="C" fromLane="1" toLane="0" dir="s" state="M"/>
    <connection from="B" to="C" fromLane="2" toLane="1" dir="s" state="M"/>
    <connection from="B-AddedOnRampEdge" to="B" fromLane="0" toLane="0" dir="s" state="M"/>
    <connection from="B-AddedOnRampEdge" to="B" fromLane="1" toLane="1" dir="s" state="M"/>
    <connection from="B-AddedOnRampEdge" to="B" fromLane="2" toLane="2" dir="s" state="M"/>
    <connection from="on" to="B-AddedOnRampEdge" fromLane="0" toLane="0" dir="s" state="M"/>

</net>
