<?xml version="1.0" encoding="UTF-8"?>

<!-- generated on 29/12/2016 9:44:52 by Netedit Version dev-SVN-r22364
<?xml version="1.0" encoding="UTF-8"?>

<configuration xmlns:xsi="http://www.w3.org/2001/XMLSchema-instance" xsi:noNamespaceSchemaLocation="http://sumo.dlr.de/xsd/netedit.exeConfiguration.xsd">

    <input>
        <new value="true"/>
        <additionals-output value="C:/Users/Palcraft/.texttest/tmp/netedit.server.29Dec094048.4216/netedit.server/additionalElements/busstop/create\additionals.xml"/>
    </input>

    <output>
        <output-file value="C:\Users\Palcraft\Desktop\net.net.xml"/>
        <plain-output-prefix value="C:\Users\Palcraft\Desktop\input_net"/>
    </output>

    <processing>
        <no-turnarounds value="true"/>
        <offset.disable-normalization value="true"/>
    </processing>

    <visualisation>
        <window-size value="700,500"/>
        <gui-testing value="true"/>
    </visualisation>

    <report>
        <no-warnings value="true"/>
        <error-log value="C:/Users/Palcraft/.texttest/tmp/netedit.server.29Dec094048.4216/netedit.server/additionalElements/busstop/create\log.txt"/>
    </report>

</configuration>
-->

<nodes version="0.27" xmlns:xsi="http://www.w3.org/2001/XMLSchema-instance" xsi:noNamespaceSchemaLocation="http://sumo.dlr.de/xsd/nodes_file.xsd">
    <location netOffset="0.00,0.00" convBoundary="-25.00,0.00,25.00,0.00" origBoundary="10000000000.00,10000000000.00,-10000000000.00,-10000000000.00" projParameter="!"/>

    <node id="gneJ0" x="-25.00" y="0.00" type="dead_end"/>
    <node id="gneJ1" x="25.00" y="0.00" type="dead_end"/>
</nodes>
