<?xml version="1.0" encoding="UTF-8"?>

<!-- generated on Wed Jul  3 11:20:57 2013 by SUMO netconvert Version dev-SVN-r14256
<?xml version="1.0" encoding="UTF-8"?>

<configuration xmlns:xsi="http://www.w3.org/2001/XMLSchema-instance" xsi:noNamespaceSchemaLocation="http://sumo-sim.org/xsd/netconvertConfiguration.xsd">

    <input>
        <node-files value="input_plain.nod.xml"/>
        <edge-files value="input_plain.edg.xml"/>
    </input>

    <output>
        <output-file value="net.net.xml"/>
    </output>

    <processing>
        <no-internal-links value="true"/>
        <check-lane-foes.all value="true"/>
    </processing>

</configuration>
-->

<net version="0.13" xmlns:xsi="http://www.w3.org/2001/XMLSchema-instance" xsi:noNamespaceSchemaLocation="http://sumo-sim.org/xsd/net_file.xsd">

    <location netOffset="26.66,-2.78" convBoundary="0.00,0.00,200.00,50.00" origBoundary="0.00,0.00,2415.53,1274.55" projParameter="!"/>

    <edge id="main1" from="gneJ0" to="gneJ1" priority="1">
        <lane id="main1_0" index="0" speed="33.89" length="100.00" shape="0.00,1.75 98.50,1.75"/>
        <lane id="main1_1" index="1" speed="33.89" length="100.00" shape="0.00,5.05 98.50,5.05"/>
        <lane id="main1_2" index="2" speed="33.89" length="100.00" shape="0.00,8.35 98.50,8.35"/>
    </edge>
    <edge id="main2" from="gneJ1" to="gneJ2" priority="1">
        <lane id="main2_0" index="0" speed="33.89" length="100.00" shape="101.50,5.05 200.00,5.05"/>
        <lane id="main2_1" index="1" speed="33.89" length="100.00" shape="101.50,8.35 200.00,8.35"/>
    </edge>
    <edge id="ramp" from="gneJ1" to="gneJ3" priority="1" shape="100.00,10.00 125.00,10.00 160.00,0.00 180.00,20.00 200.00,50.00">
        <lane id="ramp_0" index="0" speed="13.89" length="125.74" shape="101.50,8.35 124.77,8.35 160.48,-1.85 181.28,18.95 201.37,49.08"/>
    </edge>

    <junction id="gneJ0" type="unregulated" x="0.00" y="10.00" incLanes="" intLanes="" shape="-0.00,9.95 -0.00,0.15"/>
    <junction id="gneJ1" type="priority" x="100.00" y="10.00" incLanes="main1_0 main1_1 main1_2" intLanes="" shape="101.50,9.95 101.50,3.45 98.50,0.15 98.50,9.95">
        <request index="0" response="000" foes="000"/>
        <request index="1" response="000" foes="000"/>
        <request index="2" response="000" foes="000"/>
    </junction>
    <junction id="gneJ2" type="unregulated" x="200.00" y="10.00" incLanes="main2_0 main2_1" intLanes="" shape="200.00,3.45 200.00,9.95"/>
    <junction id="gneJ3" type="unregulated" x="200.00" y="50.00" incLanes="ramp_0" intLanes="" shape="202.70,48.20 200.04,49.97"/>

    <connection from="main1" to="ramp" fromLane="0" toLane="0" pass="1" dir="s" state="M"/>
    <connection from="main1" to="main2" fromLane="1" toLane="0" pass="1" dir="s" state="M"/>
    <connection from="main1" to="main2" fromLane="2" toLane="1" pass="1" dir="s" state="M"/>

</net>
