<nodes xmlns:xsi='http://www.w3.org/2001/XMLSchema-instance' xsi:noNamespaceSchemaLocation='http://sumo.sf.net/xsd/nodes_file.xsd'>
   <node id="0" x="12.014694" y="48.121459"/>
   <node id="1" x="12.061386" y="48.087529"/>
</nodes>
