<routes>
   <vType id="DEFAULT_VEHTYPE" sigma="0"/>
    <vehicle id="lane_change_before_leaving" depart="0" departLane="0" arrivalLane="1">
        <route edges="1si"/>
    </vehicle>
</routes>
