<?xml version="1.0" encoding="UTF-8"?>

<!-- generated on Wed Apr 20 15:44:31 2016 by SUMO netconvert Version dev-SVN-r20491
<?xml version="1.0" encoding="UTF-8"?>

<configuration xmlns:xsi="http://www.w3.org/2001/XMLSchema-instance" xsi:noNamespaceSchemaLocation="http://sumo.dlr.de/xsd/netconvertConfiguration.xsd">

    <input>
        <sumo-net-file value="input_net.net.xml"/>
    </input>

    <output>
        <output-file value="net.net.xml"/>
        <plain-output-prefix value="plain"/>
    </output>

    <processing>
        <no-turnarounds value="true"/>
        <offset.disable-normalization value="true"/>
        <lefthand value="false"/>
        <junctions.corner-detail value="0"/>
    </processing>

    <report>
        <xml-validation value="never"/>
    </report>

</configuration>
-->

<connections version="0.27" xmlns:xsi="http://www.w3.org/2001/XMLSchema-instance" xsi:noNamespaceSchemaLocation="http://sumo.dlr.de/xsd/connections_file.xsd">
    <connection from="edge_with_shape" to="reverse_edge" fromLane="0" toLane="0"/>
    <connection from="edge_with_shape" to="reverse_edge" fromLane="1" toLane="1"/>
    <connection from="edge_with_shape" to="reverse_edge" fromLane="2" toLane="2"/>

    <connection from="reverse_edge" to="edge_with_shape" fromLane="0" toLane="0"/>
    <connection from="reverse_edge" to="edge_with_shape" fromLane="1" toLane="1"/>
    <connection from="reverse_edge" to="edge_with_shape" fromLane="2" toLane="2"/>

</connections>
