<?xml version="1.0" encoding="UTF-8"?>

<!-- generated on 26.06.2018 16:57:17 by Eclipse SUMO netedit Version 88bb7b0b92
<configuration xmlns:xsi="http://www.w3.org/2001/XMLSchema-instance" xsi:noNamespaceSchemaLocation="http://sumo.dlr.de/xsd/netconvertConfiguration.xsd">

    <input>
        <sumo-additionals-file value="C:/Users/SUMO-Test/.texttest/tmp/netedit.gui.26Jun145422.948/netedit.gui/netElements/junctions/inspect\input_additionals.add.xml"/>
        <sumo-net-file value="C:/Users/SUMO-Test/.texttest/tmp/netedit.gui.26Jun145422.948/netedit.gui/netElements/junctions/inspect\input_net.net.xml"/>
    </input>

    <output>
        <additionals-output value="C:/Users/SUMO-Test/.texttest/tmp/netedit.gui.26Jun145422.948/netedit.gui/netElements/junctions/inspect\additionals.xml"/>
        <shapes-output value="C:/Users/SUMO-Test/.texttest/tmp/netedit.gui.26Jun145422.948/netedit.gui/netElements/junctions/inspect\shapes.xml"/>
        <output-file value="C:/Users/SUMO-Test/.texttest/tmp/netedit.gui.26Jun145422.948/netedit.gui/netElements/junctions/inspect\net.net.xml"/>
    </output>

    <processing>
        <no-turnarounds value="true"/>
        <offset.disable-normalization value="true"/>
        <lefthand value="false"/>
        <junctions.corner-detail value="5"/>
        <rectangular-lane-cut value="false"/>
        <walkingareas value="false"/>
    </processing>

    <visualisation>
        <gui-settings-file value="C:/Users/SUMO-Test/.texttest/tmp/netedit.gui.26Jun145422.948/netedit.gui/netElements/junctions/inspect\gui-settings.xml"/>
        <window-size value="700,500"/>
        <window-pos value="50,50"/>
        <gui-testing value="true"/>
        <gui-testing-debug value="true"/>
    </visualisation>

    <report>
        <no-warnings value="true"/>
        <error-log value="C:/Users/SUMO-Test/.texttest/tmp/netedit.gui.26Jun145422.948/netedit.gui/netElements/junctions/inspect\log.txt"/>
    </report>

</configuration>
-->

<net version="0.27" junctionCornerDetail="5" xmlns:xsi="http://www.w3.org/2001/XMLSchema-instance" xsi:noNamespaceSchemaLocation="http://sumo.dlr.de/xsd/net_file.xsd">

    <location netOffset="3.00,-25.00" convBoundary="0.00,0.00,100.00,60.00" origBoundary="-10000000000.00,-10000000000.00,10000000000.00,10000000000.00" projParameter="!"/>

    <edge id=":gneJ11_0" function="internal">
        <lane id=":gneJ11_0_0" index="0" speed="13.89" length="14.40" shape="77.20,41.60 62.80,41.60"/>
    </edge>
    <edge id=":gneJ11_1" function="internal">
        <lane id=":gneJ11_1_0" index="0" speed="13.89" length="5.93" shape="77.20,41.60 73.35,41.05 71.60,40.00"/>
    </edge>
    <edge id=":gneJ11_6" function="internal">
        <lane id=":gneJ11_6_0" index="0" speed="13.89" length="8.26" shape="71.60,40.00 70.60,39.40 68.95,36.65 68.40,32.80"/>
    </edge>
    <edge id=":gneJ11_2" function="internal">
        <lane id=":gneJ11_2_0" index="0" speed="13.89" length="9.03" shape="71.60,32.80 71.95,35.25 73.00,37.00 74.75,38.05 77.20,38.40"/>
    </edge>
    <edge id=":gneJ11_3" function="internal">
        <lane id=":gneJ11_3_0" index="0" speed="13.89" length="14.19" shape="71.60,32.80 71.05,36.65 69.40,39.40 66.65,41.05 62.80,41.60"/>
    </edge>
    <edge id=":gneJ11_4" function="internal">
        <lane id=":gneJ11_4_0" index="0" speed="13.89" length="9.03" shape="62.80,38.40 65.25,38.05 67.00,37.00 68.05,35.25 68.40,32.80"/>
    </edge>
    <edge id=":gneJ11_5" function="internal">
        <lane id=":gneJ11_5_0" index="0" speed="13.89" length="14.40" shape="62.80,38.40 77.20,38.40"/>
    </edge>
    <edge id=":gneJ12_0" function="internal">
        <lane id=":gneJ12_0_0" index="0" speed="13.89" length="7.74" shape="91.60,36.80 91.30,38.90 90.40,40.40 88.90,41.30 86.80,41.60"/>
    </edge>
    <edge id=":gneJ12_1" function="internal">
        <lane id=":gneJ12_1_0" index="0" speed="13.89" length="2.58" shape="86.80,38.40 87.50,38.30 88.00,38.00 88.30,37.50 88.40,36.80"/>
    </edge>
    <edge id=":gneJ13_0" function="internal">
        <lane id=":gneJ13_0_0" index="0" speed="13.89" length="9.03" shape="88.40,27.20 88.05,24.75 87.00,23.00 85.25,21.95 82.80,21.60"/>
    </edge>
    <edge id=":gneJ13_1" function="internal">
        <lane id=":gneJ13_1_0" index="0" speed="13.89" length="14.40" shape="88.40,27.20 88.40,12.80"/>
    </edge>
    <edge id=":gneJ13_2" function="internal">
        <lane id=":gneJ13_2_0" index="0" speed="13.89" length="14.40" shape="91.60,12.80 91.60,27.20"/>
    </edge>
    <edge id=":gneJ13_3" function="internal">
        <lane id=":gneJ13_3_0" index="0" speed="13.89" length="5.93" shape="91.60,12.80 91.05,16.65 90.00,18.40"/>
    </edge>
    <edge id=":gneJ13_6" function="internal">
        <lane id=":gneJ13_6_0" index="0" speed="13.89" length="8.26" shape="90.00,18.40 89.40,19.40 86.65,21.05 82.80,21.60"/>
    </edge>
    <edge id=":gneJ13_4" function="internal">
        <lane id=":gneJ13_4_0" index="0" speed="13.89" length="9.03" shape="82.80,18.40 85.25,18.05 87.00,17.00 88.05,15.25 88.40,12.80"/>
    </edge>
    <edge id=":gneJ13_5" function="internal">
        <lane id=":gneJ13_5_0" index="0" speed="13.89" length="14.19" shape="82.80,18.40 86.65,18.95 89.40,20.60 91.05,23.35 91.60,27.20"/>
    </edge>
    <edge id=":gneJ14_0" function="internal">
        <lane id=":gneJ14_0_0" index="0" speed="13.89" length="2.58" shape="88.40,3.20 88.30,2.50 88.00,2.00 87.50,1.70 86.80,1.60"/>
    </edge>
    <edge id=":gneJ14_1" function="internal">
        <lane id=":gneJ14_1_0" index="0" speed="13.89" length="7.74" shape="86.80,-1.60 88.90,-1.30 90.40,-0.40 91.30,1.10 91.60,3.20"/>
    </edge>
    <edge id=":gneJ15_0" function="internal">
        <lane id=":gneJ15_0_0" index="0" speed="13.89" length="9.03" shape="68.40,7.20 68.05,4.75 67.00,3.00 65.25,1.95 62.80,1.60"/>
    </edge>
    <edge id=":gneJ15_1" function="internal">
        <lane id=":gneJ15_1_0" index="0" speed="13.89" length="14.19" shape="68.40,7.20 68.95,3.35 70.60,0.60 73.35,-1.05 77.20,-1.60"/>
    </edge>
    <edge id=":gneJ15_2" function="internal">
        <lane id=":gneJ15_2_0" index="0" speed="13.89" length="9.03" shape="77.20,1.60 74.75,1.95 73.00,3.00 71.95,4.75 71.60,7.20"/>
    </edge>
    <edge id=":gneJ15_3" function="internal">
        <lane id=":gneJ15_3_0" index="0" speed="13.89" length="14.40" shape="77.20,1.60 62.80,1.60"/>
    </edge>
    <edge id=":gneJ15_4" function="internal">
        <lane id=":gneJ15_4_0" index="0" speed="13.89" length="14.40" shape="62.80,-1.60 77.20,-1.60"/>
    </edge>
    <edge id=":gneJ15_5" function="internal">
        <lane id=":gneJ15_5_0" index="0" speed="13.89" length="5.93" shape="62.80,-1.60 66.65,-1.05 68.40,0.00"/>
    </edge>
    <edge id=":gneJ15_6" function="internal">
        <lane id=":gneJ15_6_0" index="0" speed="13.89" length="8.26" shape="68.40,0.00 69.40,0.60 71.05,3.35 71.60,7.20"/>
    </edge>
    <edge id=":gneJ16_0" function="internal">
        <lane id=":gneJ16_0_0" index="0" speed="13.89" length="7.74" shape="48.40,3.20 48.70,1.10 49.60,-0.40 51.10,-1.30 53.20,-1.60"/>
    </edge>
    <edge id=":gneJ16_1" function="internal">
        <lane id=":gneJ16_1_0" index="0" speed="13.89" length="2.58" shape="53.20,1.60 52.50,1.70 52.00,2.00 51.70,2.50 51.60,3.20"/>
    </edge>
    <edge id=":gneJ17_0" function="internal">
        <lane id=":gneJ17_0_0" index="0" speed="13.89" length="10.40" shape="48.40,25.20 48.40,14.80"/>
    </edge>
    <edge id=":gneJ17_1" function="internal">
        <lane id=":gneJ17_1_0" index="0" speed="13.89" length="10.97" shape="48.40,25.20 48.83,22.22 50.10,20.10 52.22,18.82 55.20,18.40"/>
    </edge>
    <edge id=":gneJ17_2" function="internal">
        <lane id=":gneJ17_2_0" index="0" speed="13.89" length="5.81" shape="55.20,21.60 53.63,21.82 52.50,22.50 51.83,23.63 51.60,25.20"/>
    </edge>
    <edge id=":gneJ17_3" function="internal">
        <lane id=":gneJ17_3_0" index="0" speed="13.89" length="10.97" shape="55.20,21.60 52.23,21.18 50.10,19.90 48.83,17.77 48.40,14.80"/>
    </edge>
    <edge id=":gneJ17_4" function="internal">
        <lane id=":gneJ17_4_0" index="0" speed="13.89" length="5.81" shape="51.60,14.80 51.83,16.37 52.50,17.50 53.63,18.17 55.20,18.40"/>
    </edge>
    <edge id=":gneJ17_5" function="internal">
        <lane id=":gneJ17_5_0" index="0" speed="13.89" length="10.40" shape="51.60,14.80 51.60,25.20"/>
    </edge>
    <edge id=":gneJ18_0" function="internal">
        <lane id=":gneJ18_0_0" index="0" speed="13.89" length="1.01" shape="49.01,41.60 48.74,41.56 48.55,41.44 48.44,41.24 48.40,40.96"/>
    </edge>
    <edge id=":gneJ18_1" function="internal">
        <lane id=":gneJ18_1_0" index="0" speed="13.89" length="11.36" shape="51.60,46.72 51.25,43.08 50.18,40.48 48.41,38.92 45.93,38.40"/>
    </edge>
    <edge id=":gneJ19_0" function="internal">
        <lane id=":gneJ19_0_0" index="0" speed="13.89" length="9.03" shape="68.40,27.20 68.05,24.75 67.00,23.00 65.25,21.95 62.80,21.60"/>
    </edge>
    <edge id=":gneJ19_1" function="internal">
        <lane id=":gneJ19_1_0" index="0" speed="13.89" length="14.40" shape="68.40,27.20 68.40,12.80"/>
    </edge>
    <edge id=":gneJ19_2" function="internal">
        <lane id=":gneJ19_2_0" index="0" speed="13.89" length="5.93" shape="68.40,27.20 68.95,23.35 70.00,21.60"/>
    </edge>
    <edge id=":gneJ19_12" function="internal">
        <lane id=":gneJ19_12_0" index="0" speed="13.89" length="8.26" shape="70.00,21.60 70.60,20.60 73.35,18.95 77.20,18.40"/>
    </edge>
    <edge id=":gneJ19_3" function="internal">
        <lane id=":gneJ19_3_0" index="0" speed="13.89" length="9.03" shape="77.20,21.60 74.75,21.95 73.00,23.00 71.95,24.75 71.60,27.20"/>
    </edge>
    <edge id=":gneJ19_4" function="internal">
        <lane id=":gneJ19_4_0" index="0" speed="13.89" length="14.40" shape="77.20,21.60 62.80,21.60"/>
    </edge>
    <edge id=":gneJ19_5" function="internal">
        <lane id=":gneJ19_5_0" index="0" speed="13.89" length="14.19" shape="77.20,21.60 73.35,21.05 70.60,19.40 68.95,16.65 68.40,12.80"/>
    </edge>
    <edge id=":gneJ19_6" function="internal">
        <lane id=":gneJ19_6_0" index="0" speed="13.89" length="9.03" shape="71.60,12.80 71.95,15.25 73.00,17.00 74.75,18.05 77.20,18.40"/>
    </edge>
    <edge id=":gneJ19_7" function="internal">
        <lane id=":gneJ19_7_0" index="0" speed="13.89" length="14.40" shape="71.60,12.80 71.60,27.20"/>
    </edge>
    <edge id=":gneJ19_8" function="internal">
        <lane id=":gneJ19_8_0" index="0" speed="13.89" length="5.93" shape="71.60,12.80 71.05,16.65 70.00,18.40"/>
    </edge>
    <edge id=":gneJ19_13" function="internal">
        <lane id=":gneJ19_13_0" index="0" speed="13.89" length="8.26" shape="70.00,18.40 69.40,19.40 66.65,21.05 62.80,21.60"/>
    </edge>
    <edge id=":gneJ19_9" function="internal">
        <lane id=":gneJ19_9_0" index="0" speed="13.89" length="9.03" shape="62.80,18.40 65.25,18.05 67.00,17.00 68.05,15.25 68.40,12.80"/>
    </edge>
    <edge id=":gneJ19_10" function="internal">
        <lane id=":gneJ19_10_0" index="0" speed="13.89" length="14.40" shape="62.80,18.40 77.20,18.40"/>
    </edge>
    <edge id=":gneJ19_11" function="internal">
        <lane id=":gneJ19_11_0" index="0" speed="13.89" length="14.19" shape="62.80,18.40 66.65,18.95 69.40,20.60 71.05,23.35 71.60,27.20"/>
    </edge>
    <edge id=":gneJ2_0" function="internal">
        <lane id=":gneJ2_0_0" index="0" speed="13.89" length="4.67" shape="40.00,61.60 38.80,60.80 38.40,60.00 38.80,59.20 40.00,58.40"/>
    </edge>
    <edge id=":gneJ3_0" function="internal">
        <lane id=":gneJ3_0_0" index="0" speed="13.89" length="4.67" shape="60.00,58.40 61.20,59.20 61.60,60.00 61.20,60.80 60.00,61.60"/>
    </edge>
    <edge id=":gneJ4_0" function="internal">
        <lane id=":gneJ4_0_0" index="0" speed="13.89" length="4.67" shape="80.00,61.60 78.80,60.80 78.40,60.00 78.80,59.20 80.00,58.40"/>
    </edge>
    <edge id=":gneJ5_0" function="internal">
        <lane id=":gneJ5_0_0" index="0" speed="13.89" length="4.67" shape="100.00,58.40 101.20,59.20 101.60,60.00 101.20,60.80 100.00,61.60"/>
    </edge>
    <edge id=":gneJ6_0" function="internal">
        <lane id=":gneJ6_0_0" index="0" speed="13.89" length="7.74" shape="3.20,41.60 1.10,41.30 -0.40,40.40 -1.30,38.90 -1.60,36.80"/>
    </edge>
    <edge id=":gneJ6_1" function="internal">
        <lane id=":gneJ6_1_0" index="0" speed="13.89" length="2.58" shape="1.60,36.80 1.70,37.50 2.00,38.00 2.50,38.30 3.20,38.40"/>
    </edge>
    <edge id=":gneJ7_0" function="internal">
        <lane id=":gneJ7_0_0" index="0" speed="13.89" length="7.74" shape="21.60,36.80 21.30,38.90 20.40,40.40 18.90,41.30 16.80,41.60"/>
    </edge>
    <edge id=":gneJ7_1" function="internal">
        <lane id=":gneJ7_1_0" index="0" speed="13.89" length="2.58" shape="16.80,38.40 17.50,38.30 18.00,38.00 18.30,37.50 18.40,36.80"/>
    </edge>
    <edge id=":gneJ8_0" function="internal">
        <lane id=":gneJ8_0_0" index="0" speed="13.89" length="2.58" shape="18.40,23.20 18.30,22.50 18.00,22.00 17.50,21.70 16.80,21.60"/>
    </edge>
    <edge id=":gneJ8_1" function="internal">
        <lane id=":gneJ8_1_0" index="0" speed="13.89" length="7.74" shape="16.80,18.40 18.90,18.70 20.40,19.60 21.30,21.10 21.60,23.20"/>
    </edge>
    <edge id=":gneJ9_0" function="internal">
        <lane id=":gneJ9_0_0" index="0" speed="13.89" length="7.74" shape="-1.60,23.20 -1.30,21.10 -0.40,19.60 1.10,18.70 3.20,18.40"/>
    </edge>
    <edge id=":gneJ9_1" function="internal">
        <lane id=":gneJ9_1_0" index="0" speed="13.89" length="2.58" shape="3.20,21.60 2.50,21.70 2.00,22.00 1.70,22.50 1.60,23.20"/>
    </edge>

    <edge id="-gneE10" from="gneJ14" to="gneJ13" priority="1">
        <lane id="-gneE10_0" index="0" speed="13.89" length="9.60" shape="91.60,3.20 91.60,12.80"/>
    </edge>
    <edge id="-gneE11" from="gneJ15" to="gneJ14" priority="1">
        <lane id="-gneE11_0" index="0" speed="13.89" length="9.60" shape="77.20,-1.60 86.80,-1.60"/>
    </edge>
    <edge id="-gneE12" from="gneJ16" to="gneJ15" priority="1">
        <lane id="-gneE12_0" index="0" speed="13.89" length="9.60" shape="53.20,-1.60 62.80,-1.60"/>
    </edge>
    <edge id="-gneE13" from="gneJ17" to="gneJ16" priority="1">
        <lane id="-gneE13_0" index="0" speed="13.89" length="11.60" shape="48.40,14.80 48.40,3.20"/>
    </edge>
    <edge id="-gneE14" from="gneJ18" to="gneJ17" priority="1">
        <lane id="-gneE14_0" index="0" speed="13.89" length="15.76" shape="48.40,40.96 48.40,25.20"/>
    </edge>
    <edge id="-gneE15" from="gneJ11" to="gneJ18" priority="1">
        <lane id="-gneE15_0" index="0" speed="13.89" length="13.79" shape="62.80,41.60 49.01,41.60"/>
    </edge>
    <edge id="-gneE16" from="gneJ11" to="gneJ19" priority="1">
        <lane id="-gneE16_0" index="0" speed="13.89" length="5.60" shape="68.40,32.80 68.40,27.20"/>
    </edge>
    <edge id="-gneE17" from="gneJ13" to="gneJ19" priority="1">
        <lane id="-gneE17_0" index="0" speed="13.89" length="5.60" shape="82.80,21.60 77.20,21.60"/>
    </edge>
    <edge id="-gneE18" from="gneJ15" to="gneJ19" priority="1">
        <lane id="-gneE18_0" index="0" speed="13.89" length="5.60" shape="71.60,7.20 71.60,12.80"/>
    </edge>
    <edge id="-gneE19" from="gneJ17" to="gneJ19" priority="1">
        <lane id="-gneE19_0" index="0" speed="13.89" length="7.60" shape="55.20,18.40 62.80,18.40"/>
    </edge>
    <edge id="-gneE3" from="gneJ5" to="gneJ4" priority="1">
        <lane id="-gneE3_0" index="0" speed="13.89" length="20.00" shape="100.00,61.60 80.00,61.60"/>
    </edge>
    <edge id="-gneE4" from="gneJ7" to="gneJ6" priority="1">
        <lane id="-gneE4_0" index="0" speed="13.89" length="13.60" shape="16.80,41.60 3.20,41.60"/>
    </edge>
    <edge id="-gneE5" from="gneJ8" to="gneJ7" priority="1">
        <lane id="-gneE5_0" index="0" speed="13.89" length="13.60" shape="21.60,23.20 21.60,36.80"/>
    </edge>
    <edge id="-gneE6" from="gneJ9" to="gneJ8" priority="1">
        <lane id="-gneE6_0" index="0" speed="13.89" length="13.60" shape="3.20,18.40 16.80,18.40"/>
    </edge>
    <edge id="-gneE7" from="gneJ6" to="gneJ9" priority="1">
        <lane id="-gneE7_0" index="0" speed="13.89" length="13.60" shape="-1.60,36.80 -1.60,23.20"/>
    </edge>
    <edge id="-gneE8" from="gneJ12" to="gneJ11" priority="1">
        <lane id="-gneE8_0" index="0" speed="13.89" length="9.60" shape="86.80,41.60 77.20,41.60"/>
    </edge>
    <edge id="-gneE9" from="gneJ13" to="gneJ12" priority="1">
        <lane id="-gneE9_0" index="0" speed="13.89" length="9.60" shape="91.60,27.20 91.60,36.80"/>
    </edge>
    <edge id="gneE0" from="OwnID" to="gneJ1" priority="1">
        <lane id="gneE0_0" index="0" speed="13.89" length="10.00" shape="21.60,50.00 21.60,60.00"/>
    </edge>
    <edge id="gneE1" from="gneJ2" to="gneJ3" priority="1">
        <lane id="gneE1_0" index="0" speed="13.89" length="20.00" shape="40.00,58.40 60.00,58.40"/>
    </edge>
    <edge id="gneE10" from="gneJ13" to="gneJ14" priority="1">
        <lane id="gneE10_0" index="0" speed="13.89" length="9.60" shape="88.40,12.80 88.40,3.20"/>
    </edge>
    <edge id="gneE11" from="gneJ14" to="gneJ15" priority="1">
        <lane id="gneE11_0" index="0" speed="13.89" length="9.60" shape="86.80,1.60 77.20,1.60"/>
    </edge>
    <edge id="gneE12" from="gneJ15" to="gneJ16" priority="1">
        <lane id="gneE12_0" index="0" speed="13.89" length="9.60" shape="62.80,1.60 53.20,1.60"/>
    </edge>
    <edge id="gneE13" from="gneJ16" to="gneJ17" priority="1">
        <lane id="gneE13_0" index="0" speed="13.89" length="11.60" shape="51.60,3.20 51.60,14.80"/>
    </edge>
    <edge id="gneE14" from="gneJ17" to="gneJ18" priority="1">
        <lane id="gneE14_0" index="0" speed="13.89" length="21.52" shape="51.60,25.20 51.60,46.72"/>
    </edge>
    <edge id="gneE15" from="gneJ18" to="gneJ11" priority="1">
        <lane id="gneE15_0" index="0" speed="13.89" length="16.87" shape="45.93,38.40 62.80,38.40"/>
    </edge>
    <edge id="gneE16" from="gneJ19" to="gneJ11" priority="1">
        <lane id="gneE16_0" index="0" speed="13.89" length="5.60" shape="71.60,27.20 71.60,32.80"/>
    </edge>
    <edge id="gneE17" from="gneJ19" to="gneJ13" priority="1">
        <lane id="gneE17_0" index="0" speed="13.89" length="5.60" shape="77.20,18.40 82.80,18.40"/>
    </edge>
    <edge id="gneE18" from="gneJ19" to="gneJ15" priority="1">
        <lane id="gneE18_0" index="0" speed="13.89" length="5.60" shape="68.40,12.80 68.40,7.20"/>
    </edge>
    <edge id="gneE19" from="gneJ19" to="gneJ17" priority="1">
        <lane id="gneE19_0" index="0" speed="13.89" length="7.60" shape="62.80,21.60 55.20,21.60"/>
    </edge>
    <edge id="gneE2" from="gneJ3" to="gneJ2" priority="1">
        <lane id="gneE2_0" index="0" speed="13.89" length="20.00" shape="60.00,61.60 40.00,61.60"/>
    </edge>
    <edge id="gneE3" from="gneJ4" to="gneJ5" priority="1">
        <lane id="gneE3_0" index="0" speed="13.89" length="20.00" shape="80.00,58.40 100.00,58.40"/>
    </edge>
    <edge id="gneE4" from="gneJ6" to="gneJ7" priority="1">
        <lane id="gneE4_0" index="0" speed="13.89" length="13.60" shape="3.20,38.40 16.80,38.40"/>
    </edge>
    <edge id="gneE5" from="gneJ7" to="gneJ8" priority="1">
        <lane id="gneE5_0" index="0" speed="13.89" length="13.60" shape="18.40,36.80 18.40,23.20"/>
    </edge>
    <edge id="gneE6" from="gneJ8" to="gneJ9" priority="1">
        <lane id="gneE6_0" index="0" speed="13.89" length="13.60" shape="16.80,21.60 3.20,21.60"/>
    </edge>
    <edge id="gneE7" from="gneJ9" to="gneJ6" priority="1">
        <lane id="gneE7_0" index="0" speed="13.89" length="13.60" shape="1.60,23.20 1.60,36.80"/>
    </edge>
    <edge id="gneE8" from="gneJ11" to="gneJ12" priority="1">
        <lane id="gneE8_0" index="0" speed="13.89" length="9.60" shape="77.20,38.40 86.80,38.40"/>
    </edge>
    <edge id="gneE9" from="gneJ12" to="gneJ13" priority="1">
        <lane id="gneE9_0" index="0" speed="13.89" length="9.60" shape="88.40,36.80 88.40,27.20"/>
    </edge>

    <tlLogic id="gneJ3" type="static" programID="0" offset="0">
        <phase duration="82" state="G"/>
        <phase duration="3"  state="y"/>
        <phase duration="5"  state="r"/>
    </tlLogic>
    <tlLogic id="gneJ4" type="static" programID="0" offset="0">
        <phase duration="82" state="G"/>
        <phase duration="3"  state="y"/>
        <phase duration="5"  state="r"/>
    </tlLogic>

    <junction id="OwnID" type="dead_end" x="20.00" y="50.00" incLanes="" intLanes="" shape="20.00,50.00 23.20,50.00"/>
    <junction id="gneJ1" type="dead_end" x="20.00" y="60.00" incLanes="gneE0_0" intLanes="" shape="23.20,60.00 20.00,60.00"/>
    <junction id="gneJ11" type="zipper" x="70.00" y="40.00" incLanes="-gneE8_0 gneE16_0 gneE15_0" intLanes=":gneJ11_0_0 :gneJ11_6_0 :gneJ11_2_0 :gneJ11_3_0 :gneJ11_4_0 :gneJ11_5_0" shape="77.20,43.20 77.20,36.80 74.98,36.36 74.20,35.80 73.64,35.02 73.31,34.02 73.20,32.80 66.80,32.80 66.36,35.02 65.80,35.80 65.02,36.36 64.02,36.69 62.80,36.80 62.80,43.20">
        <request index="0" response="001000" foes="001000" cont="0"/>
        <request index="1" response="111000" foes="111000" cont="1"/>
        <request index="2" response="100000" foes="100000" cont="0"/>
        <request index="3" response="100011" foes="100011" cont="0"/>
        <request index="4" response="000010" foes="000010" cont="0"/>
        <request index="5" response="001110" foes="001110" cont="0"/>
    </junction>
    <junction id="gneJ12" type="district" x="90.00" y="40.00" incLanes="-gneE9_0 gneE8_0" intLanes=":gneJ12_0_0 :gneJ12_1_0" shape="93.20,36.80 86.80,36.80 86.80,43.20 90.36,42.49 91.60,41.60 92.49,40.36 93.02,38.76"/>
    <junction id="gneJ13" type="priority" x="90.00" y="20.00" incLanes="gneE9_0 -gneE10_0 gneE17_0" intLanes=":gneJ13_0_0 :gneJ13_1_0 :gneJ13_2_0 :gneJ13_6_0 :gneJ13_4_0 :gneJ13_5_0" shape="86.80,27.20 93.20,27.20 93.20,12.80 86.80,12.80 86.36,15.02 85.80,15.80 85.02,16.36 84.02,16.69 82.80,16.80 82.80,23.20 85.02,23.64 85.80,24.20 86.36,24.98 86.69,25.98">
        <request index="0" response="000000" foes="001000" cont="0"/>
        <request index="1" response="000000" foes="111000" cont="0"/>
        <request index="2" response="000000" foes="100000" cont="0"/>
        <request index="3" response="000011" foes="100011" cont="1"/>
        <request index="4" response="000010" foes="000010" cont="0"/>
        <request index="5" response="001110" foes="001110" cont="0"/>
    </junction>
    <junction id="gneJ14" type="priority" x="90.00" y="0.00" incLanes="gneE10_0 -gneE11_0" intLanes=":gneJ14_0_0 :gneJ14_1_0" shape="86.80,3.20 93.20,3.20 92.49,-0.36 91.60,-1.60 90.36,-2.49 88.76,-3.02 86.80,-3.20">
        <request index="0" response="00" foes="00" cont="0"/>
        <request index="1" response="00" foes="00" cont="0"/>
    </junction>
    <junction id="gneJ15" type="priority" x="70.00" y="0.00" incLanes="gneE18_0 gneE11_0 -gneE12_0" intLanes=":gneJ15_0_0 :gneJ15_1_0 :gneJ15_2_0 :gneJ15_3_0 :gneJ15_4_0 :gneJ15_6_0" shape="66.80,7.20 73.20,7.20 73.64,4.98 74.20,4.20 74.98,3.64 75.98,3.31 77.20,3.20 77.20,-3.20 62.80,-3.20 62.80,3.20 65.02,3.64 65.80,4.20 66.36,4.98 66.69,5.98">
        <request index="0" response="001000" foes="001000" cont="0"/>
        <request index="1" response="111000" foes="111000" cont="0"/>
        <request index="2" response="000000" foes="100000" cont="0"/>
        <request index="3" response="000000" foes="100011" cont="0"/>
        <request index="4" response="000000" foes="000010" cont="0"/>
        <request index="5" response="001100" foes="001110" cont="1"/>
    </junction>
    <junction id="gneJ16" type="priority" x="50.00" y="0.00" incLanes="-gneE13_0 gneE12_0" intLanes=":gneJ16_0_0 :gneJ16_1_0" shape="46.80,3.20 53.20,3.20 53.20,-3.20 49.64,-2.49 48.40,-1.60 47.51,-0.36 46.98,1.24">
        <request index="0" response="00" foes="00" cont="0"/>
        <request index="1" response="00" foes="00" cont="0"/>
    </junction>
    <junction id="gneJ17" type="unregulated" x="50.00" y="20.00" incLanes="-gneE14_0 gneE19_0 gneE13_0" intLanes=":gneJ17_0_0 :gneJ17_1_0 :gneJ17_2_0 :gneJ17_3_0 :gneJ17_4_0 :gneJ17_5_0" shape="46.80,25.20 53.20,25.20 53.42,24.09 53.70,23.70 54.09,23.42 54.59,23.26 55.20,23.20 55.20,16.80 54.09,16.58 53.70,16.30 53.42,15.91 53.26,15.41 53.20,14.80 46.80,14.80" radius="2.00"/>
    <junction id="gneJ18" type="allway_stop" x="50.00" y="40.00" incLanes="-gneE15_0 gneE14_0" intLanes=":gneJ18_0_0 :gneJ18_1_0" shape="52.85,50.00 50.54,43.93 50.50,43.16 46.01,38.46 45.53,38.12 39.59,35.49" customShape="1">
        <request index="0" response="00" foes="00" cont="0"/>
        <request index="1" response="00" foes="00" cont="0"/>
    </junction>
    <junction id="gneJ19" type="internal" x="70.00" y="20.00" incLanes="-gneE16_0 -gneE17_0 -gneE18_0 -gneE19_0" intLanes=":gneJ19_0_0 :gneJ19_1_0 :gneJ19_12_0 :gneJ19_3_0 :gneJ19_4_0 :gneJ19_5_0 :gneJ19_6_0 :gneJ19_7_0 :gneJ19_13_0 :gneJ19_9_0 :gneJ19_10_0 :gneJ19_11_0" shape="66.80,27.20 73.20,27.20 73.64,24.98 74.20,24.20 74.98,23.64 75.98,23.31 77.20,23.20 77.20,16.80 74.98,16.36 74.20,15.80 73.64,15.02 73.31,14.02 73.20,12.80 66.80,12.80 66.36,15.02 65.80,15.80 65.02,16.36 64.02,16.69 62.80,16.80 62.80,23.20 65.02,23.64 65.80,24.20 66.36,24.98 66.69,25.98">
        <request index="0"  response="000000000000" foes="000100010000" cont="0"/>
        <request index="1"  response="000000000000" foes="111100110000" cont="0"/>
        <request index="2"  response="000011000000" foes="110011110000" cont="1"/>
        <request index="3"  response="000010000000" foes="100010000000" cont="0"/>
        <request index="4"  response="000110000111" foes="100110000111" cont="0"/>
        <request index="5"  response="011110000110" foes="011110000110" cont="0"/>
        <request index="6"  response="000000000000" foes="010000000100" cont="0"/>
        <request index="7"  response="000000000000" foes="110000111100" cont="0"/>
        <request index="8"  response="000000000011" foes="110000110011" cont="1"/>
        <request index="9"  response="000000000010" foes="000000100010" cont="0"/>
        <request index="10" response="000111000110" foes="000111100110" cont="0"/>
        <request index="11" response="000110011110" foes="000110011110" cont="0"/>
    </junction>
    <junction id="gneJ2" type="allway_stop" x="40.00" y="60.00" incLanes="gneE2_0" intLanes=":gneJ2_0_0" shape="40.00,60.00 40.00,63.20 40.00,60.00">
        <request index="0" response="0" foes="0" cont="0"/>
    </junction>
    <junction id="gneJ3" type="traffic_light_unregulated" x="60.00" y="60.00" incLanes="gneE1_0" intLanes=":gneJ3_0_0" shape="60.00,60.00 60.00,56.80 60.00,60.00"/>
    <junction id="gneJ4" type="traffic_light_right_on_red" x="80.00" y="60.00" incLanes="-gneE3_0" intLanes=":gneJ4_0_0" shape="80.00,60.00 80.00,63.20 80.00,60.00">
        <request index="0" response="0" foes="0" cont="0"/>
    </junction>
    <junction id="gneJ5" type="rail_signal" x="100.00" y="60.00" incLanes="gneE3_0" intLanes=":gneJ5_0_0" shape="100.00,60.00 100.00,56.80 100.00,60.00">
        <request index="0" response="0" foes="0" cont="0"/>
    </junction>
    <junction id="gneJ6" type="priority" x="0.00" y="40.00" incLanes="-gneE4_0 gneE7_0" intLanes=":gneJ6_0_0 :gneJ6_1_0" shape="3.20,43.20 3.20,36.80 -3.20,36.80 -2.49,40.36 -1.60,41.60 -0.36,42.49 1.24,43.02">
        <request index="0" response="00" foes="00" cont="0"/>
        <request index="1" response="00" foes="00" cont="0"/>
    </junction>
    <junction id="gneJ7" type="priority" x="20.00" y="40.00" incLanes="-gneE5_0 gneE4_0" intLanes=":gneJ7_0_0 :gneJ7_1_0" shape="23.20,36.80 16.80,36.80 16.80,43.20 20.36,42.49 21.60,41.60 22.49,40.36 23.02,38.76">
        <request index="0" response="00" foes="00" cont="0"/>
        <request index="1" response="00" foes="00" cont="0"/>
    </junction>
    <junction id="gneJ8" type="right_before_left" x="20.00" y="20.00" incLanes="gneE5_0 -gneE6_0" intLanes=":gneJ8_0_0 :gneJ8_1_0" shape="16.80,23.20 23.20,23.20 22.49,19.64 21.60,18.40 20.36,17.51 18.76,16.98 16.80,16.80">
        <request index="0" response="00" foes="00" cont="0"/>
        <request index="1" response="00" foes="00" cont="0"/>
    </junction>
    <junction id="gneJ9" type="priority_stop" x="0.00" y="20.00" incLanes="-gneE7_0 gneE6_0" intLanes=":gneJ9_0_0 :gneJ9_1_0" shape="-3.20,23.20 3.20,23.20 3.20,16.80 -0.36,17.51 -1.60,18.40 -2.49,19.64 -3.02,21.24">
        <request index="0" response="00" foes="00" cont="0"/>
        <request index="1" response="00" foes="00" cont="0"/>
    </junction>

    <junction id=":gneJ11_6_0" type="internal" x="71.60" y="40.00" incLanes=":gneJ11_1_0 gneE15_0" intLanes=":gneJ11_3_0 :gneJ11_4_0 :gneJ11_5_0"/>
    <junction id=":gneJ13_6_0" type="internal" x="90.00" y="18.40" incLanes=":gneJ13_3_0 gneE9_0" intLanes=":gneJ13_0_0 :gneJ13_1_0 :gneJ13_5_0"/>
    <junction id=":gneJ15_6_0" type="internal" x="68.40" y="0.00" incLanes=":gneJ15_5_0 gneE11_0" intLanes=":gneJ15_1_0 :gneJ15_2_0 :gneJ15_3_0"/>
    <junction id=":gneJ19_12_0" type="internal" x="70.00" y="21.60" incLanes=":gneJ19_2_0 -gneE18_0" intLanes=":gneJ19_4_0 :gneJ19_5_0 :gneJ19_6_0 :gneJ19_7_0 :gneJ19_10_0 :gneJ19_11_0"/>
    <junction id=":gneJ19_13_0" type="internal" x="70.00" y="18.40" incLanes=":gneJ19_8_0 -gneE16_0" intLanes=":gneJ19_0_0 :gneJ19_1_0 :gneJ19_4_0 :gneJ19_5_0 :gneJ19_10_0 :gneJ19_11_0"/>

    <connection from="-gneE10" to="-gneE9" fromLane="0" toLane="0" via=":gneJ13_2_0" dir="s" state="M"/>
    <connection from="-gneE10" to="-gneE17" fromLane="0" toLane="0" via=":gneJ13_3_0" dir="l" state="m"/>
    <connection from="-gneE11" to="-gneE10" fromLane="0" toLane="0" via=":gneJ14_1_0" dir="l" state="M"/>
    <connection from="-gneE12" to="-gneE11" fromLane="0" toLane="0" via=":gneJ15_4_0" dir="s" state="M"/>