<?xml version="1.0"?>

<!-- generated on 11/05/09 14:45:17 by SUMO sumo Version dev-SVN-r7945
<configuration>

    <input>
        <net-file value="net.net.xml"/>
        <route-files value="input_routes.rou.xml"/>
        <additional-files value="input_additional.add.xml,input_additional2.add.xml"/>
    </input>

    <time>
        <begin value="0"/>
        <end value="1000"/>
    </time>

    <report>
        <no-duration-log value="true"/>
        <no-step-log value="true"/>
    </report>

</configuration>
-->

<netstats>
   <interval begin="0" end="25" id="dump_25">
      <edge id="beg" sampledSeconds="126.00" traveltime="34.43" density="10.11" occupancy="5.05" waitingTime="0.00" speed="14.48" departed="10" arrived="0" entered="0" left="0" laneChangedFrom="0" laneChangedTo="0"/>
   </interval>
   <interval begin="25" end="50" id="dump_25">
      <edge id=":beg_0" sampledSeconds="4.16" traveltime="0.46" density="26.81" occupancy="13.41" waitingTime="0.00" speed="13.43" departed="0" arrived="0" entered="9" left="9" laneChangedFrom="0" laneChangedTo="0"/>
      <edge id="beg" sampledSeconds="267.00" traveltime="27.34" density="21.42" occupancy="10.71" waitingTime="0.00" speed="18.23" departed="10" arrived="0" entered="0" left="9" laneChangedFrom="0" laneChangedTo="0"/>
      <edge id="middle" sampledSeconds="102.84" traveltime="74.12" density="4.15" occupancy="2.08" waitingTime="0.00" speed="13.36" departed="0" arrived="0" entered="9" left="0" laneChangedFrom="0" laneChangedTo="0"/>
   </interval>
   <interval begin="50" end="75" id="dump_25">
      <edge id=":beg_0" sampledSeconds="4.55" traveltime="0.45" density="29.35" occupancy="14.68" waitingTime="0.00" speed="13.63" departed="0" arrived="0" entered="10" left="10" laneChangedFrom="0" laneChangedTo="0"/>
      <edge id="beg" sampledSeconds="268.75" traveltime="27.10" density="21.56" occupancy="10.78" waitingTime="0.00" speed="18.40" departed="10" arrived="0" entered="0" left="10" laneChangedFrom="0" laneChangedTo="0"/>
      <edge id="middle" sampledSeconds="345.70" traveltime="74.08" density="13.96" occupancy="6.98" waitingTime="0.00" speed="13.37" departed="0" arrived="0" entered="10" left="0" laneChangedFrom="0" laneChangedTo="0"/>
   </interval>
   <interval begin="75" end="100" id="dump_25">
      <edge id=":beg_0" sampledSeconds="4.64" traveltime="0.46" density="29.91" occupancy="14.96" waitingTime="0.00" speed="13.37" departed="0" arrived="0" entered="10" left="10" laneChangedFrom="0" laneChangedTo="0"/>
      <edge id="beg" sampledSeconds="266.14" traveltime="27.31" density="21.35" occupancy="10.68" waitingTime="0.00" speed="18.26" departed="10" arrived="0" entered="0" left="10" laneChangedFrom="0" laneChangedTo="0"/>
      <edge id="middle" sampledSeconds="594.22" traveltime="73.96" density="24.00" occupancy="12.00" waitingTime="0.00" speed="13.39" departed="0" arrived="0" entered="10" left="0" laneChangedFrom="0" laneChangedTo="0"/>
   </interval>
   <interval begin="100" end="125" id="dump_25">
      <edge id=":beg_0" sampledSeconds="15.11" traveltime="2.53" density="97.51" occupancy="48.75" waitingTime="0.00" speed="2.45" departed="0" arrived="0" entered="6" left="5" laneChangedFrom="0" laneChangedTo="0"/>
      <edge id=":end_1" sampledSeconds="1.38" traveltime="1.38" density="8.88" occupancy="4.44" waitingTime="0.00" speed="4.50" departed="0" arrived="0" entered="1" left="1" laneChangedFrom="0" laneChangedTo="0"/>
      <edge id="beg" sampledSeconds="320.80" traveltime="31.94" density="25.74" occupancy="12.87" waitingTime="0.00" speed="15.61" departed="10" arrived="0" entered="0" left="6" laneChangedFrom="0" laneChangedTo="0"/>
      <edge id="end" sampledSeconds="14.71" traveltime="27.26" density="1.18" occupancy="0.59" waitingTime="0.00" speed="18.29" departed="0" arrived="0" entered="1" left="0" laneChangedFrom="0" laneChangedTo="0"/>
      <edge id="middle" sampledSeconds="767.00" traveltime="393.44" density="30.97" occupancy="15.49" waitingTime="0.00" speed="2.52" departed="0" arrived="0" entered="5" left="1" laneChangedFrom="0" laneChangedTo="0"/>
   </interval>
   <interval begin="125" end="150" id="dump_25">
      <edge id=":absEnd_0" sampledSeconds="0.00" traveltime="0.00" density="1.45" occupancy="0.73" waitingTime="0.00" speed="27.52" departed="0" arrived="0" entered="1" left="1" laneChangedFrom="0" laneChangedTo="0"/>
      <edge id=":beg_0" sampledSeconds="18.55" traveltime="3.07" density="119.71" occupancy="59.85" waitingTime="0.00" speed="2.02" departed="0" arrived="0" entered="6" left="7" laneChangedFrom="0" laneChangedTo="0"/>
      <edge id=":end_1" sampledSeconds="3.50" traveltime="1.75" density="22.60" occupancy="11.30" waitingTime="0.00" speed="3.54" departed="0" arrived="0" entered="2" left="2" laneChangedFrom="0" laneChangedTo="0"/>
      <edge id="beg" sampledSeconds="411.80" traveltime="42.85" density="33.04" occupancy="16.52" waitingTime="0.00" speed="11.63" departed="10" arrived="0" entered="0" left="6" laneChangedFrom="0" laneChangedTo="0"/>
      <edge id="end" sampledSeconds="40.35" traveltime="24.44" density="3.24" occupancy="1.62" waitingTime="0.00" speed="20.40" departed="0" arrived="0" entered="2" left="1" laneChangedFrom="0" laneChangedTo="0"/>
      <edge id="middle" sampledSeconds="879.17" traveltime="463.82" density="35.50" occupancy="17.75" waitingTime="0.00" speed="2.14" departed="0" arrived="0" entered="7" left="2" laneChangedFrom="0" laneChangedTo="0"/>
      <edge id="rend" sampledSeconds="0.62" traveltime="18.17" density="0.05" occupancy="0.02" waitingTime="0.00" speed="27.52" departed="0" arrived="1" entered="1" left="0" laneChangedFrom="0" laneChangedTo="0"/>
   </interval>
   <interval begin="150" end="175" id="dump_25">
      <edge id=":absEnd_0" sampledSeconds="0.01" traveltime="0.00" density="2.94" occupancy="1.47" waitingTime="0.00" speed="27.24" departed="0" arrived="0" entered="2" left="2" laneChangedFrom="0" laneChangedTo="0"/>
      <edge id=":beg_0" sampledSeconds="19.01" traveltime="3.17" density="122.64" occupancy="61.32" waitingTime="0.00" speed="1.96" departed="0" arrived="0" entered="6" left="6" laneChangedFrom="0" laneChangedTo="0"/>
      <edge id=":end_1" sampledSeconds="3.30" traveltime="1.65" density="21.27" occupancy="10.64" waitingTime="0.00" speed="3.76" departed="0" arrived="0" entered="2" left="2" laneChangedFrom="0" laneChangedTo="0"/>
      <edge id="beg" sampledSeconds="505.30" traveltime="55.54" density="40.54" occupancy="20.27" waitingTime="0.05" speed="8.98" departed="10" arrived="0" entered="0" left="6" laneChangedFrom="0" laneChangedTo="0"/>
      <edge id="end" sampledSeconds="32.37" traveltime="22.52" density="2.60" occupancy="1.30" waitingTime="0.00" speed="22.14" departed="0" arrived="0" entered="2" left="2" laneChangedFrom="0" laneChangedTo="0"/>
      <edge id="middle" sampledSeconds="995.45" traveltime="458.93" density="40.20" occupancy="20.10" waitingTime="0.00" speed="2.16" departed="0" arrived="0" entered="6" left="2" laneChangedFrom="0" laneChangedTo="0"/>
      <edge id="rend" sampledSeconds="1.56" traveltime="18.36" density="0.13" occupancy="0.06" waitingTime="0.00" speed="27.24" departed="0" arrived="2" entered="2" left="0" laneChangedFrom="0" laneChangedTo="0"/>
   </interval>
   <interval begin="175" end="200" id="dump_25">
      <edge id=":absEnd_0" sampledSeconds="0.01" traveltime="0.00" density="2.93" occupancy="1.47" waitingTime="0.00" speed="27.28" departed="0" arrived="0" entered="2" left="2" laneChangedFrom="0" laneChangedTo="0"/>
      <edge id=":beg_0" sampledSeconds="17.96" traveltime="2.99" density="115.88" occupancy="57.94" waitingTime="0.00" speed="2.08" departed="0" arrived="0" entered="7" left="6" laneChangedFrom="0" laneChangedTo="0"/>
      <edge id=":end_1" sampledSeconds="1.48" traveltime="1.48" density="9.56" occupancy="4.78" waitingTime="0.00" speed="4.18" departed="0" arrived="0" entered="1" left="1" laneChangedFrom="0" laneChangedTo="0"/>
      <edge id="beg" sampledSeconds="596.08" traveltime="66.31" density="47.82" occupancy="23.91" waitingTime="0.00" speed="7.52" departed="10" arrived="0" entered="0" left="7" laneChangedFrom="0" laneChangedTo="0"/>
      <edge id="end" sampledSeconds="39.32" traveltime="23.85" density="3.15" occupancy="1.58" waitingTime="0.00" speed="20.90" departed="0" arrived="0" entered="1" left="2" laneChangedFrom="0" laneChangedTo="0"/>
      <edge id="middle" sampledSeconds="1109.71" traveltime="472.77" density="44.81" occupancy="22.41" waitingTime="0.00" speed="2.10" departed="0" arrived="0" entered="6" left="1" laneChangedFrom="0" laneChangedTo="0"/>
      <edge id="rend" sampledSeconds="0.44" traveltime="18.43" density="0.04" occupancy="0.02" waitingTime="0.00" speed="27.13" departed="0" arrived="2" entered="2" left="0" laneChangedFrom="0" laneChangedTo="0"/>
   </interval>
   <interval begin="200" end="225" id="dump_25">
      <edge id=":absEnd_0" sampledSeconds="0.00" traveltime="0.00" density="1.44" occupancy="0.72" waitingTime="0.00" speed="27.70" departed="0" arrived="0" entered="1" left="1" laneChangedFrom="0" laneChangedTo="0"/>
      <edge id=":beg_0" sampledSeconds="19.23" traveltime="2.75" density="124.07" occupancy="62.03" waitingTime="0.00" speed="2.25" departed="0" arrived="0" entered="6" left="7" laneChangedFrom="0" laneChangedTo="0"/>
      <edge id=":end_1" sampledSeconds="7.84" traveltime="1.09" density="50.60" occupancy="25.30" waitingTime="0.00" speed="5.68" departed="0" arrived="0" entered="8" left="7" laneChangedFrom="0" laneChangedTo="0"/>
      <edge id="beg" sampledSeconds="683.15" traveltime="79.07" density="54.81" occupancy="27.41" waitingTime="0.00" speed="6.30" departed="9" arrived="0" entered="0" left="6" laneChangedFrom="0" laneChangedTo="0"/>
      <edge id="end" sampledSeconds="87.77" traveltime="26.84" density="7.04" occupancy="3.52" waitingTime="0.00" speed="18.57" departed="0" arrived="0" entered="7" left="1" laneChangedFrom="0" laneChangedTo="0"/>
      <edge id="middle" sampledSeconds="1171.61" traveltime="92.04" density="47.31" occupancy="23.66" waitingTime="0.00" speed="10.76" departed="0" arrived="0" entered="7" left="8" laneChangedFrom="0" laneChangedTo="0"/>
      <edge id="rend" sampledSeconds="0.39" traveltime="18.05" density="0.03" occupancy="0.02" waitingTime="0.00" speed="27.70" departed="0" arrived="1" entered="1" left="0" laneChangedFrom="0" laneChangedTo="0"/>
   </interval>
   <interval begin="225" end="250" id="dump_25">
      <edge id=":absEnd_0" sampledSeconds="0.03" traveltime="0.00" density="11.65" occupancy="5.83" waitingTime="0.00" speed="27.46" departed="0" arrived="0" entered="8" left="8" laneChangedFrom="0" laneChangedTo="0"/>
      <edge id=":beg_0" sampledSeconds="13.62" traveltime="1.36" density="87.88" occupancy="43.94" waitingTime="0.00" speed="4.55" departed="0" arrived="0" entered="11" left="10" laneChangedFrom="0" laneChangedTo="0"/>
      <edge id=":end_1" sampledSeconds="10.27" traveltime="0.95" density="66.23" occupancy="33.12" waitingTime="0.00" speed="6.53" departed="0" arrived="0" entered="10" left="11" laneChangedFrom="0" laneChangedTo="0"/>
      <edge id="beg" sampledSeconds="730.72" traveltime="79.29" density="58.63" occupancy="29.31" waitingTime="0.00" speed="6.29" departed="11" arrived="0" entered="0" left="11" laneChangedFrom="0" laneChangedTo="0"/>
      <edge id="end" sampledSeconds="227.80" traveltime="23.25" density="18.28" occupancy="9.14" waitingTime="0.00" speed="21.44" departed="0" arrived="0" entered="11" left="8" laneChangedFrom="0" laneChangedTo="0"/>
      <edge id="middle" sampledSeconds="1137.01" traveltime="70.00" density="45.92" occupancy="22.96" waitingTime="0.00" speed="14.15" departed="0" arrived="0" entered="10" left="10" laneChangedFrom="0" laneChangedTo="0"/>
      <edge id="rend" sampledSeconds="2.55" traveltime="18.20" density="0.20" occupancy="0.10" waitingTime="0.00" speed="27.48" departed="0" arrived="8" entered="8" left="0" laneChangedFrom="0" laneChangedTo="0"/>
   </interval>
   <interval begin="250" end="275" id="dump_25">
      <edge id=":absEnd_0" sampledSeconds="0.04" traveltime="0.00" density="15.96" occupancy="7.98" waitingTime="0.00" speed="27.56" departed="0" arrived="0" entered="11" left="11" laneChangedFrom="0" laneChangedTo="0"/>
      <edge id=":beg_0" sampledSeconds="8.55" traveltime="0.66" density="55.19" occupancy="27.60" waitingTime="0.00" speed="9.42" departed="0" arrived="0" entered="12" left="13" laneChangedFrom="0" laneChangedTo="0"/>
      <edge id=":end_1" sampledSeconds="10.24" traveltime="1.07" density="66.05" occupancy="33.02" waitingTime="0.00" speed="5.80" departed="0" arrived="0" entered="10" left="9" laneChangedFrom="0" laneChangedTo="0"/>
      <edge id="beg" sampledSeconds="601.48" traveltime="73.23" density="48.26" occupancy="24.13" waitingTime="0.00" speed="6.81" departed="1" arrived="0" entered="0" left="12" laneChangedFrom="0" laneChangedTo="0"/>
      <edge id="end" sampledSeconds="230.64" traveltime="23.04" density="18.51" occupancy="9.25" waitingTime="0.00" speed="21.64" departed="0" arrived="0" entered="9" left="11" laneChangedFrom="0" laneChangedTo="0"/>
      <edge id="middle" sampledSeconds="1184.46" traveltime="80.28" density="47.83" occupancy="23.92" waitingTime="0.00" speed="12.34" departed="0" arrived="0" entered="13" left="10" laneChangedFrom="0" laneChangedTo="0"/>
      <edge id="rend" sampledSeconds="5.59" traveltime="18.16" density="0.45" occupancy="0.22" waitingTime="0.00" speed="27.53" departed="0" arrived="11" entered="11" left="0" laneChangedFrom="0" laneChangedTo="0"/>
   </interval>
   <interval begin="275" end="300" id="dump_25">
      <edge id=":absEnd_0" sampledSeconds="0.03" traveltime="0.00" density="13.09" occupancy="6.54" waitingTime="0.00" speed="27.51" departed="0" arrived="0" entered="9" left="9" laneChangedFrom="0" laneChangedTo="0"/>
      <edge id=":beg_0" sampledSeconds="8.21" traveltime="0.66" density="52.97" occupancy="26.49" waitingTime="0.00" speed="9.43" departed="0" arrived="0" entered="13" left="12" laneChangedFrom="0" laneChangedTo="0"/>
      <edge id=":end_1" sampledSeconds="9.75" traveltime="1.03" density="62.91" occupancy="31.45" waitingTime="0.00" speed="5.99" departed="0" arrived="0" entered="9" left="10" laneChangedFrom="0" laneChangedTo="0"/>
      <edge id="beg" sampledSeconds="290.59" traveltime="78.28" density="23.31" occupancy="11.66" waitingTime="0.00" speed="6.37" departed="0" arrived="0" entered="0" left="13" laneChangedFrom="0" laneChangedTo="0"/>
      <edge id="end" sampledSeconds="222.45" traveltime="23.19" density="17.85" occupancy="8.92" waitingTime="0.00" speed="21.50" departed="0" arrived="0" entered="10" left="9" laneChangedFrom="0" laneChangedTo="0"/>
      <edge id="middle" sampledSeconds="1258.28" traveltime="105.23" density="50.81" occupancy="25.41" waitingTime="0.00" speed="9.41" departed="0" arrived="0" entered="12" left="9" laneChangedFrom="0" laneChangedTo="0"/>
      <edge id="rend" sampledSeconds="2.69" traveltime="18.17" density="0.22" occupancy="0.11" waitingTime="0.00" speed="27.51" departed="0" arrived="9" entered="9" left="0" laneChangedFrom="0" laneChangedTo="0"/>
   </interval>
   <interval begin="300" end="325" id="dump_25">
      <edge id=":absEnd_0" sampledSeconds="0.04" traveltime="0.00" density="14.57" occupancy="7.29" waitingTime="0.00" speed="27.45" departed="0" arrived="0" entered="10" left="10" laneChangedFrom="0" laneChangedTo="0"/>
      <edge id=":beg_0" sampledSeconds="3.64" traveltime="0.66" density="23.49" occupancy="11.75" waitingTime="0.00" speed="9.38" departed="0" arrived="0" entered="5" left="6" laneChangedFrom="0" laneChangedTo="0"/>
      <edge id=":end_1" sampledSeconds="10.66" traveltime="1.07" density="68.79" occupancy="34.40" waitingTime="0.00" speed="5.81" departed="0" arrived="0" entered="10" left="10" laneChangedFrom="0" laneChangedTo="0"/>
      <edge id="beg" sampledSeconds="28.56" traveltime="73.16" density="2.29" occupancy="1.15" waitingTime="0.00" speed="6.81" departed="0" arrived="0" entered="0" left="5" laneChangedFrom="0" laneChangedTo="0"/>
      <edge id="end" sampledSeconds="219.42" traveltime="23.22" density="17.60" occupancy="8.80" waitingTime="0.00" speed="21.47" departed="0" arrived="0" entered="10" left="10" laneChangedFrom="0" laneChangedTo="0"/>
      <edge id="middle" sampledSeconds="1287.08" traveltime="122.64" density="51.98" occupancy="25.99" waitingTime="0.00" speed="8.08" departed="0" arrived="0" entered="6" left="10" laneChangedFrom="0" laneChangedTo="0"/>
      <edge id="rend" sampledSeconds="4.60" traveltime="18.23" density="0.37" occupancy="0.18" waitingTime="0.00" speed="27.42" departed="0" arrived="10" entered="10" left="0" laneChangedFrom="0" laneChangedTo="0"/>
   </interval>
   <interval begin="325" end="350" id="dump_25">
      <edge id=":absEnd_0" sampledSeconds="0.03" traveltime="0.00" density="13.12" occupancy="6.56" waitingTime="0.00" speed="27.43" departed="0" arrived="0" entered="9" left="9" laneChangedFrom="0" laneChangedTo="0"/>
      <edge id=":end_1" sampledSeconds="10.56" traveltime="1.06" density="68.12" occupancy="34.06" waitingTime="0.00" speed="5.87" departed="0" arrived="0" entered="10" left="10" laneChangedFrom="0" laneChangedTo="0"/>
      <edge id="end" sampledSeconds="227.91" traveltime="22.95" density="18.29" occupancy="9.14" waitingTime="0.00" speed="21.72" departed="0" arrived="0" entered="10" left="9" laneChangedFrom="0" laneChangedTo="0"/>
      <edge id="middle" sampledSeconds="1072.55" traveltime="218.29" density="43.31" occupancy="21.66" waitingTime="0.00" speed="4.54" departed="0" arrived="0" entered="0" left="10" laneChangedFrom="0" laneChangedTo="0"/>
      <edge id="rend" sampledSeconds="3.95" traveltime="18.21" density="0.32" occupancy="0.16" waitingTime="0.00" speed="27.46" departed="0" arrived="9" entered="9" left="0" laneChangedFrom="0" laneChangedTo="0"/>
   </interval>
   <interval begin="350" end="375" id="dump_25">
      <edge id=":absEnd_0" sampledSeconds="0.04" traveltime="0.00" density="16.05" occupancy="8.03" waitingTime="0.00" speed="27.41" departed="0" arrived="0" entered="11" left="11" laneChangedFrom="0" laneChangedTo="0"/>
      <edge id=":end_1" sampledSeconds="10.18" traveltime="1.03" density="65.67" occupancy="32.84" waitingTime="0.00" speed="6.01" departed="0" arrived="0" entered="10" left="9" laneChangedFrom="0" laneChangedTo="0"/>
      <edge id="end" sampledSeconds="225.92" traveltime="22.95" density="18.13" occupancy="9.06" waitingTime="0.00" speed="21.73" departed="0" arrived="0" entered="9" left="11" laneChangedFrom="0" laneChangedTo="0"/>
      <edge id="middle" sampledSeconds="826.25" traveltime="245.45" density="33.37" occupancy="16.68" waitingTime="0.00" speed="4.04" departed="0" arrived="0" entered="0" left="10" laneChangedFrom="0" laneChangedTo="0"/>
      <edge id="rend" sampledSeconds="5.62" traveltime="18.22" density="0.45" occupancy="0.22" waitingTime="0.00" speed="27.44" departed="0" arrived="11" entered="11" left="0" laneChangedFrom="0" laneChangedTo="0"/>
   </interval>
   <interval begin="375" end="400" id="dump_25">
      <edge id=":absEnd_0" sampledSeconds="0.03" traveltime="0.00" density="13.10" occupancy="6.55" waitingTime="0.00" speed="27.49" departed="0" arrived="0" entered="9" left="9" laneChangedFrom="0" laneChangedTo="0"/>
      <edge id=":end_1" sampledSeconds="9.94" traveltime="1.04" density="64.15" occupancy="32.07" waitingTime="0.00" speed="5.98" departed="0" arrived="0" entered="10" left="10" laneChangedFrom="0" laneChangedTo="0"/>
      <edge id="end" sampledSeconds="229.29" traveltime="23.37" density="18.40" occupancy="9.20" waitingTime="0.00" speed="21.33" departed="0" arrived="0" entered="10" left="9" laneChangedFrom="0" laneChangedTo="0"/>
      <edge id="middle" sampledSeconds="578.90" traveltime="247.82" density="23.38" occupancy="11.69" waitingTime="0.00" speed="4.00" departed="0" arrived="0" entered="0" left="10" laneChangedFrom="0" laneChangedTo="0"/>
      <edge id="rend" sampledSeconds="4.84" traveltime="18.18" density="0.39" occupancy="0.19" waitingTime="0.00" speed="27.50" departed="0" arrived="9" entered="9" left="0" laneChangedFrom="0" laneChangedTo="0"/>
   </interval>
   <interval begin="400" end="425" id="dump_25">
      <edge id=":absEnd_0" sampledSeconds="0.04" traveltime="0.00" density="14.67" occupancy="7.33" waitingTime="0.00" speed="27.27" departed="0" arrived="0" entered="10" left="10" laneChangedFrom="0" laneChangedTo="0"/>
      <edge id=":end_1" sampledSeconds="10.36" traveltime="1.09" density="66.86" occupancy="33.43" waitingTime="0.00" speed="5.71" departed="0" arrived="0" entered="9" left="10" laneChangedFrom="0" laneChangedTo="0"/>
      <edge id="end" sampledSeconds="231.58" traveltime="22.89" density="18.58" occupancy="9.29" waitingTime="0.00" speed="21.78" departed="0" arrived="0" entered="10" left="10" laneChangedFrom="0" laneChangedTo="0"/>
      <edge id="middle" sampledSeconds="330.15" traveltime="237.35" density="13.33" occupancy="6.67" waitingTime="0.00" speed="4.17" departed="0" arrived="0" entered="0" left="9" laneChangedFrom="0" laneChangedTo="0"/>
      <edge id="rend" sampledSeconds="4.86" traveltime="18.32" density="0.39" occupancy="0.19" waitingTime="0.00" speed="27.29" departed="0" arrived="10" entered="10" left="0" laneChangedFrom="0" laneChangedTo="0"/>
   </interval>
   <interval begin="425" end="450" id="dump_25">
      <edge id=":absEnd_0" sampledSeconds="0.04" traveltime="0.00" density="14.67" occupancy="7.34" waitingTime="0.00" speed="27.26" departed="0" arrived="0" entered="10" left="10" laneChangedFrom="0" laneChangedTo="0"/>
      <edge id=":end_1" sampledSeconds="9.37" traveltime="1.04" density="60.46" occupancy="30.23" waitingTime="0.00" speed="5.95" departed="0" arrived="0" entered="9" left="9" laneChangedFrom="0" laneChangedTo="0"/>
      <edge id="end" sampledSeconds="220.72" traveltime="23.03" density="17.71" occupancy="8.85" waitingTime="0.00" speed="21.65" departed="0" arrived="0" entered="9" left="10" laneChangedFrom="0" laneChangedTo="0"/>
      <edge id="middle" sampledSeconds="91.06" traveltime="249.22" density="3.68" occupancy="1.84" waitingTime="0.00" speed="3.97" departed="0" arrived="0" entered="0" left="9" laneChangedFrom="0" laneChangedTo="0"/>
      <edge id="rend" sampledSeconds="5.81" traveltime="18.36" density="0.46" occupancy="0.23" waitingTime="0.00" speed="27.23" departed="0" arrived="10" entered="10" left="0" laneChangedFrom="0" laneChangedTo="0"/>
   </interval>
   <interval begin="450" end="475" id="dump_25">
      <edge id=":absEnd_0" sampledSeconds="0.03" traveltime="0.00" density="11.65" occupancy="5.83" waitingTime="0.00" speed="27.47" departed="0" arrived="0" entered="8" left="8" laneChangedFrom="0" laneChangedTo="0"/>
      <edge id="end" sampledSeconds="84.27" traveltime="19.52" density="6.76" occupancy="3.38" waitingTime="0.00" speed="25.54" departed="0" arrived="0" entered="0" left="8" laneChangedFrom="0" laneChangedTo="0"/>
      <edge id="rend" sampledSeconds="3.70" traveltime="18.19" density="0.30" occupancy="0.15" waitingTime="0.00" speed="27.49" departed="0" arrived="8" entered="8" left="0" laneChangedFrom="0" laneChangedTo="0"/>
   </interval>
   <interval begin="475" end="500" id="dump_25">
   </interval>
   <interval begin="500" end="525" id="dump_25">
   </interval>
   <interval begin="525" end="550" id="dump_25">
   </interval>
   <interval begin="550" end="575" id="dump_25">
   </interval>
   <interval begin="575" end="600" id="dump_25">
   </interval>
   <interval begin="600" end="625" id="dump_25">
   </interval>
   <interval begin="625" end="650" id="dump_25">
   </interval>
   <interval begin="650" end="675" id="dump_25">
   </interval>
   <interval begin="675" end="700" id="dump_25">
   </interval>
   <interval begin="700" end="725" id="dump_25">
   </interval>
   <interval begin="725" end="750" id="dump_25">
   </interval>
   <interval begin="750" end="775" id="dump_25">
   </interval>
   <interval begin="775" end="800" id="dump_25">
   </interval>
   <interval begin="800" end="825" id="dump_25">
   </interval>
   <interval begin="825" end="850" id="dump_25">
   </interval>
   <interval begin="850" end="875" id="dump_25">
   </interval>
   <interval begin="875" end="900" id="dump_25">
   </interval>
   <interval begin="900" end="925" id="dump_25">
   </interval>
   <interval begin="925" end="950" id="dump_25">
   </interval>
   <interval begin="950" end="975" id="dump_25">
   </interval>
   <interval begin="975" end="1000" id="dump_25">
   </interval>
</netstats>
