<?xml version="1.0"?>

<!-- generated on 01/04/12 21:53:34 by SUMO sumo Version dev-SVN-r11548
<?xml version="1.0" encoding="UTF-8"?>

<configuration xmlns:xsi="http://www.w3.org/2001/XMLSchema-instance" xsi:noNamespaceSchemaLocation="http://sumo.sf.net/xsd/sumoConfiguration.xsd">

    <input>
        <net-file value="net.net.xml"/>
        <route-files value="input_routes.rou.xml"/>
        <additional-files value="input_additional.add.xml,input_additional2.add.xml"/>
    </input>

    <time>
        <begin value="0"/>
        <end value="1000"/>
    </time>

    <report>
        <no-duration-log value="true"/>
        <no-step-log value="true"/>
    </report>

</configuration>
-->

<netstats>
    <interval begin="0.00" end="25.00" id="dump_25">
        <edge id="beg" sampledSeconds="125.00" traveltime="32.03" density="10.03" occupancy="5.01" waitingTime="0.00" speed="15.56" departed="10" arrived="0" entered="0" left="0" laneChangedFrom="0" laneChangedTo="0"/>
    </interval>
    <interval begin="25.00" end="50.00" id="dump_25">
        <edge id="beg" sampledSeconds="265.53" traveltime="27.23" density="21.30" occupancy="10.65" waitingTime="0.00" speed="18.31" departed="10" arrived="0" entered="0" left="9" laneChangedFrom="0" laneChangedTo="0"/>
        <edge id="middle" sampledSeconds="105.33" traveltime="74.79" density="4.25" occupancy="2.13" waitingTime="0.00" speed="13.24" departed="0" arrived="0" entered="9" left="0" laneChangedFrom="0" laneChangedTo="0"/>
    </interval>
    <interval begin="50.00" end="75.00" id="dump_25">
        <edge id="beg" sampledSeconds="263.98" traveltime="27.44" density="21.18" occupancy="10.59" waitingTime="0.00" speed="18.17" departed="9" arrived="0" entered="0" left="10" laneChangedFrom="0" laneChangedTo="0"/>
        <edge id="middle" sampledSeconds="346.37" traveltime="74.81" density="13.99" occupancy="6.99" waitingTime="0.00" speed="13.24" departed="0" arrived="0" entered="10" left="0" laneChangedFrom="0" laneChangedTo="0"/>
    </interval>
    <interval begin="75.00" end="100.00" id="dump_25">
        <edge id="beg" sampledSeconds="251.60" traveltime="27.01" density="20.19" occupancy="10.09" waitingTime="0.00" speed="18.46" departed="10" arrived="0" entered="0" left="9" laneChangedFrom="0" laneChangedTo="0"/>
        <edge id="middle" sampledSeconds="588.23" traveltime="74.67" density="23.75" occupancy="11.88" waitingTime="0.00" speed="13.27" departed="0" arrived="0" entered="9" left="0" laneChangedFrom="0" laneChangedTo="0"/>
    </interval>
    <interval begin="100.00" end="125.00" id="dump_25">
        <edge id="beg" sampledSeconds="281.01" traveltime="31.93" density="22.55" occupancy="11.27" waitingTime="2.00" speed="15.62" departed="9" arrived="0" entered="0" left="7" laneChangedFrom="0" laneChangedTo="0"/>
        <edge id="end" sampledSeconds="14.09" traveltime="26.53" density="1.13" occupancy="0.57" waitingTime="0.00" speed="18.79" departed="0" arrived="0" entered="1" left="0" laneChangedFrom="0" laneChangedTo="0"/>
        <edge id="middle" sampledSeconds="760.42" traveltime="398.83" density="30.71" occupancy="15.35" waitingTime="0.00" speed="2.48" departed="0" arrived="0" entered="6" left="1" laneChangedFrom="0" laneChangedTo="0"/>
    </interval>
    <interval begin="125.00" end="150.00" id="dump_25">
        <edge id="beg" sampledSeconds="375.03" traveltime="40.24" density="30.09" occupancy="15.04" waitingTime="0.00" speed="12.39" departed="10" arrived="0" entered="0" left="5" laneChangedFrom="0" laneChangedTo="0"/>
        <edge id="end" sampledSeconds="28.59" traveltime="22.17" density="2.29" occupancy="1.15" waitingTime="0.00" speed="22.49" departed="0" arrived="0" entered="2" left="1" laneChangedFrom="0" laneChangedTo="0"/>
        <edge id="middle" sampledSeconds="870.55" traveltime="468.62" density="35.16" occupancy="17.58" waitingTime="0.00" speed="2.11" departed="0" arrived="0" entered="6" left="2" laneChangedFrom="0" laneChangedTo="0"/>
        <edge id="rend" sampledSeconds="16.39" traveltime="18.39" density="1.31" occupancy="0.66" waitingTime="0.00" speed="27.19" departed="0" arrived="0" entered="1" left="0" laneChangedFrom="0" laneChangedTo="0"/>
    </interval>
    <interval begin="150.00" end="175.00" id="dump_25">
        <edge id="beg" sampledSeconds="472.72" traveltime="52.86" density="37.93" occupancy="18.96" waitingTime="0.00" speed="9.43" departed="9" arrived="0" entered="0" left="6" laneChangedFrom="0" laneChangedTo="0"/>
        <edge id="end" sampledSeconds="40.77" traveltime="22.66" density="3.27" occupancy="1.64" waitingTime="0.00" speed="22.00" departed="0" arrived="0" entered="1" left="2" laneChangedFrom="0" laneChangedTo="0"/>
        <edge id="middle" sampledSeconds="969.37" traveltime="469.99" density="39.15" occupancy="19.57" waitingTime="0.00" speed="2.11" departed="0" arrived="0" entered="5" left="1" laneChangedFrom="0" laneChangedTo="0"/>
        <edge id="rend" sampledSeconds="26.12" traveltime="18.38" density="2.09" occupancy="1.04" waitingTime="0.00" speed="27.20" departed="0" arrived="2" entered="2" left="0" laneChangedFrom="0" laneChangedTo="0"/>
    </interval>
    <interval begin="175.00" end="200.00" id="dump_25">
        <edge id="beg" sampledSeconds="559.07" traveltime="66.04" density="44.86" occupancy="22.43" waitingTime="0.00" speed="7.55" departed="10" arrived="0" entered="0" left="6" laneChangedFrom="0" laneChangedTo="0"/>
        <edge id="end" sampledSeconds="29.60" traveltime="21.46" density="2.38" occupancy="1.19" waitingTime="0.00" speed="23.24" departed="0" arrived="0" entered="1" left="2" laneChangedFrom="0" laneChangedTo="0"/>
        <edge id="middle" sampledSeconds="1082.74" traveltime="478.32" density="43.72" occupancy="21.86" waitingTime="0.00" speed="2.07" departed="0" arrived="0" entered="6" left="2" laneChangedFrom="0" laneChangedTo="0"/>
        <edge id="rend" sampledSeconds="33.19" traveltime="18.45" density="2.66" occupancy="1.33" waitingTime="0.00" speed="27.11" departed="0" arrived="0" entered="2" left="0" laneChangedFrom="0" laneChangedTo="0"/>
    </interval>
    <interval begin="200.00" end="225.00" id="dump_25">
        <edge id="beg" sampledSeconds="655.47" traveltime="78.23" density="52.59" occupancy="26.30" waitingTime="0.00" speed="6.37" departed="9" arrived="0" entered="0" left="6" laneChangedFrom="0" laneChangedTo="0"/>
        <edge id="end" sampledSeconds="97.70" traveltime="24.49" density="7.84" occupancy="3.92" waitingTime="0.00" speed="20.36" departed="0" arrived="0" entered="8" left="1" laneChangedFrom="0" laneChangedTo="0"/>
        <edge id="middle" sampledSeconds="1122.42" traveltime="109.85" density="45.33" occupancy="22.66" waitingTime="0.00" speed="9.02" departed="0" arrived="0" entered="6" left="7" laneChangedFrom="0" laneChangedTo="0"/>
        <edge id="rend" sampledSeconds="20.34" traveltime="18.55" density="1.63" occupancy="0.81" waitingTime="0.00" speed="26.95" departed="0" arrived="0" entered="1" left="0" laneChangedFrom="0" laneChangedTo="0"/>
    </interval>
    <interval begin="225.00" end="250.00" id="dump_25">
        <edge id="beg" sampledSeconds="737.96" traveltime="91.15" density="59.21" occupancy="29.60" waitingTime="0.00" speed="5.47" departed="9" arrived="0" entered="0" left="6" laneChangedFrom="0" laneChangedTo="0"/>
        <edge id="end" sampledSeconds="184.25" traveltime="22.17" density="14.78" occupancy="7.39" waitingTime="0.00" speed="22.49" departed="0" arrived="0" entered="9" left="8" laneChangedFrom="0" laneChangedTo="0"/>
        <edge id="middle" sampledSeconds="1062.34" traveltime="90.29" density="42.90" occupancy="21.45" waitingTime="0.00" speed="10.97" departed="0" arrived="0" entered="7" left="9" laneChangedFrom="0" laneChangedTo="0"/>
        <edge id="rend" sampledSeconds="108.93" traveltime="18.42" density="8.71" occupancy="4.36" waitingTime="0.00" speed="27.14" departed="0" arrived="0" entered="8" left="0" laneChangedFrom="0" laneChangedTo="0"/>
    </interval>
    <interval begin="250.00" end="275.00" id="dump_25">
        <edge id="beg" sampledSeconds="749.69" traveltime="93.14" density="60.15" occupancy="30.07" waitingTime="0.00" speed="5.35" departed="6" arrived="0" entered="0" left="11" laneChangedFrom="0" laneChangedTo="0"/>
        <edge id="end" sampledSeconds="187.39" traveltime="22.23" density="15.03" occupancy="7.52" waitingTime="0.00" speed="22.43" departed="0" arrived="0" entered="8" left="9" laneChangedFrom="0" laneChangedTo="0"/>
        <edge id="middle" sampledSeconds="1065.14" traveltime="90.75" density="43.01" occupancy="21.51" waitingTime="0.00" speed="10.91" departed="0" arrived="0" entered="11" left="8" laneChangedFrom="0" laneChangedTo="0"/>
        <edge id="rend" sampledSeconds="156.25" traveltime="18.46" density="12.50" occupancy="6.25" waitingTime="0.00" speed="27.09" departed="0" arrived="0" entered="9" left="0" laneChangedFrom="0" laneChangedTo="0"/>
    </interval>
    <interval begin="275.00" end="300.00" id="dump_25">
        <edge id="beg" sampledSeconds="502.12" traveltime="104.75" density="40.29" occupancy="20.14" waitingTime="0.00" speed="4.76" departed="0" arrived="0" entered="0" left="12" laneChangedFrom="0" laneChangedTo="0"/>
        <edge id="end" sampledSeconds="192.99" traveltime="22.21" density="15.48" occupancy="7.74" waitingTime="0.00" speed="22.45" departed="0" arrived="0" entered="9" left="8" laneChangedFrom="0" laneChangedTo="0"/>
        <edge id="middle" sampledSeconds="1146.03" traveltime="100.71" density="46.28" occupancy="23.14" waitingTime="0.00" speed="9.83" departed="0" arrived="0" entered="12" left="9" laneChangedFrom="0" laneChangedTo="0"/>
        <edge id="rend" sampledSeconds="154.01" traveltime="18.43" density="12.32" occupancy="6.16" waitingTime="0.00" speed="27.13" departed="0" arrived="0" entered="8" left="0" laneChangedFrom="0" laneChangedTo="0"/>
    </interval>
    <interval begin="300.00" end="325.00" id="dump_25">
        <edge id="beg" sampledSeconds="197.03" traveltime="56.43" density="15.81" occupancy="7.90" waitingTime="0.00" speed="8.84" departed="0" arrived="0" entered="0" left="12" laneChangedFrom="0" laneChangedTo="0"/>
        <edge id="end" sampledSeconds="190.31" traveltime="21.93" density="15.27" occupancy="7.63" waitingTime="0.00" speed="22.73" departed="0" arrived="0" entered="8" left="9" laneChangedFrom="0" laneChangedTo="0"/>
        <edge id="middle" sampledSeconds="1234.60" traveltime="112.35" density="49.86" occupancy="24.93" waitingTime="0.00" speed="8.82" departed="0" arrived="0" entered="12" left="9" laneChangedFrom="0" laneChangedTo="0"/>
        <edge id="rend" sampledSeconds="164.71" traveltime="18.41" density="13.18" occupancy="6.59" waitingTime="0.00" speed="27.16" departed="0" arrived="0" entered="9" left="0" laneChangedFrom="0" laneChangedTo="0"/>
    </interval>
    <interval begin="325.00" end="350.00" id="dump_25">
        <edge id="beg" sampledSeconds="2.85" traveltime="42.09" density="0.23" occupancy="0.11" waitingTime="0.00" speed="11.85" departed="0" arrived="0" entered="0" left="2" laneChangedFrom="0" laneChangedTo="0"/>
        <edge id="end" sampledSeconds="188.20" traveltime="22.40" density="15.10" occupancy="7.55" waitingTime="0.00" speed="22.26" departed="0" arrived="0" entered="9" left="8" laneChangedFrom="0" laneChangedTo="0"/>
        <edge id="middle" sampledSeconds="1222.68" traveltime="132.14" density="49.38" occupancy="24.69" waitingTime="0.00" speed="7.50" departed="0" arrived="0" entered="2" left="8" laneChangedFrom="0" laneChangedTo="0"/>
        <edge id="rend" sampledSeconds="154.37" traveltime="18.42" density="12.35" occupancy="6.17" waitingTime="0.00" speed="27.14" departed="0" arrived="0" entered="8" left="0" laneChangedFrom="0" laneChangedTo="0"/>
    </interval>
    <interval begin="350.00" end="375.00" id="dump_25">
        <edge id="end" sampledSeconds="191.32" traveltime="22.18" density="15.35" occupancy="7.68" waitingTime="0.00" speed="22.48" departed="0" arrived="0" entered="9" left="9" laneChangedFrom="0" laneChangedTo="0"/>
        <edge id="middle" sampledSeconds="1010.48" traveltime="188.64" density="40.81" occupancy="20.40" waitingTime="0.00" speed="5.25" departed="0" arrived="0" entered="0" left="9" laneChangedFrom="0" laneChangedTo="0"/>
        <edge id="rend" sampledSeconds="157.87" traveltime="18.43" density="12.63" occupancy="6.31" waitingTime="0.00" speed="27.13" departed="0" arrived="0" entered="9" left="0" laneChangedFrom="0" laneChangedTo="0"/>
    </interval>
    <interval begin="375.00" end="400.00" id="dump_25">
        <edge id="end" sampledSeconds="191.06" traveltime="22.01" density="15.33" occupancy="7.66" waitingTime="0.00" speed="22.65" departed="0" arrived="0" entered="8" left="9" laneChangedFrom="0" laneChangedTo="0"/>
        <edge id="middle" sampledSeconds="795.90" traveltime="228.95" density="32.14" occupancy="16.07" waitingTime="0.00" speed="4.33" departed="0" arrived="0" entered="0" left="8" laneChangedFrom="0" laneChangedTo="0"/>
        <edge id="rend" sampledSeconds="158.86" traveltime="18.45" density="12.71" occupancy="6.35" waitingTime="0.00" speed="27.11" departed="0" arrived="0" entered="9" left="0" laneChangedFrom="0" laneChangedTo="0"/>
    </interval>
    <interval begin="400.00" end="425.00" id="dump_25">
        <edge id="end" sampledSeconds="186.80" traveltime="22.06" density="14.99" occupancy="7.49" waitingTime="0.00" speed="22.60" departed="0" arrived="0" entered="9" left="8" laneChangedFrom="0" laneChangedTo="0"/>
        <edge id="middle" sampledSeconds="584.11" traveltime="232.09" density="23.59" occupancy="11.79" waitingTime="0.00" speed="4.27" departed="0" arrived="0" entered="0" left="9" laneChangedFrom="0" laneChangedTo="0"/>
        <edge id="rend" sampledSeconds="158.21" traveltime="18.43" density="12.66" occupancy="6.33" waitingTime="0.00" speed="27.13" departed="0" arrived="0" entered="8" left="0" laneChangedFrom="0" laneChangedTo="0"/>
    </interval>
    <interval begin="425.00" end="450.00" id="dump_25">
        <edge id="end" sampledSeconds="191.57" traveltime="22.04" density="15.37" occupancy="7.69" waitingTime="0.00" speed="22.62" departed="0" arrived="0" entered="8" left="9" laneChangedFrom="0" laneChangedTo="0"/>
        <edge id="middle" sampledSeconds="366.06" traveltime="225.32" density="14.78" occupancy="7.39" waitingTime="0.00" speed="4.40" departed="0" arrived="0" entered="0" left="9" laneChangedFrom="0" laneChangedTo="0"/>
        <edge id="rend" sampledSeconds="157.61" traveltime="18.40" density="12.61" occupancy="6.30" waitingTime="0.00" speed="27.18" departed="0" arrived="0" entered="9" left="0" laneChangedFrom="0" laneChangedTo="0"/>
    </interval>
    <interval begin="450.00" end="475.00" id="dump_25">
        <edge id="end" sampledSeconds="194.24" traveltime="22.16" density="15.58" occupancy="7.79" waitingTime="0.00" speed="22.49" departed="0" arrived="0" entered="9" left="8" laneChangedFrom="0" laneChangedTo="0"/>
        <edge id="middle" sampledSeconds="147.22" traveltime="222.87" density="5.95" occupancy="2.97" waitingTime="0.00" speed="4.44" departed="0" arrived="0" entered="0" left="8" laneChangedFrom="0" laneChangedTo="0"/>
        <edge id="rend" sampledSeconds="160.87" traveltime="18.42" density="12.87" occupancy="6.43" waitingTime="0.00" speed="27.15" departed="0" arrived="0" entered="8" left="0" laneChangedFrom="0" laneChangedTo="0"/>
    </interval>
    <interval begin="475.00" end="500.00" id="dump_25">
        <edge id="end" sampledSeconds="124.29" traveltime="19.99" density="9.97" occupancy="4.99" waitingTime="0.00" speed="24.94" departed="0" arrived="0" entered="2" left="9" laneChangedFrom="0" laneChangedTo="0"/>
        <edge id="middle" sampledSeconds="4.02" traveltime="226.05" density="0.16" occupancy="0.08" waitingTime="0.00" speed="4.38" departed="0" arrived="0" entered="0" left="2" laneChangedFrom="0" laneChangedTo="0"/>
        <edge id="rend" sampledSeconds="159.60" traveltime="18.41" density="12.77" occupancy="6.38" waitingTime="0.00" speed="27.16" departed="0" arrived="0" entered="9" left="0" laneChangedFrom="0" laneChangedTo="0"/>
    </interval>
    <interval begin="500.00" end="525.00" id="dump_25">
        <edge id="end" sampledSeconds="0.94" traveltime="18.59" density="0.08" occupancy="0.04" waitingTime="0.00" speed="26.81" departed="0" arrived="0" entered="0" left="1" laneChangedFrom="0" laneChangedTo="0"/>
        <edge id="rend" sampledSeconds="75.62" traveltime="18.42" density="6.05" occupancy="3.02" waitingTime="0.00" speed="27.14" departed="0" arrived="0" entered="1" left="0" laneChangedFrom="0" laneChangedTo="0"/>
    </interval>
    <interval begin="525.00" end="550.00" id="dump_25">
    </interval>
    <interval begin="550.00" end="575.00" id="dump_25">
    </interval>
    <interval begin="575.00" end="600.00" id="dump_25">
    </interval>
    <interval begin="600.00" end="625.00" id="dump_25">
    </interval>
    <interval begin="625.00" end="650.00" id="dump_25">
    </interval>
    <interval begin="650.00" end="675.00" id="dump_25">
    </interval>
    <interval begin="675.00" end="700.00" id="dump_25">
    </interval>
    <interval begin="700.00" end="725.00" id="dump_25">
    </interval>
    <interval begin="725.00" end="750.00" id="dump_25">
    </interval>
    <interval begin="750.00" end="775.00" id="dump_25">
    </interval>
    <interval begin="775.00" end="800.00" id="dump_25">
    </interval>
    <interval begin="800.00" end="825.00" id="dump_25">
    </interval>
    <interval begin="825.00" end="850.00" id="dump_25">
    </interval>
    <interval begin="850.00" end="875.00" id="dump_25">
    </interval>
    <interval begin="875.00" end="900.00" id="dump_25">
    </interval>
    <interval begin="900.00" end="925.00" id="dump_25">
    </interval>
    <interval begin="925.00" end="950.00" id="dump_25">
    </interval>
    <interval begin="950.00" end="975.00" id="dump_25">
    </interval>
    <interval begin="975.00" end="1000.00" id="dump_25">
    </interval>
</netstats>
