<!-- v3 and p1 should complete their trips without problems 
	 v1,v2,p2 should be recognized as deadlocked 
	 -->
<routes>
    <vehicle id="v1_need_rider" depart="triggered">
        <route edges="beg beg2left left left2end end">
        </route>
    </vehicle>
    <vehicle id="v2_need_rider" depart="0">
        <route edges="beg beg2left left left2end end">
            <stop lane="beg_0" startPos="40" endPos="50" triggered="true"/>
        </route>
    </vehicle>
    <person id="p1_independent" depart="25">
        <walk edges="beg end" duration="50"/>
    </person>
    <person id="p2_need_ride" depart="25">
        <ride from="middle" to="end" lines="p"/>
        <walk edges="end middle" duration="50"/>
    </person>
    <vehicle id="v3_independent" depart="100">
        <route edges="beg2left left left2end end">
            <stop lane="beg2left_0" startPos="40" endPos="50" duration="400"/>
        </route>
    </vehicle>
</routes>
