<routes>
    <vType id="t0" sigma="0"/>
    <routeDistribution id="dist_anon">
        <route edges="beg middle end"/>
        <route edges="beg middle"/>
    </routeDistribution>
    <route id="r0" edges="beg middle end"/>
    <route id="r1" edges="beg middle"/>

    <vehicle id="v0" type="t0" route="dist_anon" depart="0"/>
    <vehicle id="v1" type="t0" route="r0" depart="3"/>

</routes>
