<?xml version="1.0" encoding="UTF-8"?>
<!-- generated on 2021-03-05 20:58:46.599040 by $Id$ v1_8_0+1508-1a217e5cd8
  options: -r input_routes2.rou.xml <doubleminus>turn-file input_turns.xml -o out.rou.xml <doubleminus>optimize 21 -I -f number
-->
<routes xmlns:xsi="http://www.w3.org/2001/XMLSchema-instance" xsi:noNamespaceSchemaLocation="http://sumo.dlr.de/xsd/routes_file.xsd">
<!-- begin="0.0" end="99.0" -->
    <route id="10" edges="-27.80.00 -3 -3.180.00 11 11.80.00 23 23.80.00 31 31.80.00 60 60.80.00 75 75.121.42"/> <!-- 56 -->
    <route id="13" edges="-43 -43.80.00 -27 -27.80.00 -3 -3.180.00 11 11.80.00 23 23.80.00 31 31.80.00 60 60.80.00 -60 -60.80.00"/> <!-- 69 -->
    <route id="17" edges="-68 -43 -43.80.00 -27 -27.80.00 -3 -3.180.00 11 11.80.00 23 23.80.00 31 31.80.00 60"/> <!-- 76 -->

    <flow id="17" begin="0.00" end="97.03" number="76" route="17"/>
    <flow id="13" begin="0.49" end="98.51" number="69" route="13"/>
    <flow id="10" begin="0.99" end="98.01" number="56" route="10"/>
</routes>
