<?xml version="1.0" encoding="UTF-8"?>

<!-- generated on Mon Jul 31 08:06:33 2017 by SUMO netconvert Version dev-SVN-r25337
<?xml version="1.0" encoding="UTF-8"?>

<configuration xmlns:xsi="http://www.w3.org/2001/XMLSchema-instance" xsi:noNamespaceSchemaLocation="http://sumo.dlr.de/xsd/netconvertConfiguration.xsd">

    <input>
        <sumo-net-file value="net.netconvert"/>
    </input>

    <output>
        <plain-output-prefix value="input_plain"/>
    </output>

    <processing>
        <no-turnarounds value="true"/>
        <offset.disable-normalization value="true"/>
        <lefthand value="false"/>
        <junctions.corner-detail value="0"/>
        <rectangular-lane-cut value="false"/>
        <walkingareas value="false"/>
    </processing>

</configuration>
-->

<nodes version="0.27" xmlns:xsi="http://www.w3.org/2001/XMLSchema-instance" xsi:noNamespaceSchemaLocation="http://sumo.dlr.de/xsd/nodes_file.xsd">
    <location netOffset="100.00,100.00" convBoundary="0.00,0.00,200.00,200.00" origBoundary="-10000000000.00,-10000000000.00,10000000000.00,10000000000.00" projParameter="!"/>

    <node id="C" x="100.00" y="100.00" type="traffic_light" tl="C"/>
    <node id="E" x="200.00" y="100.00" type="dead_end"/>
    <node id="N" x="100.00" y="200.00" type="dead_end"/>
    <node id="S" x="100.00" y="0.00" type="dead_end"/>
    <node id="W" x="0.00" y="100.00" type="dead_end"/>
</nodes>
