<?xml version="1.0" encoding="UTF-8"?>

<!-- generated on 16/02/2017 14:09:19 by Netedit Version dev-SVN-r22880
<?xml version="1.0" encoding="UTF-8"?>

<configuration xmlns:xsi="http://www.w3.org/2001/XMLSchema-instance" xsi:noNamespaceSchemaLocation="http://sumo.dlr.de/xsd/netedit.exeConfiguration.xsd">

    <input>
        <sumo-net-file value="C:\Proyectos\Sumo_Trunk\tests\netedit\netElements\junctions\create\net.netedit"/>
    </input>

    <output>
        <output-file value="C:\Proyectos\Sumo_Trunk\tests\netedit\netElements\junctions\create\net.netedit"/>
        <plain-output-prefix value="C:\Proyectos\input_net"/>
    </output>

    <processing>
        <no-turnarounds value="true"/>
        <offset.disable-normalization value="true"/>
        <lefthand value="false"/>
        <junctions.corner-detail value="0"/>
    </processing>

</configuration>
-->

<nodes version="0.27" xmlns:xsi="http://www.w3.org/2001/XMLSchema-instance" xsi:noNamespaceSchemaLocation="http://sumo.dlr.de/xsd/nodes_file.xsd">
    <location netOffset="0.00,0.00" convBoundary="-2.80,25.00,97.20,85.00" origBoundary="-10000000000.00,-10000000000.00,10000000000.00,10000000000.00" projParameter="!"/>

    <node id="gneJ0" x="-2.80" y="85.00" type="traffic_light"/>
    <node id="gneJ1" x="17.20" y="85.00" type="traffic_light"/>
    <node id="gneJ11" x="67.20" y="65.00" type="traffic_light"/>
    <node id="gneJ12" x="87.20" y="65.00" type="traffic_light"/>
    <node id="gneJ13" x="87.20" y="45.00" type="traffic_light"/>
    <node id="gneJ14" x="87.20" y="25.00" type="traffic_light"/>
    <node id="gneJ15" x="67.20" y="25.00" type="traffic_light"/>
    <node id="gneJ16" x="47.20" y="25.00" type="traffic_light"/>
    <node id="gneJ17" x="47.20" y="45.00" type="traffic_light"/>
    <node id="gneJ18" x="47.20" y="65.00" type="traffic_light"/>
    <node id="gneJ19" x="67.20" y="45.00" type="traffic_light"/>
    <node id="gneJ2" x="37.20" y="85.00" type="traffic_light"/>
    <node id="gneJ3" x="57.20" y="85.00" type="traffic_light"/>
    <node id="gneJ4" x="77.20" y="85.00" type="traffic_light"/>
    <node id="gneJ5" x="97.20" y="85.00" type="traffic_light"/>
    <node id="gneJ6" x="-2.80" y="65.00" type="traffic_light"/>
    <node id="gneJ7" x="17.20" y="65.00" type="traffic_light"/>
    <node id="gneJ8" x="17.20" y="45.00" type="traffic_light"/>
    <node id="gneJ9" x="-2.80" y="45.00" type="traffic_light"/>
</nodes>
