<?xml version="1.0" encoding="UTF-8"?>

<!-- generated on 2024-07-03 14:07:15 by Eclipse SUMO netedit Version v1_20_0+0977-3d26a690048
-->

<additional xmlns:xsi="http://www.w3.org/2001/XMLSchema-instance" xsi:noNamespaceSchemaLocation="http://sumo.dlr.de/xsd/additional_file.xsd">
    <!-- StoppingPlaces -->
    <containerStop id="ct_0" lane="EdgeExternBot_0" startPos="52.17" endPos="62.17"/>
    <containerStop id="ct_1" lane="EdgeExternBot_0" startPos="112.83" endPos="122.83"/>
    <containerStop id="ct_2" lane="EdgeExternTop_0" startPos="102.72" endPos="112.72"/>
    <containerStop id="ct_3" lane="EdgeExternTop_0" startPos="62.28" endPos="72.28"/>
    <containerStop id="ct_4" lane="EdgeExternTop_0" startPos="147.76" endPos="157.76"/>
    <containerStop id="ct_5" lane="EdgeExternBot_0" startPos="17.24" endPos="27.24"/>
    <containerStop id="ct_6" lane="EdgeExternBot_0" startPos="147.76" endPos="157.76"/>
    <containerStop id="ct_7" lane="EdgeExternTop_0" startPos="17.24" endPos="27.24"/>
    <containerStop id="ct_8" lane="EdgeCenter1_1" startPos="29.55" endPos="39.55"/>
    <containerStop id="ct_9" lane="EdgeCenter0_1" startPos="7.95" endPos="17.95"/>
</additional>
