<?xml version="1.0" encoding="UTF-8"?>

<!-- generated on Tue Jan 26 13:59:05 2021 by Eclipse SUMO sumo Version v1_8_0+0751-ea278b5
<configuration xmlns:xsi="http://www.w3.org/2001/XMLSchema-instance" xsi:noNamespaceSchemaLocation="http://sumo.dlr.de/xsd/sumoConfiguration.xsd">

    <input>
        <net-file value="input_net.net.xml"/>
        <route-files value="input_routes.rou.xml"/>
    </input>

    <output>
        <lanechange-output value="lanechanges.xml"/>
    </output>

    <processing>
        <default.speeddev value="0"/>
    </processing>

    <report>
        <duration-log.disable value="true"/>
        <no-step-log value="true"/>
    </report>

    <traci_server>
        <remote-port value="46941"/>
    </traci_server>

    <gui_only>
        <window-size value="500,500"/>
        <window-pos value="50,50"/>
    </gui_only>

</configuration>
-->

<lanechanges>
    <change id="ego" type="DEFAULT_VEHTYPE" time="15.00" from="VODUGES_beg_0" to="-VODUGES_beg_0" dir="1" speed="0.00" pos="42.50" reason="strategic|urgent" leaderGap="None" leaderSecureGap="None" leaderSpeed="None" followerGap="None" followerSecureGap="None" followerSpeed="None" origLeaderGap="2.50" origLeaderSecureGap="0.00" origLeaderSpeed="0.00"/>
    <change id="ego" type="DEFAULT_VEHTYPE" time="20.00" from="-VODUGES_beg_0" to="VODUGES_beg_0" dir="-1" speed="13.00" pos="118.50" reason="strategic|urgent" leaderGap="None" leaderSecureGap="None" leaderSpeed="None" followerGap="26.50" followerSecureGap="0.00" followerSpeed="0.00" origLeaderGap="None" origLeaderSecureGap="None" origLeaderSpeed="None"/>
</lanechanges>
