<?xml version="1.0" encoding="UTF-8"?>

<!-- generated on 2022-06-03 16:24:56 by Eclipse SUMO netedit Version v1_13_0+0610-e5b7f68bfcb
-->

<additional xmlns:xsi="http://www.w3.org/2001/XMLSchema-instance" xsi:noNamespaceSchemaLocation="http://sumo.dlr.de/xsd/additional_file.xsd">
    <!-- RouteProbes -->
    <routeProbe id="myRouteProbe" begin="0.00" period="3600.00" edge="center0" file="RouteProbeA.xml"/>
    <!-- Calibrators -->
    <calibrator id="calibrator03" edge="center0" pos="26.00" period="120.00" output="calibrator03.txt" routeProbe="myRouteProbe"/>
</additional>
