<?xml version="1.0" encoding="UTF-8"?>

<!-- generated on 2026-01-16T20:36:32.192686+01:00 by Eclipse SUMO marouter v1_25_0+1009-ba488cb69e4
This data file and the accompanying materials
are made available under the terms of the Eclipse Public License v2.0
which accompanies this distribution, and is available at
http://www.eclipse.org/legal/epl-v20.html
This file may also be made available under the following Secondary
Licenses when the conditions for such availability set forth in the Eclipse
Public License 2.0 are satisfied: GNU General Public License, version 2
or later which is available at
https://www.gnu.org/licenses/old-licenses/gpl-2.0-standalone.html
SPDX-License-Identifier: EPL-2.0 OR GPL-2.0-or-later
<marouterConfiguration xmlns:xsi="http://www.w3.org/2001/XMLSchema-instance" xsi:noNamespaceSchemaLocation="http://sumo.dlr.de/xsd/marouterConfiguration.xsd">

    <input>
        <net-file value="input_net.net.xml"/>
        <route-files value="input_trips.trips.xml"/>
    </input>

    <output>
        <output-file value="routes.rou.xml"/>
        <write-license value="true"/>
    </output>

    <processing>
        <restriction-params value="draught"/>
    </processing>

    <report>
        <xml-validation value="never"/>
    </report>

</marouterConfiguration>
-->

<routes xmlns:xsi="http://www.w3.org/2001/XMLSchema-instance" xsi:noNamespaceSchemaLocation="http://sumo.dlr.de/xsd/routes_file.xsd">
    <vehicle id="0" type="0" depart="0.00" departLane="free" departSpeed="max">
        <routeDistribution>
            <route cost="124.65" probability="1.00000000" edges="absBeg middle end absEnd"/>
        </routeDistribution>
    </vehicle>
</routes>
