<?xml version="1.0" encoding="UTF-8"?>

<!-- generated on 2022-02-02 13:38:53 by Eclipse SUMO netedit Version v1_12_0+0226-1eb391afd0a
<configuration xmlns:xsi="http://www.w3.org/2001/XMLSchema-instance" xsi:noNamespaceSchemaLocation="http://sumo.dlr.de/xsd/netconvertConfiguration.xsd">

    <input>
        <sumo-net-file value="C:\Users\SUMO-Test\.texttest\tmp\netedit.gui.02Feb132338.1468\netedit.gui\additionalElements\parkingarea\inspect\friendlypos\input_net.net.xml"/>
    </input>

    <output>
        <output-file value="C:\Users\SUMO-Test\.texttest\tmp\netedit.gui.02Feb132338.1468\netedit.gui\additionalElements\parkingarea\inspect\friendlypos\net.net.xml"/>
    </output>

    <processing>
        <geometry.min-radius.fix.railways value="false"/>
        <geometry.max-grade.fix value="false"/>
        <offset.disable-normalization value="true"/>
        <lefthand value="false"/>
    </processing>

    <junctions>
        <no-internal-links value="false"/>
        <no-turnarounds value="true"/>
        <junctions.corner-detail value="5"/>
        <junctions.limit-turn-speed value="5.5"/>
        <rectangular-lane-cut value="false"/>
    </junctions>

    <pedestrian>
        <walkingareas value="false"/>
    </pedestrian>

    <netedit>
        <additional-files value="C:\Users\SUMO-Test\.texttest\tmp\netedit.gui.02Feb132338.1468\netedit.gui\additionalElements\parkingarea\inspect\friendlypos\additionals.xml"/>
        <additionals-output value="C:\Users\SUMO-Test\.texttest\tmp\netedit.gui.02Feb132338.1468\netedit.gui\additionalElements\parkingarea\inspect\friendlypos\additionals.xml"/>
        <route-files value="C:\Users\SUMO-Test\.texttest\tmp\netedit.gui.02Feb132338.1468\netedit.gui\additionalElements\parkingarea\inspect\friendlypos\routes.xml"/>
        <demandelements-output value="C:\Users\SUMO-Test\.texttest\tmp\netedit.gui.02Feb132338.1468\netedit.gui\additionalElements\parkingarea\inspect\friendlypos\routes.xml"/>
        <data-files value="C:\Users\SUMO-Test\.texttest\tmp\netedit.gui.02Feb132338.1468\netedit.gui\additionalElements\parkingarea\inspect\friendlypos\datas.xml"/>
        <dataelements-output value="C:\Users\SUMO-Test\.texttest\tmp\netedit.gui.02Feb132338.1468\netedit.gui\additionalElements\parkingarea\inspect\friendlypos\datas.xml"/>
    </netedit>

    <visualisation>
        <gui-settings-file value="C:\Users\SUMO-Test\.texttest\tmp\netedit.gui.02Feb132338.1468\netedit.gui\additionalElements\parkingarea\inspect\friendlypos\gui-settings.xml"/>
        <window-size value="936,697"/>
        <window-pos value="50,50"/>
        <gui-testing value="true"/>
        <gui-testing-debug value="true"/>
        <gui-testing.setting-output value="C:\Users\SUMO-Test\.texttest\tmp\netedit.gui.02Feb132338.1468\netedit.gui\additionalElements\parkingarea\inspect\friendlypos\guisettingsoutput.xml"/>
    </visualisation>

    <report>
        <no-warnings value="true"/>
        <aggregate-warnings value="5"/>
        <error-log value="C:\Users\SUMO-Test\.texttest\tmp\netedit.gui.02Feb132338.1468\netedit.gui\additionalElements\parkingarea\inspect\friendlypos\log.txt"/>
    </report>

</configuration>
-->

<additional xmlns:xsi="http://www.w3.org/2001/XMLSchema-instance" xsi:noNamespaceSchemaLocation="http://sumo.dlr.de/xsd/additional_file.xsd">
    <parkingArea id="pa_0" lane="gneE2_1" startPos="12.00" endPos="22.00" friendlyPos="true"/>
</additional>
