<?xml version="1.0" encoding="UTF-8"?>

<!-- generated on 05.08.2019 09:25:24 by Eclipse SUMO netedit Version v1_2_0+1406-58ee75451d
<configuration xmlns:xsi="http://www.w3.org/2001/XMLSchema-instance" xsi:noNamespaceSchemaLocation="http://sumo.dlr.de/xsd/netconvertConfiguration.xsd">

    <input>
        <sumo-net-file value="C:/Users/SUMO-Test/.texttest/tmp/netedit.gui.05Aug092338.744/netedit.gui/demandElements/trip/load/departPos\input_net.net.xml"/>
    </input>

    <output>
        <output-file value="C:/Users/SUMO-Test/.texttest/tmp/netedit.gui.05Aug092338.744/netedit.gui/demandElements/trip/load/departPos\net.net.xml"/>
    </output>

    <processing>
        <geometry.max-grade.fix value="false"/>
        <offset.disable-normalization value="true"/>
        <lefthand value="false"/>
    </processing>

    <junctions>
        <no-turnarounds value="true"/>
        <junctions.corner-detail value="5"/>
        <junctions.limit-turn-speed value="5.5"/>
        <rectangular-lane-cut value="false"/>
    </junctions>

    <pedestrian>
        <walkingareas value="false"/>
    </pedestrian>

    <netedit>
        <additional-files value="C:/Users/SUMO-Test/.texttest/tmp/netedit.gui.05Aug092338.744/netedit.gui/demandElements/trip/load/departPos\additionals.xml"/>
        <additionals-output value="C:/Users/SUMO-Test/.texttest/tmp/netedit.gui.05Aug092338.744/netedit.gui/demandElements/trip/load/departPos\additionals.xml"/>
        <route-files value="C:/Users/SUMO-Test/.texttest/tmp/netedit.gui.05Aug092338.744/netedit.gui/demandElements/trip/load/departPos\routes.xml"/>
        <demandelements-output value="C:/Users/SUMO-Test/.texttest/tmp/netedit.gui.05Aug092338.744/netedit.gui/demandElements/trip/load/departPos\routes.xml"/>
    </netedit>

    <visualisation>
        <window-size value="700,500"/>
        <window-pos value="50,50"/>
        <gui-testing value="true"/>
        <gui-testing-debug value="true"/>
        <gui-testing-debug-gl value="true"/>
    </visualisation>

    <report>
        <no-warnings value="true"/>
        <error-log value="C:/Users/SUMO-Test/.texttest/tmp/netedit.gui.05Aug092338.744/netedit.gui/demandElements/trip/load/departPos\log.txt"/>
    </report>

</configuration>
-->

<routes xmlns:xsi="http://www.w3.org/2001/XMLSchema-instance" xsi:noNamespaceSchemaLocation="http://sumo.dlr.de/xsd/routes_file.xsd">
    <trip id="trip_0" depart="20.00" from="gneE2" to="gneE5"/>
    <trip id="trip_1" depart="20.00" departPos="-12.00" from="gneE2" to="gneE5"/>
    <trip id="trip_2" depart="20.00" departPos="0.00" from="gneE2" to="gneE5"/>
    <trip id="trip_3" depart="20.00" departPos="500.00" from="gneE2" to="gneE5"/>
    <trip id="trip_4" depart="20.00" departPos="1.00" from="gneE2" to="gneE5"/>
    <trip id="trip_5" depart="20.00" departPos="random" from="gneE2" to="gneE5"/>
    <trip id="trip_6" depart="20.00" departPos="free" from="gneE2" to="gneE5"/>
    <trip id="trip_7" depart="20.00" departPos="random_free" from="gneE2" to="gneE5"/>
    <trip id="trip_8" depart="20.00" departPos="base" from="gneE2" to="gneE5"/>
    <trip id="trip_9" depart="20.00" departPos="last" from="gneE2" to="gneE5"/>
</routes>
