<?xml version="1.0" encoding="UTF-8"?>

<!-- generated on 2025-09-02 18:19:42 by Eclipse SUMO netedit Version v1_24_0+0583-417762cd2ed
<neteditConfiguration xmlns:xsi="http://www.w3.org/2001/XMLSchema-instance" xsi:noNamespaceSchemaLocation="http://sumo.dlr.de/xsd/neteditConfiguration.xsd">

    <input>
        <sumo-net-file value="/localdata1/debug/17011/input_net.net.xml"/>
    </input>

    <output>
        <output-file value="/localdata1/debug/17011/input_net.net.xml"/>
        <output.street-names value="true"/>
    </output>

    <processing>
        <geometry.min-radius.fix.railways value="false"/>
        <geometry.avoid-overlap value="false"/>
        <geometry.max-grade.fix value="false"/>
        <offset.disable-normalization value="true"/>
        <lefthand value="0"/>
    </processing>

    <junctions>
        <no-turnarounds value="true"/>
        <junctions.corner-detail value="5"/>
        <junctions.limit-turn-speed value="5.50"/>
        <rectangular-lane-cut value="0"/>
    </junctions>

    <pedestrian>
        <walkingareas value="0"/>
    </pedestrian>

</neteditConfiguration>
-->

<net version="1.20" junctionCornerDetail="5" limitTurnSpeed="5.50" avoidOverlap="0" xmlns:xsi="http://www.w3.org/2001/XMLSchema-instance" xsi:noNamespaceSchemaLocation="http://sumo.dlr.de/xsd/net_file.xsd">

    <location netOffset="-471090.73,-5549520.00" convBoundary="2730.05,2516.45,4151.78,3245.81" origBoundary="8.556213,50.075246,8.785596,50.175727" projParameter="+proj=utm +zone=32 +ellps=WGS84 +datum=WGS84 +units=m +no_defs"/>

    <type id="railway.subway" priority="18" numLanes="1" speed="27.78" allow="subway" oneway="1"/>

    <edge id="-440029534#0" from="6080553185" to="759222407" name="C-Strecke" priority="18" type="railway.subway" spreadType="center" shape="2730.05,3245.81 2752.72,3236.63 2762.86,3232.57 2775.10,3226.00 2803.02,3211.33 2927.41,3143.42 2992.99,3106.80 3083.37,3056.72 3136.64,3030.60 3169.71,3015.80 3237.14,2987.60 3305.72,2959.23 3341.90,2943.07 3369.41,2929.12 3384.06,2920.95 3401.05,2910.41 3422.25,2895.54 3442.73,2879.48 3461.12,2866.26 3464.56,2863.78 3501.77,2839.84 3570.73,2804.52 3600.65,2789.35 3606.38,2787.17 3634.19,2773.82 3650.42,2765.53 3659.79,2760.64 3661.99,2759.49 3669.99,2754.99 3678.42,2749.19 3689.50,2741.49 3704.54,2730.29 3716.65,2720.62 3789.14,2653.45 3847.09,2600.58 3868.70,2585.61 3887.13,2573.82 3906.18,2564.52 3920.78,2558.11 3936.64,2551.96 3956.83,2545.75 3977.51,2540.38 4005.69,2534.08 4017.40,2531.76 4024.11,2530.54 4031.33,2529.46 4087.21,2523.02 4139.42,2517.70 4151.78,2516.45" bidi="442079933#1">
        <lane id="-440029534#0_0" index="0" allow="subway" speed="27.78" length="1618.73" shape="2730.05,3245.81 2752.72,3236.63 2762.86,3232.57 2775.10,3226.00 2803.02,3211.33 2927.41,3143.42 2992.99,3106.80 3083.37,3056.72 3136.64,3030.60 3169.71,3015.80 3237.14,2987.60 3305.72,2959.23 3341.90,2943.07 3369.41,2929.12 3384.06,2920.95 3401.05,2910.41 3422.25,2895.54 3442.73,2879.48 3461.12,2866.26 3464.56,2863.78 3501.77,2839.84 3570.73,2804.52 3600.65,2789.35 3606.38,2787.17 3634.19,2773.82 3650.42,2765.53 3659.79,2760.64 3661.99,2759.49 3669.99,2754.99 3678.42,2749.19 3689.50,2741.49 3704.54,2730.29 3716.65,2720.62 3789.14,2653.45 3847.09,2600.58 3868.70,2585.61 3887.13,2573.82 3906.18,2564.52 3920.78,2558.11 3936.64,2551.96 3956.83,2545.75 3977.51,2540.38 4005.69,2534.08 4017.40,2531.76 4024.11,2530.54 4031.33,2529.46 4087.21,2523.02 4139.42,2517.70 4151.78,2516.45">
            <param key="origId" value="440029534 137089253 492104302 442079933"/>
        </lane>
    </edge>
    <edge id="442079933#1" from="759222407" to="6080553185" name="C-Strecke" priority="18" type="railway.subway" spreadType="center" shape="4151.78,2516.45 4139.42,2517.70 4087.21,2523.02 4031.33,2529.46 4024.11,2530.54 4017.40,2531.76 4005.69,2534.08 3977.51,2540.38 3956.83,2545.75 3936.64,2551.96 3920.78,2558.11 3906.18,2564.52 3887.13,2573.82 3868.70,2585.61 3847.09,2600.58 3789.14,2653.45 3716.65,2720.62 3704.54,2730.29 3689.50,2741.49 3678.42,2749.19 3669.99,2754.99 3661.99,2759.49 3659.79,2760.64 3650.42,2765.53 3634.19,2773.82 3606.38,2787.17 3600.65,2789.35 3570.73,2804.52 3501.77,2839.84 3464.56,2863.78 3461.12,2866.26 3442.73,2879.48 3422.25,2895.54 3401.05,2910.41 3384.06,2920.95 3369.41,2929.12 3341.90,2943.07 3305.72,2959.23 3237.14,2987.60 3169.71,3015.80 3136.64,3030.60 3083.37,3056.72 2992.99,3106.80 2927.41,3143.42 2803.02,3211.33 2775.10,3226.00 2762.86,3232.57 2752.72,3236.63 2730.05,3245.81" bidi="-440029534#0">
        <lane id="442079933#1_0" index="0" allow="subway" speed="27.78" length="1618.73" shape="4151.78,2516.45 4139.42,2517.70 4087.21,2523.02 4031.33,2529.46 4024.11,2530.54 4017.40,2531.76 4005.69,2534.08 3977.51,2540.38 3956.83,2545.75 3936.64,2551.96 3920.78,2558.11 3906.18,2564.52 3887.13,2573.82 3868.70,2585.61 3847.09,2600.58 3789.14,2653.45 3716.65,2720.62 3704.54,2730.29 3689.50,2741.49 3678.42,2749.19 3669.99,2754.99 3661.99,2759.49 3659.79,2760.64 3650.42,2765.53 3634.19,2773.82 3606.38,2787.17 3600.65,2789.35 3570.73,2804.52 3501.77,2839.84 3464.56,2863.78 3461.12,2866.26 3442.73,2879.48 3422.25,2895.54 3401.05,2910.41 3384.06,2920.95 3369.41,2929.12 3341.90,2943.07 3305.72,2959.23 3237.14,2987.60 3169.71,3015.80 3136.64,3030.60 3083.37,3056.72 2992.99,3106.80 2927.41,3143.42 2803.02,3211.33 2775.10,3226.00 2762.86,3232.57 2752.72,3236.63 2730.05,3245.81">
            <param key="origId" value="442079933 492104302 137089253 440029534"/>
        </lane>
    </edge>

    <junction id="6080553185" type="dead_end" x="2730.05" y="3245.81" incLanes="442079933#1_0" intLanes="" shape="2730.65,3247.29 2729.45,3244.33 2730.65,3247.29 2729.45,3244.33"/>
    <junction id="759222407" type="dead_end" x="4151.78" y="2516.45" incLanes="-440029534#0_0" intLanes="" shape="4151.62,2514.86 4151.94,2518.04 4151.62,2514.86 4151.94,2518.04"/>

</net>
