<types xmlns:xsi="http://www.w3.org/2001/XMLSchema-instance" xsi:noNamespaceSchemaLocation="http://sumo.dlr.de/xsd/types_file.xsd">
	<type id="a" priority="3" numLanes="3" speed="13.889">
		<laneType index="0" speed="10" width="3"/>
		<laneType index="1" speed="20" width="4.5"/>
		<laneType index="2" speed="30" width="6"/>
	</type>
	<type id="b" priority="2" numLanes="2" speed="11.111">
		<laneType index="0" speed="15"/>
		<laneType index="1" width="2"/>
	</type>
	<type id="c" priority="1" numLanes="1" speed="11.111" allow="bicycle">
		<laneType index="0" speed="25" allow="bus"/>
	</type>
	<type id="d" priority="1" numLanes="1" speed="02.901" allow="pedestrian">
		<laneType index="0" speed="35" disallow="pedestrian"/>
	</type>
</types>
