<?xml version="1.0" encoding="UTF-8"?>

<!-- generated on Thu Apr 19 13:49:53 2018 by Eclipse SUMO netconvert Version d7544a1
This data file and the accompanying materials
are made available under the terms of the Eclipse Public License v2.0
which accompanies this distribution, and is available at
http://www.eclipse.org/legal/epl-v20.html
SPDX-License-Identifier: EPL-2.0
<configuration xmlns:xsi="http://www.w3.org/2001/XMLSchema-instance" xsi:noNamespaceSchemaLocation="http://sumo.dlr.de/xsd/netconvertConfiguration.xsd">

    <input>
        <type-files value="/scr1/sumo/data/typemap/osmNetconvert.typ.xml,input_types.typ.xml"/>
        <osm-files value="osm.xml"/>
    </input>

    <output>
        <write-license value="true"/>
        <output.street-names value="true"/>
    </output>

    <projection>
        <proj.utm value="true"/>
    </projection>

    <edge_removal>
        <remove-edges.by-vclass value="rail,rail_electric,bicycle,pedestrian"/>
    </edge_removal>

    <processing>
        <no-turnarounds value="true"/>
    </processing>

    <report>
        <xml-validation value="never"/>
    </report>

</configuration>
-->

<net version="0.27" xmlns:xsi="http://www.w3.org/2001/XMLSchema-instance" xsi:noNamespaceSchemaLocation="http://sumo.dlr.de/xsd/net_file.xsd">

    <location netOffset="-284813.20,-4153237.07" convBoundary="0.00,0.00,912.43,3806.83" origBoundary="-77.435438,37.501147,-77.424417,37.535409" projParameter="+proj=utm +zone=18 +ellps=WGS84 +datum=WGS84 +units=m +no_defs"/>

    <type id="highway.bridleway" priority="1" numLanes="1" speed="2.78" allow="pedestrian" oneway="1" width="2.00"/>
    <type id="highway.bus_guideway" priority="1" numLanes="1" speed="27.78" allow="bus" oneway="1"/>
    <type id="highway.cycleway" priority="1" numLanes="1" speed="8.33" allow="bicycle" oneway="0" width="1.00"/>
    <type id="highway.footway" priority="1" numLanes="1" speed="2.78" allow="pedestrian" oneway="1" width="2.00"/>
    <type id="highway.ford" priority="1" numLanes="1" speed="2.78" allow="army" oneway="0"/>
    <type id="highway.living_street" priority="3" numLanes="1" speed="6.70" disallow="tram rail_urban rail rail_electric ship" oneway="0"/>
    <type id="highway.motorway" priority="13" numLanes="3" speed="29.10" allow="private emergency authority army vip passenger hov taxi bus coach delivery truck trailer motorcycle evehicle custom1 custom2" oneway="1"/>
    <type id="highway.motorway_link" priority="12" numLanes="1" speed="24.60" allow="private emergency authority army vip passenger hov taxi bus coach delivery truck trailer motorcycle evehicle custom1 custom2" oneway="1"/>
    <type id="highway.path" priority="1" numLanes="1" speed="2.78" allow="bicycle pedestrian" oneway="1" width="2.00"/>
    <type id="highway.pedestrian" priority="1" numLanes="1" speed="2.78" allow="pedestrian" oneway="1" width="2.00"/>
    <type id="highway.primary" priority="9" numLanes="2" speed="20.10" disallow="tram rail_urban rail rail_electric ship" oneway="0"/>
    <type id="highway.primary_link" priority="8" numLanes="1" speed="20.10" disallow="tram rail_urban rail rail_electric ship" oneway="0"/>
    <type id="highway.raceway" priority="14" numLanes="2" speed="83.33" allow="vip" oneway="0"/>
    <type id="highway.residential" priority="4" numLanes="1" speed="13.40" disallow="tram rail_urban rail rail_electric ship" oneway="0"/>
    <type id="highway.secondary" priority="7" numLanes="2" speed="17.90" disallow="tram rail_urban rail rail_electric ship" oneway="0"/>
    <type id="highway.secondary_link" priority="6" numLanes="1" speed="22.22" disallow="tram rail_urban rail rail_electric ship" oneway="0"/>
    <type id="highway.service" priority="2" numLanes="1" speed="5.56" allow="delivery bicycle pedestrian" oneway="0"/>
    <type id="highway.services" priority="1" numLanes="1" speed="8.33" disallow="tram rail_urban rail rail_electric ship" oneway="0"/>
    <type id="highway.stairs" priority="1" numLanes="1" speed="1.39" allow="pedestrian" oneway="1" width="2.00"/>
    <type id="highway.step" priority="1" numLanes="1" speed="1.39" allow="pedestrian" oneway="1" width="2.00"/>
    <type id="highway.steps" priority="1" numLanes="1" speed="1.39" allow="pedestrian" oneway="1" width="2.00"/>
    <type id="highway.tertiary" priority="6" numLanes="1" speed="17.90" disallow="tram rail_urban rail rail_electric ship" oneway="0"/>
    <type id="highway.tertiary_link" priority="5" numLanes="1" speed="22.22" disallow="tram rail_urban rail rail_electric ship" oneway="0"/>
    <type id="highway.track" priority="1" numLanes="1" speed="5.56" disallow="tram rail_urban rail rail_electric ship" oneway="0"/>
    <type id="highway.trunk" priority="11" numLanes="2" speed="29.10" disallow="tram rail_urban rail rail_electric bicycle pedestrian ship" oneway="0"/>
    <type id="highway.trunk_link" priority="10" numLanes="1" speed="24.60" disallow="tram rail_urban rail rail_electric bicycle pedestrian ship" oneway="0"/>
    <type id="highway.unclassified" priority="5" numLanes="1" speed="13.40" disallow="tram rail_urban rail rail_electric ship" oneway="0"/>
    <type id="highway.unsurfaced" priority="1" numLanes="1" speed="8.33" disallow="tram rail_urban rail rail_electric ship" oneway="0"/>
    <type id="railway.light_rail" priority="15" numLanes="1" speed="27.78" allow="rail_urban" oneway="1"/>
    <type id="railway.preserved" priority="15" numLanes="1" speed="27.78" allow="rail" oneway="1"/>
    <type id="railway.rail" priority="15" numLanes="1" speed="83.33" allow="rail rail_electric" oneway="1"/>
    <type id="railway.subway" priority="15" numLanes="1" speed="27.78" allow="rail_urban" oneway="1"/>
    <type id="railway.tram" priority="15" numLanes="1" speed="13.89" allow="tram" oneway="1"/>

    <edge id=":29933572_0" function="internal">
        <lane id=":29933572_0_0" index="0" allow="private emergency authority army vip passenger hov taxi bus coach delivery truck trailer motorcycle evehicle custom1 custom2" speed="29.10" length="87.90" shape="478.81,3164.28 498.96,3078.80"/>
        <lane id=":29933572_0_1" index="1" allow="private emergency authority army vip passenger hov taxi bus coach delivery truck trailer motorcycle evehicle custom1 custom2" speed="29.10" length="87.90" shape="481.93,3165.02 502.09,3079.46"/>
        <lane id=":29933572_0_2" index="2" allow="private emergency authority army vip passenger hov taxi bus coach delivery truck trailer motorcycle evehicle custom1 custom2" speed="29.10" length="87.90" shape="485.04,3165.76 505.23,3080.12"/>
    </edge>
    <edge id=":29933572_3" function="internal">
        <lane id=":29933572_3_0" index="0" allow="private emergency authority army vip passenger hov taxi bus coach delivery truck trailer motorcycle evehicle custom1 custom2" speed="29.10" length="87.91" shape="488.35,3166.34 490.33,3148.45 493.17,3122.49 496.26,3096.58 498.96,3078.80"/>
        <lane id=":29933572_3_1" index="1" allow="private emergency authority army vip passenger hov taxi bus coach delivery truck trailer motorcycle evehicle custom1 custom2" speed="29.10" length="87.91" shape="491.53,3166.72 493.50,3148.87 496.33,3123.01 499.40,3097.19 502.09,3079.46"/>
        <lane id=":29933572_3_2" index="2" allow="private emergency authority army vip passenger hov taxi bus coach delivery truck trailer motorcycle evehicle custom1 custom2" speed="29.10" length="87.91" shape="494.71,3167.10 496.67,3149.29 499.48,3123.53 502.54,3097.81 505.23,3080.12"/>
    </edge>
    <edge id=":29933574_0" function="internal">
        <lane id=":29933574_0_0" index="0" allow="private emergency authority army vip passenger hov taxi bus coach delivery truck trailer motorcycle evehicle custom1 custom2" speed="26.85" length="51.48" shape="609.03,2549.46 615.52,2498.39"/>
    </edge>
    <edge id=":29933574_1" function="internal">
        <lane id=":29933574_1_0" index="0" allow="private emergency authority army vip passenger hov taxi bus coach delivery truck trailer motorcycle evehicle custom1 custom2" speed="29.10" length="51.50" shape="609.03,2549.46 618.78,2498.91"/>
        <lane id=":29933574_1_1" index="1" allow="private emergency authority army vip passenger hov taxi bus coach delivery truck trailer motorcycle evehicle custom1 custom2" speed="29.10" length="51.50" shape="612.17,2550.11 621.92,2499.54"/>
        <lane id=":29933574_1_2" index="2" allow="private emergency authority army vip passenger hov taxi bus coach delivery truck trailer motorcycle evehicle custom1 custom2" speed="29.10" length="51.50" shape="615.30,2550.75 625.06,2500.16"/>
    </edge>
    <edge id=":445851270_0" function="internal">
        <lane id=":445851270_0_0" index="0" allow="private emergency authority army vip passenger hov taxi bus coach delivery truck trailer motorcycle evehicle custom1 custom2" speed="29.10" length="10.63" shape="321.20,3498.23 323.49,3496.20 324.81,3494.54 326.09,3492.82 328.25,3490.63"/>
        <lane id=":445851270_0_1" index="1" allow="private emergency authority army vip passenger hov taxi bus coach delivery truck trailer motorcycle evehicle custom1 custom2" speed="29.10" length="10.63" shape="323.13,3500.78 325.48,3498.71 326.84,3497.02 328.15,3495.27 330.37,3493.04"/>
        <lane id=":445851270_0_2" index="2" allow="private emergency authority army vip passenger hov taxi bus coach delivery truck trailer motorcycle evehicle custom1 custom2" speed="29.10" length="10.63" shape="325.07,3503.33 327.47,3501.22 328.87,3499.50 330.21,3497.72 332.48,3495.44"/>
    </edge>
    <edge id=":445851270_3" function="internal">
        <lane id=":445851270_3_0" index="0" allow="private emergency authority army vip passenger hov taxi bus coach delivery truck trailer motorcycle evehicle custom1 custom2" speed="26.85" length="10.64" shape="325.07,3503.33 327.68,3501.51 329.66,3500.49 331.68,3499.65 334.46,3498.42"/>
    </edge>
    <edge id=":450601519_0" function="internal">
        <lane id=":450601519_0_0" index="0" allow="private emergency authority army vip passenger hov taxi bus coach delivery truck trailer motorcycle evehicle custom1 custom2" speed="24.60" length="6.45" shape="292.20,3527.13 293.99,3525.57 294.47,3524.83 293.62,3524.90 291.45,3525.78"/>
    </edge>
    <edge id=":450601528_0" function="internal">
        <lane id=":450601528_0_0" index="0" allow="private emergency authority army vip passenger hov taxi bus coach delivery truck trailer motorcycle evehicle custom1 custom2" speed="29.10" length="0.29" shape="622.39,2591.51 622.32,2591.84"/>
        <lane id=":450601528_0_1" index="1" allow="private emergency authority army vip passenger hov taxi bus coach delivery truck trailer motorcycle evehicle custom1 custom2" speed="29.10" length="0.29" shape="619.26,2590.85 619.20,2591.14"/>
        <lane id=":450601528_0_2" index="2" allow="private emergency authority army vip passenger hov taxi bus coach delivery truck trailer motorcycle evehicle custom1 custom2" speed="29.10" length="0.29" shape="616.13,2590.19 616.08,2590.43"/>
    </edge>
    <edge id=":450601590_0" function="internal">
        <lane id=":450601590_0_0" index="0" allow="private emergency authority army vip passenger hov taxi bus coach delivery truck trailer motorcycle evehicle custom1 custom2" speed="26.85" length="3.75" shape="515.62,3084.34 512.18,3085.86"/>
    </edge>
    <edge id=":450601590_1" function="internal">
        <lane id=":450601590_1_0" index="0" allow="private emergency authority army vip passenger hov taxi bus coach delivery truck trailer motorcycle evehicle custom1 custom2" speed="29.10" length="2.20" shape="515.62,3084.34 515.32,3086.08"/>
        <lane id=":450601590_1_1" index="1" allow="private emergency authority army vip passenger hov taxi bus coach delivery truck trailer motorcycle evehicle custom1 custom2" speed="29.10" length="2.20" shape="512.49,3083.68 512.13,3085.86"/>
        <lane id=":450601590_1_2" index="2" allow="private emergency authority army vip passenger hov taxi bus coach delivery truck trailer motorcycle evehicle custom1 custom2" speed="29.10" length="2.20" shape="509.36,3083.02 508.93,3085.63"/>
    </edge>
    <edge id=":49613629_0" function="internal">
        <lane id=":49613629_0_0" index="0" disallow="tram rail_urban rail rail_electric ship" speed="20.10" length="10.21" shape="230.95,3593.94 228.74,3583.95"/>
        <lane id=":49613629_0_1" index="1" disallow="tram rail_urban rail rail_electric ship" speed="20.10" length="10.21" shape="234.06,3593.22 231.87,3583.27"/>
    </edge>
    <edge id=":49613629_2" function="internal">
        <lane id=":49613629_2_0" index="0" disallow="tram rail_urban rail rail_electric ship" speed="16.75" length="3.18" shape="234.06,3593.22 234.30,3591.45 235.05,3590.27"/>
    </edge>
    <edge id=":49613629_8" function="internal">
        <lane id=":49613629_8_0" index="0" speed="16.75" length="9.95" shape="235.05,3590.27 235.73,3589.22 238.35,3586.54 242.17,3583.40"/>
    </edge>
    <edge id=":49613629_3" function="internal">
        <lane id=":49613629_3_0" index="0" disallow="tram rail_urban rail rail_electric ship" speed="16.75" length="7.28" shape="244.11,3585.94 242.22,3587.56 240.96,3589.07 240.32,3590.47 240.29,3591.76"/>
    </edge>
    <edge id=":49613629_4" function="internal">
        <lane id=":49613629_4_0" index="0" disallow="tram rail_urban rail rail_electric ship" speed="16.75" length="16.31" shape="244.11,3585.94 239.59,3588.64 236.05,3589.09 233.47,3587.30 231.87,3583.27"/>
    </edge>
    <edge id=":49613629_5" function="internal">
        <lane id=":49613629_5_0" index="0" disallow="tram rail_urban rail rail_electric ship" speed="16.75" length="5.65" shape="238.12,3581.91 238.70,3583.48 239.56,3584.25 240.72,3584.22 242.17,3583.40"/>
    </edge>
    <edge id=":49613629_6" function="internal">
        <lane id=":49613629_6_0" index="0" disallow="tram rail_urban rail rail_electric ship" speed="20.10" length="10.11" shape="238.12,3581.91 240.29,3591.76"/>
        <lane id=":49613629_6_1" index="1" disallow="tram rail_urban rail rail_electric ship" speed="20.10" length="10.11" shape="235.00,3582.59 237.18,3592.49"/>
    </edge>
    <edge id=":49613631_0" function="internal">
        <lane id=":49613631_0_0" index="0" disallow="tram rail_urban rail rail_electric ship" speed="13.40" length="5.18" shape="304.70,3543.90 303.63,3542.89 302.52,3542.44 301.36,3542.53 300.17,3543.18"/>
    </edge>
    <edge id=":49613631_1" function="internal">
        <lane id=":49613631_1_0" index="0" disallow="tram rail_urban rail rail_electric ship" speed="13.40" length="10.41" shape="304.70,3543.90 303.21,3541.44 302.90,3539.13 303.76,3536.97 305.81,3534.95"/>
    </edge>
    <edge id=":49613631_2" function="internal">
        <lane id=":49613631_2_0" index="0" disallow="tram rail_urban rail rail_electric ship" speed="13.40" length="5.06" shape="307.71,3537.52 306.72,3538.50 306.30,3539.55 306.45,3540.68 307.17,3541.87"/>
    </edge>
    <edge id=":49613631_3" function="internal">
        <lane id=":49613631_3_0" index="0" disallow="tram rail_urban rail rail_electric ship" speed="13.40" length="9.43" shape="307.71,3537.52 300.17,3543.18"/>
    </edge>
    <edge id=":49613631_4" function="internal">
        <lane id=":49613631_4_0" index="0" disallow="tram rail_urban rail rail_electric ship" speed="13.40" length="9.47" shape="298.23,3540.64 305.81,3534.95"/>
    </edge>
    <edge id=":49613631_5" function="internal">
        <lane id=":49613631_5_0" index="0" disallow="tram rail_urban rail rail_electric ship" speed="13.40" length="10.21" shape="298.23,3540.64 300.62,3539.32 302.91,3539.09 305.09,3539.94 307.17,3541.87"/>
    </edge>

    <edge id="--15" from="450601519" to="-7" name="74A" priority="12" type="highway.motorway_link">
        <lane id="--15_0" index="0" allow="private emergency authority army vip passenger hov taxi bus coach delivery truck trailer motorcycle evehicle custom1 custom2" speed="24.60" length="43.01" shape="291.45,3525.78 330.60,3507.96"/>
    </edge>
    <edge id="-14" from="49613186" to="450601528" name="I-95" priority="13" type="highway.motorway" spreadType="center" shape="597.21,0.00 753.26,562.29 910.51,1234.66 912.43,1289.41 785.32,1883.05 740.12,2070.54 711.18,2193.95 671.91,2360.71 639.99,2492.82 619.23,2590.99">
        <lane id="-14_0" index="0" allow="private emergency authority army vip passenger hov taxi bus coach delivery truck trailer motorcycle evehicle custom1 custom2" speed="29.10" length="2662.99" shape="600.29,-0.86 756.36,561.50 913.70,1234.24 915.64,1289.69 788.44,1883.76 743.23,2071.28 714.29,2194.68 675.03,2361.45 643.11,2493.52 622.39,2591.51"/>
        <lane id="-14_1" index="1" allow="private emergency authority army vip passenger hov taxi bus coach delivery truck trailer motorcycle evehicle custom1 custom2" speed="29.10" length="2662.99" shape="597.21,-0.00 753.26,562.29 910.51,1234.66 912.43,1289.41 785.32,1883.05 740.12,2070.54 711.18,2193.95 671.91,2360.71 639.99,2492.82 619.26,2590.85"/>
        <lane id="-14_2" index="2" allow="private emergency authority army vip passenger hov taxi bus coach delivery truck trailer motorcycle evehicle custom1 custom2" speed="29.10" length="2662.99" shape="594.13,0.86 750.16,563.08 907.32,1235.09 909.22,1289.12 782.20,1882.34 737.01,2069.80 708.06,2193.22 668.80,2359.96 636.87,2492.11 616.13,2590.19"/>
    </edge>
    <edge id="-6033364#0" from="49613631" to="49613629" name="Dock St" priority="4" type="highway.residential">
        <lane id="-6033364#0_0" index="0" disallow="tram rail_urban rail rail_electric ship" speed="13.40" length="70.51" shape="300.17,3543.18 244.11,3585.94"/>
    </edge>
    <edge id="-6033364#1" from="49609811" to="49613631" name="Dock St" priority="4" type="highway.residential" shape="507.50,3463.87 490.51,3468.38 457.61,3474.22 443.50,3473.34 413.71,3470.03 390.70,3474.03 302.85,3539.13">
        <lane id="-6033364#1_0" index="0" disallow="tram rail_urban rail rail_electric ship" speed="13.40" length="222.31" shape="507.91,3465.42 490.86,3469.94 457.70,3475.83 443.36,3474.94 413.76,3471.65 391.35,3475.54 307.71,3537.52"/>
    </edge>
    <edge id="-6034273#0" from="49613629" to="49616450" name="S 14th St" priority="9" type="highway.primary" shape="235.14,3590.78 255.99,3680.22 264.38,3717.14 285.10,3784.62">
        <lane id="-6034273#0_0" index="0" disallow="tram rail_urban rail rail_electric ship" speed="20.10" length="197.94" shape="240.29,3591.76 260.67,3679.14 269.02,3715.90 289.69,3783.21"/>
        <lane id="-6034273#0_1" index="1" disallow="tram rail_urban rail rail_electric ship" speed="20.10" length="197.94" shape="237.18,3592.49 257.55,3679.86 265.93,3716.73 286.63,3784.15"/>
    </edge>
    <edge id="-6034273#1" from="445817289" to="49613629" name="S 14th St" priority="9" type="highway.primary" shape="193.70,3420.43 223.26,3536.06 235.14,3590.78">
        <lane id="-6034273#1_0" index="0" disallow="tram rail_urban rail rail_electric ship" speed="20.10" length="167.43" shape="198.35,3419.24 227.93,3534.96 238.12,3581.91"/>
        <lane id="-6034273#1_1" index="1" disallow="tram rail_urban rail rail_electric ship" speed="20.10" length="167.43" shape="195.25,3420.03 224.82,3535.69 235.00,3582.59"/>
    </edge>
    <edge id="-6040380" from="49613631" to="49615901" name="S 15th St" priority="4" type="highway.residential" shape="302.85,3539.13 378.49,3631.26 449.80,3723.41">
        <lane id="-6040380_0" index="0" disallow="tram rail_urban rail rail_electric ship" speed="13.40" length="230.91" shape="307.17,3541.87 379.74,3630.27 451.07,3722.43"/>
    </edge>
    <edge id="37961316#0" from="452657674" to="445851270" name="I-195" priority="13" type="highway.motorway" spreadType="center" shape="0.00,3700.25 29.55,3684.25 97.39,3654.65 140.13,3633.04 192.30,3600.14 248.90,3557.08 311.76,3509.40">
        <lane id="37961316#0_0" index="0" allow="private emergency authority army vip passenger hov taxi bus coach delivery truck trailer motorcycle evehicle custom1 custom2" speed="29.10" length="381.48" shape="-1.52,3697.44 28.14,3681.37 96.03,3651.75 138.55,3630.25 190.48,3597.50 246.96,3554.53 321.20,3498.23"/>
        <lane id="37961316#0_1" index="1" allow="private emergency authority army vip passenger hov taxi bus coach delivery truck trailer motorcycle evehicle custom1 custom2" speed="29.10" length="381.48" shape="-0.00,3700.25 29.55,3684.25 97.39,3654.65 140.13,3633.04 192.30,3600.14 248.90,3557.08 323.13,3500.78"/>
        <lane id="37961316#0_2" index="2" allow="private emergency authority army vip passenger hov taxi bus coach delivery truck trailer motorcycle evehicle custom1 custom2" speed="29.10" length="381.48" shape="1.52,3703.07 30.95,3687.13 98.76,3657.55 141.71,3635.82 194.13,3602.77 250.83,3559.63 325.07,3503.33"/>
    </edge>
    <edge id="37961316#1" from="445851270" to="29933572" name="I-195" priority="13" type="highway.motorway" spreadType="center" shape="311.76,3509.40 392.09,3438.75 417.23,3413.16 437.67,3381.64 454.93,3344.91 461.80,3316.76 469.05,3244.78 472.82,3215.40 480.49,3171.10 501.74,3081.14">
        <lane id="37961316#1_0" index="0" allow="private emergency authority army vip passenger hov taxi bus coach delivery truck trailer motorcycle evehicle custom1 custom2" speed="29.10" length="378.37" shape="328.25,3490.63 389.89,3436.42 414.72,3411.15 434.86,3380.08 451.90,3343.84 458.64,3316.22 465.87,3244.41 469.66,3214.93 477.35,3170.46 478.81,3164.28"/>
        <lane id="37961316#1_1" index="1" allow="private emergency authority army vip passenger hov taxi bus coach delivery truck trailer motorcycle evehicle custom1 custom2" speed="29.10" length="378.37" shape="330.37,3493.04 392.09,3438.75 417.23,3413.16 437.67,3381.64 454.93,3344.91 461.80,3316.76 469.05,3244.78 472.82,3215.40 480.49,3171.10 481.93,3165.02"/>
        <lane id="37961316#1_2" index="2" allow="private emergency authority army vip passenger hov taxi bus coach delivery truck trailer motorcycle evehicle custom1 custom2" speed="29.10" length="378.37" shape="332.48,3495.44 394.29,3441.08 419.74,3415.17 440.47,3383.20 457.97,3345.98 464.96,3317.31 472.23,3245.14 475.99,3215.88 483.63,3171.74 485.04,3165.76"/>
    </edge>
    <edge id="38006092" from="29933574" to="29933586" name="Interstate Highway 95" priority="13" type="highway.motorway" spreadType="center" shape="604.34,2588.12 659.09,2312.28 715.70,2051.81 765.54,1809.70 808.70,1588.20 878.03,1291.19 877.62,1239.36 842.54,1076.15 802.50,927.23 734.21,665.44 666.80,437.72 604.63,203.04 570.13,58.53">
        <lane id="38006092_0" index="0" allow="private emergency authority army vip passenger hov taxi bus coach delivery truck trailer motorcycle evehicle custom1 custom2" speed="29.10" length="2507.67" shape="618.78,2498.91 655.95,2311.63 712.57,2051.15 762.40,1809.08 805.57,1587.53 874.83,1290.84 874.43,1239.71 839.43,1076.90 799.41,928.05 731.13,666.30 663.71,438.59 601.53,203.82 567.01,59.27"/>
        <lane id="38006092_1" index="1" allow="private emergency authority army vip passenger hov taxi bus coach delivery truck trailer motorcycle evehicle custom1 custom2" speed="29.10" length="2507.67" shape="621.92,2499.54 659.09,2312.28 715.70,2051.81 765.54,1809.70 808.70,1588.20 878.03,1291.19 877.62,1239.36 842.54,1076.15 802.50,927.23 734.21,665.44 666.80,437.72 604.63,203.04 570.13,58.53"/>
        <lane id="38006092_2" index="2" allow="private emergency authority army vip passenger hov taxi bus coach delivery truck trailer motorcycle evehicle custom1 custom2" speed="29.10" length="2507.67" shape="625.06,2500.16 662.22,2312.93 718.83,2052.47 768.68,1810.33 811.83,1588.87 881.24,1291.55 880.82,1239.01 845.65,1075.39 805.59,926.41 737.30,664.58 669.88,436.86 607.74,202.26 573.24,57.79"/>
    </edge>
    <edge id="38232576" from="29933574" to="450595640" name="73" priority="12" type="highway.motorway_link" spreadType="center" shape="604.34,2588.12 620.28,2460.19 622.29,2420.77 624.78,2390.47 623.16,2361.10 617.85,2331.75 610.43,2309.27 600.01,2287.62 586.64,2269.82 569.45,2250.61 550.05,2234.48 532.21,2219.83 512.14,2206.73 492.88,2195.89 472.94,2188.09 451.52,2181.85 428.65,2177.90 408.87,2176.14">
        <lane id="38232576_0" index="0" allow="private emergency authority army vip passenger hov taxi bus coach delivery truck trailer motorcycle evehicle custom1 custom2" speed="24.60" length="444.52" shape="615.52,2498.39 620.28,2460.19 622.29,2420.77 624.78,2390.47 623.16,2361.10 617.85,2331.75 610.43,2309.27 600.01,2287.62 586.64,2269.82 569.45,2250.61 550.05,2234.48 532.21,2219.83 512.14,2206.73 492.88,2195.89 472.94,2188.09 451.52,2181.85 428.65,2177.90 408.87,2176.14"/>
    </edge>
    <edge id="38232899#0" from="450601528" to="450601590" name="I-95" priority="13" type="highway.motorway" spreadType="center" shape="619.23,2590.99 576.68,2780.31 512.27,3084.72">
        <lane id="38232899#0_0" index="0" allow="private emergency authority army vip passenger hov taxi bus coach delivery truck trailer motorcycle evehicle custom1 custom2" speed="29.10" length="503.98" shape="622.32,2591.84 579.80,2780.99 515.62,3084.34"/>
        <lane id="38232899#0_1" index="1" allow="private emergency authority army vip passenger hov taxi bus coach delivery truck trailer motorcycle evehicle custom1 custom2" speed="29.10" length="503.98" shape="619.20,2591.14 576.68,2780.31 512.49,3083.68"/>
        <lane id="38232899#0_2" index="2" allow="private emergency authority army vip passenger hov taxi bus coach delivery truck trailer motorcycle evehicle custom1 custom2" speed="29.10" length="503.98" shape="616.08,2590.43 573.55,2779.63 509.36,3083.02"/>
    </edge>
    <edge id="38232899#1" from="450601590" to="-12" name="I-95" priority="13" type="highway.motorway" spreadType="center" shape="512.27,3084.72 483.27,3321.64 479.09,3365.59 477.93,3417.76 483.20,3609.54 493.76,3762.13 498.75,3803.78">
        <lane id="38232899#1_0" index="0" allow="private emergency authority army vip passenger hov taxi bus coach delivery truck trailer motorcycle evehicle custom1 custom2" speed="29.10" length="720.63" shape="515.32,3086.08 486.45,3321.99 482.29,3365.77 481.13,3417.76 486.39,3609.39 496.95,3761.83 501.92,3803.40"/>
        <lane id="38232899#1_1" index="1" allow="private emergency authority army vip passenger hov taxi bus coach delivery truck trailer motorcycle evehicle custom1 custom2" speed="29.10" length="720.63" shape="512.13,3085.86 483.27,3321.64 479.09,3365.59 477.93,3417.76 483.20,3609.54 493.76,3762.13 498.75,3803.78"/>
        <lane id="38232899#1_2" index="2" allow="private emergency authority army vip passenger hov taxi bus coach delivery truck trailer motorcycle evehicle custom1 custom2" speed="29.10" length="720.63" shape="508.93,3085.63 480.09,3321.29 475.89,3365.40 474.73,3417.77 480.00,3609.70 490.58,3762.43 495.57,3804.16"/>
    </edge>
    <edge id="38232901" from="450601590" to="450601651" name="74A" priority="12" type="highway.motorway_link" spreadType="center" shape="512.27,3084.72 505.75,3175.49 499.36,3246.99 502.02,3267.32 514.18,3297.97 524.87,3322.46 537.89,3349.45 543.18,3366.71 542.26,3387.58">
        <lane id="38232901_0" index="0" allow="private emergency authority army vip passenger hov taxi bus coach delivery truck trailer motorcycle evehicle custom1 custom2" speed="24.60" length="310.76" shape="512.18,3085.86 505.75,3175.49 499.36,3246.99 502.02,3267.32 514.18,3297.97 524.87,3322.46 537.89,3349.45 543.18,3366.71 542.26,3387.58"/>
    </edge>
    <edge id="38232907" from="445851270" to="-9" name="74A" priority="12" type="highway.motorway_link" spreadType="center" shape="311.76,3509.40 346.17,3492.75 386.57,3486.41 405.57,3486.10 426.87,3488.16 449.39,3494.71 476.12,3504.73 495.34,3524.65 505.11,3546.37 508.91,3565.47 508.75,3582.49 500.46,3646.66 500.92,3712.99 505.29,3770.57 508.55,3806.83">
        <lane id="38232907_0" index="0" allow="private emergency authority army vip passenger hov taxi bus coach delivery truck trailer motorcycle evehicle custom1 custom2" speed="24.60" length="459.49" shape="334.46,3498.42 346.17,3492.75 386.57,3486.41 405.57,3486.10 426.87,3488.16 449.39,3494.71 476.12,3504.73 495.34,3524.65 505.11,3546.37 508.91,3565.47 508.75,3582.49 500.46,3646.66 500.92,3712.99 505.29,3770.57 508.55,3806.83"/>
    </edge>
    <edge id="38232909" from="450601709" to="450601519" name="74A" priority="12" type="highway.motorway_link" spreadType="center">
        <lane id="38232909_0" index="0" allow="private emergency authority army vip passenger hov taxi bus coach delivery truck trailer motorcycle evehicle custom1 custom2" speed="24.60" length="120.60" shape="386.44,3451.88 292.20,3527.13"/>
    </edge>
    <edge id="38232910#0" from="-10" to="29933572" name="Interstate Highway 95" priority="13" type="highway.motorway" spreadType="center" shape="486.15,3804.12 468.08,3551.52 467.36,3369.27 501.74,3081.14">
        <lane id="38232910#0_0" index="0" allow="private emergency authority army vip passenger hov taxi bus coach delivery truck trailer motorcycle evehicle custom1 custom2" speed="29.10" length="639.49" shape="482.95,3804.35 464.88,3551.64 464.16,3369.08 488.35,3166.34"/>
        <lane id="38232910#0_1" index="1" allow="private emergency authority army vip passenger hov taxi bus coach delivery truck trailer motorcycle evehicle custom1 custom2" speed="29.10" length="639.49" shape="486.15,3804.12 468.08,3551.52 467.36,3369.27 491.53,3166.72"/>
        <lane id="38232910#0_2" index="2" allow="private emergency authority army vip passenger hov taxi bus coach delivery truck trailer motorcycle evehicle custom1 custom2" speed="29.10" length="639.49" shape="489.34,3803.90 471.28,3551.39 470.56,3369.45 494.71,3167.10"/>
    </edge>
    <edge id="38232910#1" from="29933572" to="29933574" name="Interstate Highway 95" priority="13" type="highway.motorway" spreadType="center" shape="501.74,3081.14 564.69,2780.72 604.34,2588.12">