<?xml version="1.0"?>

<!-- generated on 02/18/08 12:52:45 by SUMO sumo Version 0.9.7
<configuration>

   <input>
      <net-file>net.net.xml</net-file>
      <route-files>input_routes.rou.xml</route-files>
   </input>

   <output>
      <lanedump-intervals>300 900</lanedump-intervals>
      <lanedump-basename>aggregated</lanedump-basename>
   </output>

   <time>
      <begin>0</begin>
      <end>1000</end>
   </time>

   <processing>
      <no-duration-log>true</no-duration-log>
      <no-step-log>true</no-step-log>
   </processing>

</configuration>
-->

<netstats>
   <interval begin="0" end="299" id="dump_300">
      <edge id="1fi">
         <lane id="1fi_0" traveltime="32.32" nSamples="732" density="9.75" occupancy="0.05" noStops="0" speed="7.74" entered="11" emitted="20" left="24"/>
      </edge>
      <edge id="1o">
         <lane id="1o_0" traveltime="50.77" nSamples="605" density="4.14" occupancy="0.02" noStops="0" speed="9.59" entered="15" emitted="0" left="11"/>
      </edge>
      <edge id="2fi">
         <lane id="2fi_0" traveltime="34.63" nSamples="624" density="8.32" occupancy="0.04" noStops="0" speed="7.22" entered="6" emitted="20" left="24"/>
      </edge>
      <edge id="2o">
         <lane id="2o_0" traveltime="52.78" nSamples="724" density="4.96" occupancy="0.02" noStops="0" speed="9.23" entered="19" emitted="0" left="6"/>
      </edge>
      <edge id="3fi">
         <lane id="3fi_0" traveltime="33.39" nSamples="1144" density="15.24" occupancy="0.08" noStops="0" speed="7.49" entered="0" emitted="40" left="35"/>
      </edge>
      <edge id="3o">
         <lane id="3o_0" traveltime="43.83" nSamples="0" density="0.00" occupancy="0.00" noStops="0" speed="11.11" entered="0" emitted="0" left="0"/>
      </edge>
      <edge id="4fi">
         <lane id="4fi_0" traveltime="22.88" nSamples="312" density="4.16" occupancy="0.02" noStops="0" speed="10.94" entered="15" emitted="0" left="12"/>
      </edge>
      <edge id="4o">
         <lane id="4o_0" traveltime="52.67" nSamples="1110" density="7.60" occupancy="0.04" noStops="0" speed="9.25" entered="28" emitted="0" left="15"/>
      </edge>
      <edge id="1si">
         <lane id="1si_0" traveltime="22.62" nSamples="24" density="0.34" occupancy="0.00" noStops="0" speed="10.49" entered="24" emitted="0" left="0"/>
         <lane id="1si_1" traveltime="42.56" nSamples="207" density="2.91" occupancy="0.01" noStops="83" speed="5.57" entered="0" emitted="0" left="4"/>
         <lane id="1si_2" traveltime="46.74" nSamples="731" density="10.27" occupancy="0.05" noStops="292" speed="5.07" entered="0" emitted="0" left="10"/>
      </edge>
      <edge id="2si">
         <lane id="2si_0" traveltime="19.17" nSamples="134" density="1.88" occupancy="0.01" noStops="0" speed="12.37" entered="24" emitted="0" left="6"/>
         <lane id="2si_1" traveltime="33.13" nSamples="538" density="7.56" occupancy="0.04" noStops="150" speed="7.16" entered="0" emitted="0" left="15"/>
         <lane id="2si_2" traveltime="17.07" nSamples="0" density="0.00" occupancy="0.00" noStops="0" speed="13.89" entered="0" emitted="0" left="0"/>
      </edge>
      <edge id="3si">
         <lane id="3si_0" traveltime="35.52" nSamples="636" density="8.94" occupancy="0.04" noStops="206" speed="6.68" entered="35" emitted="0" left="13"/>
         <lane id="3si_1" traveltime="37.89" nSamples="608" density="8.55" occupancy="0.04" noStops="216" speed="6.26" entered="0" emitted="0" left="12"/>
         <lane id="3si_2" traveltime="17.07" nSamples="0" density="0.00" occupancy="0.00" noStops="0" speed="13.89" entered="0" emitted="0" left="0"/>
      </edge>
      <edge id="4si">
         <lane id="4si_0" traveltime="21.72" nSamples="12" density="0.17" occupancy="0.00" noStops="0" speed="10.92" entered="12" emitted="0" left="0"/>
         <lane id="4si_1" traveltime="34.70" nSamples="202" density="2.84" occupancy="0.01" noStops="70" speed="6.83" entered="0" emitted="0" left="0"/>
         <lane id="4si_2" traveltime="42.56" nSamples="166" density="2.33" occupancy="0.01" noStops="59" speed="5.57" entered="0" emitted="0" left="2"/>
      </edge>
   </interval>
   <interval begin="300" end="599" id="dump_300">
      <edge id="1fi">
         <lane id="1fi_0" traveltime="31.09" nSamples="2172" density="28.94" occupancy="0.14" noStops="0" speed="8.05" entered="50" emitted="30" left="77"/>
      </edge>
      <edge id="1o">
         <lane id="1o_0" traveltime="47.79" nSamples="2641" density="18.08" occupancy="0.09" noStops="0" speed="10.19" entered="58" emitted="0" left="50"/>
      </edge>
      <edge id="2fi">
         <lane id="2fi_0" traveltime="31.95" nSamples="2093" density="27.89" occupancy="0.14" noStops="0" speed="7.83" entered="71" emitted="30" left="72"/>
      </edge>
      <edge id="2o">
         <lane id="2o_0" traveltime="50.38" nSamples="3486" density="23.86" occupancy="0.12" noStops="0" speed="9.67" entered="71" emitted="0" left="71"/>
      </edge>
      <edge id="3fi">
         <lane id="3fi_0" traveltime="34.85" nSamples="1905" density="25.38" occupancy="0.13" noStops="0" speed="7.18" entered="43" emitted="60" left="64"/>
      </edge>
      <edge id="3o">
         <lane id="3o_0" traveltime="49.75" nSamples="2373" density="16.24" occupancy="0.08" noStops="0" speed="9.79" entered="53" emitted="0" left="43"/>
      </edge>
      <edge id="4fi">
         <lane id="4fi_0" traveltime="22.87" nSamples="1809" density="24.11" occupancy="0.12" noStops="0" speed="10.94" entered="78" emitted="0" left="72"/>
      </edge>
      <edge id="4o">
         <lane id="4o_0" traveltime="49.39" nSamples="3917" density="26.81" occupancy="0.13" noStops="0" speed="9.86" entered="76" emitted="0" left="78"/>
      </edge>
      <edge id="1si">
         <lane id="1si_0" traveltime="19.42" nSamples="412" density="5.79" occupancy="0.03" noStops="0" speed="12.21" entered="77" emitted="0" left="16"/>
         <lane id="1si_1" traveltime="45.35" nSamples="1440" density="20.24" occupancy="0.10" noStops="558" speed="5.23" entered="0" emitted="0" left="29"/>
         <lane id="1si_2" traveltime="178.27" nSamples="4171" density="58.63" occupancy="0.29" noStops="2687" speed="1.33" entered="0" emitted="0" left="17"/>
      </edge>
      <edge id="2si">
         <lane id="2si_0" traveltime="22.82" nSamples="769" density="10.81" occupancy="0.05" noStops="110" speed="10.39" entered="72" emitted="0" left="27"/>
         <lane id="2si_1" traveltime="38.04" nSamples="1156" density="16.25" occupancy="0.08" noStops="385" speed="6.23" entered="0" emitted="0" left="29"/>
         <lane id="2si_2" traveltime="43.75" nSamples="327" density="4.60" occupancy="0.02" noStops="163" speed="5.42" entered="0" emitted="0" left="6"/>
      </edge>
      <edge id="3si">
         <lane id="3si_0" traveltime="34.10" nSamples="1111" density="15.62" occupancy="0.08" noStops="312" speed="6.95" entered="64" emitted="0" left="31"/>
         <lane id="3si_1" traveltime="37.18" nSamples="1117" density="15.70" occupancy="0.08" noStops="355" speed="6.38" entered="0" emitted="0" left="32"/>
         <lane id="3si_2" traveltime="23.54" nSamples="110" density="1.55" occupancy="0.01" noStops="13" speed="10.07" entered="0" emitted="0" left="5"/>
      </edge>
      <edge id="4si">
         <lane id="4si_0" traveltime="18.55" nSamples="506" density="7.11" occupancy="0.04" noStops="0" speed="12.78" entered="72" emitted="0" left="24"/>
         <lane id="4si_1" traveltime="50.01" nSamples="1605" density="22.56" occupancy="0.11" noStops="689" speed="4.74" entered="0" emitted="0" left="31"/>
         <lane id="4si_2" traveltime="155.51" nSamples="2454" density="34.49" occupancy="0.17" noStops="1737" speed="1.52" entered="0" emitted="0" left="11"/>
      </edge>
   </interval>
   <interval begin="600" end="899" id="dump_300">
      <edge id="1fi">
         <lane id="1fi_0" traveltime="31.07" nSamples="2669" density="35.57" occupancy="0.18" noStops="0" speed="8.05" entered="71" emitted="30" left="92"/>
      </edge>
      <edge id="1o">
         <lane id="1o_0" traveltime="47.64" nSamples="3459" density="23.68" occupancy="0.12" noStops="0" speed="10.22" entered="71" emitted="0" left="71"/>
      </edge>
      <edge id="2fi">
         <lane id="2fi_0" traveltime="31.13" nSamples="2105" density="28.05" occupancy="0.14" noStops="0" speed="8.04" entered="74" emitted="30" left="71"/>
      </edge>
      <edge id="2o">
         <lane id="2o_0" traveltime="50.34" nSamples="3653" density="25.00" occupancy="0.13" noStops="1" speed="9.67" entered="70" emitted="0" left="74"/>
      </edge>
      <edge id="3fi">
         <lane id="3fi_0" traveltime="34.96" nSamples="2072" density="27.61" occupancy="0.14" noStops="0" speed="7.16" entered="73" emitted="60" left="74"/>
      </edge>
      <edge id="3o">
         <lane id="3o_0" traveltime="49.31" nSamples="3692" density="25.27" occupancy="0.13" noStops="0" speed="9.88" entered="72" emitted="0" left="73"/>
      </edge>
      <edge id="4fi">
         <lane id="4fi_0" traveltime="22.87" nSamples="1873" density="24.96" occupancy="0.12" noStops="0" speed="10.94" entered="79" emitted="0" left="82"/>
      </edge>
      <edge id="4o">
         <lane id="4o_0" traveltime="49.23" nSamples="3845" density="26.32" occupancy="0.13" noStops="0" speed="9.89" entered="76" emitted="0" left="79"/>
      </edge>
      <edge id="1si">
         <lane id="1si_0" traveltime="20.02" nSamples="659" density="9.26" occupancy="0.05" noStops="0" speed="11.84" entered="92" emitted="0" left="28"/>
         <lane id="1si_1" traveltime="44.77" nSamples="1377" density="19.35" occupancy="0.10" noStops="540" speed="5.30" entered="0" emitted="0" left="27"/>
         <lane id="1si_2" traveltime="390.02" nSamples="8024" density="112.78" occupancy="0.56" noStops="4499" speed="0.61" entered="0" emitted="0" left="16"/>
      </edge>
      <edge id="2si">
         <lane id="2si_0" traveltime="20.58" nSamples="654" density="9.19" occupancy="0.05" noStops="30" speed="11.53" entered="71" emitted="0" left="30"/>
         <lane id="2si_1" traveltime="41.46" nSamples="1227" density="17.25" occupancy="0.09" noStops="460" speed="5.72" entered="0" emitted="0" left="28"/>
         <lane id="2si_2" traveltime="52.89" nSamples="641" density="9.01" occupancy="0.05" noStops="344" speed="4.48" entered="0" emitted="0" left="13"/>
      </edge>
      <edge id="3si">
         <lane id="3si_0" traveltime="32.31" nSamples="1069" density="15.03" occupancy="0.08" noStops="282" speed="7.34" entered="74" emitted="0" left="30"/>
         <lane id="3si_1" traveltime="35.86" nSamples="1087" density="15.28" occupancy="0.08" noStops="324" speed="6.61" entered="0" emitted="0" left="30"/>
         <lane id="3si_2" traveltime="30.42" nSamples="337" density="4.74" occupancy="0.02" noStops="99" speed="7.80" entered="0" emitted="0" left="10"/>
      </edge>
      <edge id="4si">
         <lane id="4si_0" traveltime="18.49" nSamples="681" density="9.57" occupancy="0.05" noStops="0" speed="12.82" entered="82" emitted="0" left="33"/>
         <lane id="4si_1" traveltime="54.43" nSamples="1616" density="22.71" occupancy="0.11" noStops="779" speed="4.36" entered="0" emitted="0" left="31"/>
         <lane id="4si_2" traveltime="249.61" nSamples="3768" density="52.96" occupancy="0.26" noStops="2784" speed="0.95" entered="0" emitted="0" left="13"/>
      </edge>
   </interval>
   <interval begin="900" end="1000" id="dump_300">
      <edge id="1fi">
         <lane id="1fi_0" traveltime="31.55" nSamples="934" density="36.97" occupancy="0.18" noStops="0" speed="7.93" entered="22" emitted="11" left="29"/>
      </edge>
      <edge id="1o">
         <lane id="1o_0" traveltime="48.47" nSamples="1197" density="24.34" occupancy="0.12" noStops="0" speed="10.05" entered="27" emitted="0" left="22"/>
      </edge>
      <edge id="2fi">
         <lane id="2fi_0" traveltime="32.00" nSamples="628" density="24.86" occupancy="0.12" noStops="0" speed="7.82" entered="21" emitted="11" left="21"/>
      </edge>
      <edge id="2o">
         <lane id="2o_0" traveltime="50.13" nSamples="1234" density="25.09" occupancy="0.13" noStops="0" speed="9.71" entered="23" emitted="0" left="21"/>
      </edge>
      <edge id="3fi">
         <lane id="3fi_0" traveltime="36.03" nSamples="749" density="29.65" occupancy="0.15" noStops="0" speed="6.94" entered="25" emitted="22" left="25"/>
      </edge>
      <edge id="3o">
         <lane id="3o_0" traveltime="48.21" nSamples="1303" density="26.49" occupancy="0.13" noStops="0" speed="10.10" entered="30" emitted="0" left="25"/>
      </edge>
      <edge id="4fi">
         <lane id="4fi_0" traveltime="22.89" nSamples="604" density="23.91" occupancy="0.12" noStops="0" speed="10.93" entered="24" emitted="0" left="23"/>
      </edge>
      <edge id="4o">
         <lane id="4o_0" traveltime="49.43" nSamples="1178" density="23.95" occupancy="0.12" noStops="0" speed="9.85" entered="26" emitted="0" left="24"/>
      </edge>
      <edge id="1si">
         <lane id="1si_0" traveltime="19.63" nSamples="228" density="9.52" occupancy="0.05" noStops="0" speed="12.08" entered="29" emitted="0" left="13"/>
         <lane id="1si_1" traveltime="34.03" nSamples="390" density="16.28" occupancy="0.08" noStops="86" speed="6.97" entered="0" emitted="0" left="11"/>
         <lane id="1si_2" traveltime="659.42" nSamples="3654" density="152.55" occupancy="0.76" noStops="2467" speed="0.36" entered="0" emitted="0" left="7"/>
      </edge>
      <edge id="2si">
         <lane id="2si_0" traveltime="23.47" nSamples="222" density="9.27" occupancy="0.05" noStops="25" speed="10.10" entered="21" emitted="0" left="9"/>
         <lane id="2si_1" traveltime="39.00" nSamples="411" density="17.16" occupancy="0.09" noStops="122" speed="6.08" entered="0" emitted="0" left="13"/>
         <lane id="2si_2" traveltime="32.74" nSamples="158" density="6.60" occupancy="0.03" noStops="56" speed="7.24" entered="0" emitted="0" left="7"/>
      </edge>
      <edge id="3si">
         <lane id="3si_0" traveltime="41.97" nSamples="441" density="18.41" occupancy="0.09" noStops="172" speed="5.65" entered="25" emitted="0" left="10"/>
         <lane id="3si_1" traveltime="43.00" nSamples="455" density="19.00" occupancy="0.09" noStops="174" speed="5.52" entered="0" emitted="0" left="10"/>
         <lane id="3si_2" traveltime="74.14" nSamples="201" density="8.39" occupancy="0.04" noStops="131" speed="3.20" entered="0" emitted="0" left="3"/>
      </edge>
      <edge id="4si">
         <lane id="4si_0" traveltime="18.55" nSamples="242" density="10.10" occupancy="0.05" noStops="0" speed="12.78" entered="23" emitted="0" left="11"/>
         <lane id="4si_1" traveltime="73.76" nSamples="541" density="22.59" occupancy="0.11" noStops="287" speed="3.22" entered="0" emitted="0" left="10"/>
         <lane id="4si_2" traveltime="409.85" nSamples="1549" density="64.67" occupancy="0.32" noStops="1226" speed="0.58" entered="0" emitted="0" left="2"/>
      </edge>
   </interval>
</netstats>
