<?xml version="1.0"?>

<!-- generated on 11/28/07 13:54:42 by SUMO sumo Version 0.9.7
<configuration>

   <input>
      <net-file>net.net.xml</net-file>
      <route-files>input_routes.rou.xml</route-files>
   </input>

   <output>
      <lanedump-intervals>300 900</lanedump-intervals>
      <lanedump-basename>aggregated</lanedump-basename>
   </output>

   <time>
      <begin>0</begin>
      <end>1000</end>
   </time>

   <processing>
      <no-duration-log>true</no-duration-log>
      <no-step-log>true</no-step-log>
   </processing>

</configuration>
-->

<netstats>
   <interval begin="0" end="299" id="dump_300">
      <edge id="1fi">
         <lane id="1fi_0" traveltime="33.88" nSamples="759" density="10.11" occupancy="0.05" noStops="0" speed="7.38"/>
      </edge>
      <edge id="1o">
         <lane id="1o_0" traveltime="51.05" nSamples="610" density="4.18" occupancy="0.02" noStops="0" speed="9.54"/>
      </edge>
      <edge id="2fi">
         <lane id="2fi_0" traveltime="34.90" nSamples="657" density="8.75" occupancy="0.04" noStops="0" speed="7.17"/>
      </edge>
      <edge id="2o">
         <lane id="2o_0" traveltime="51.98" nSamples="693" density="4.74" occupancy="0.02" noStops="0" speed="9.37"/>
      </edge>
      <edge id="3fi">
         <lane id="3fi_0" traveltime="33.55" nSamples="1133" density="15.10" occupancy="0.08" noStops="0" speed="7.46"/>
      </edge>
      <edge id="3o">
         <lane id="3o_0" traveltime="43.83" nSamples="0" density="0.00" occupancy="0.00" noStops="0" speed="11.11"/>
      </edge>
      <edge id="4fi">
         <lane id="4fi_0" traveltime="22.88" nSamples="312" density="4.16" occupancy="0.02" noStops="0" speed="10.93"/>
      </edge>
      <edge id="4o">
         <lane id="4o_0" traveltime="50.96" nSamples="1139" density="7.80" occupancy="0.04" noStops="0" speed="9.56"/>
      </edge>
      <edge id="1si">
         <lane id="1si_0" traveltime="21.96" nSamples="21" density="0.30" occupancy="0.00" noStops="0" speed="10.80"/>
         <lane id="1si_1" traveltime="44.24" nSamples="211" density="2.97" occupancy="0.01" noStops="88" speed="5.36"/>
         <lane id="1si_2" traveltime="46.76" nSamples="707" density="9.94" occupancy="0.05" noStops="267" speed="5.07"/>
      </edge>
      <edge id="2si">
         <lane id="2si_0" traveltime="18.90" nSamples="133" density="1.87" occupancy="0.01" noStops="0" speed="12.54"/>
         <lane id="2si_1" traveltime="31.62" nSamples="514" density="7.22" occupancy="0.04" noStops="139" speed="7.50"/>
         <lane id="2si_2" traveltime="17.07" nSamples="0" density="0.00" occupancy="0.00" noStops="0" speed="13.89"/>
      </edge>
      <edge id="3si">
         <lane id="3si_0" traveltime="35.64" nSamples="645" density="9.07" occupancy="0.05" noStops="208" speed="6.65"/>
         <lane id="3si_1" traveltime="35.86" nSamples="582" density="8.18" occupancy="0.04" noStops="189" speed="6.61"/>
         <lane id="3si_2" traveltime="17.07" nSamples="0" density="0.00" occupancy="0.00" noStops="0" speed="13.89"/>
      </edge>
      <edge id="4si">
         <lane id="4si_0" traveltime="21.73" nSamples="11" density="0.15" occupancy="0.00" noStops="0" speed="10.91"/>
         <lane id="4si_1" traveltime="34.11" nSamples="197" density="2.77" occupancy="0.01" noStops="68" speed="6.95"/>
         <lane id="4si_2" traveltime="46.71" nSamples="182" density="2.56" occupancy="0.01" noStops="84" speed="5.08"/>
      </edge>
   </interval>
   <interval begin="300" end="599" id="dump_300">
      <edge id="1fi">
         <lane id="1fi_0" traveltime="31.24" nSamples="2276" density="30.33" occupancy="0.15" noStops="0" speed="8.01"/>
      </edge>
      <edge id="1o">
         <lane id="1o_0" traveltime="47.41" nSamples="2689" density="18.41" occupancy="0.09" noStops="0" speed="10.27"/>
      </edge>
      <edge id="2fi">
         <lane id="2fi_0" traveltime="31.25" nSamples="2114" density="28.17" occupancy="0.14" noStops="0" speed="8.00"/>
      </edge>
      <edge id="2o">
         <lane id="2o_0" traveltime="50.08" nSamples="3526" density="24.13" occupancy="0.12" noStops="0" speed="9.72"/>
      </edge>
      <edge id="3fi">
         <lane id="3fi_0" traveltime="35.04" nSamples="1883" density="25.09" occupancy="0.13" noStops="0" speed="7.14"/>
      </edge>
      <edge id="3o">
         <lane id="3o_0" traveltime="49.14" nSamples="2545" density="17.42" occupancy="0.09" noStops="0" speed="9.91"/>
      </edge>
      <edge id="4fi">
         <lane id="4fi_0" traveltime="22.87" nSamples="1808" density="24.09" occupancy="0.12" noStops="0" speed="10.94"/>
      </edge>
      <edge id="4o">
         <lane id="4o_0" traveltime="49.16" nSamples="3785" density="25.91" occupancy="0.13" noStops="0" speed="9.91"/>
      </edge>
      <edge id="1si">
         <lane id="1si_0" traveltime="19.95" nSamples="444" density="6.24" occupancy="0.03" noStops="0" speed="11.89"/>
         <lane id="1si_1" traveltime="44.82" nSamples="1423" density="20.00" occupancy="0.10" noStops="508" speed="5.29"/>
         <lane id="1si_2" traveltime="175.83" nSamples="4204" density="59.09" occupancy="0.30" noStops="2698" speed="1.35"/>
      </edge>
      <edge id="2si">
         <lane id="2si_0" traveltime="20.70" nSamples="682" density="9.59" occupancy="0.05" noStops="34" speed="11.46"/>
         <lane id="2si_1" traveltime="39.98" nSamples="1219" density="17.13" occupancy="0.09" noStops="423" speed="5.93"/>
         <lane id="2si_2" traveltime="32.18" nSamples="303" density="4.26" occupancy="0.02" noStops="112" speed="7.37"/>
      </edge>
      <edge id="3si">
         <lane id="3si_0" traveltime="35.62" nSamples="1169" density="16.43" occupancy="0.08" noStops="350" speed="6.66"/>
         <lane id="3si_1" traveltime="37.23" nSamples="1120" density="15.74" occupancy="0.08" noStops="354" speed="6.37"/>
         <lane id="3si_2" traveltime="21.87" nSamples="123" density="1.73" occupancy="0.01" noStops="10" speed="10.85"/>
      </edge>
      <edge id="4si">
         <lane id="4si_0" traveltime="18.57" nSamples="506" density="7.11" occupancy="0.04" noStops="0" speed="12.77"/>
         <lane id="4si_1" traveltime="48.86" nSamples="1571" density="22.08" occupancy="0.11" noStops="665" speed="4.85"/>
         <lane id="4si_2" traveltime="130.86" nSamples="2059" density="28.94" occupancy="0.14" noStops="1408" speed="1.81"/>
      </edge>
   </interval>
   <interval begin="600" end="899" id="dump_300">
      <edge id="1fi">
         <lane id="1fi_0" traveltime="31.04" nSamples="2585" density="34.45" occupancy="0.17" noStops="0" speed="8.06"/>
      </edge>
      <edge id="1o">
         <lane id="1o_0" traveltime="48.43" nSamples="3521" density="24.10" occupancy="0.12" noStops="0" speed="10.06"/>
      </edge>
      <edge id="2fi">
         <lane id="2fi_0" traveltime="30.25" nSamples="1967" density="26.21" occupancy="0.13" noStops="0" speed="8.27"/>
      </edge>
      <edge id="2o">
         <lane id="2o_0" traveltime="49.89" nSamples="3547" density="24.28" occupancy="0.12" noStops="0" speed="9.76"/>
      </edge>
      <edge id="3fi">
         <lane id="3fi_0" traveltime="34.52" nSamples="2088" density="27.82" occupancy="0.14" noStops="0" speed="7.25"/>
      </edge>
      <edge id="3o">
         <lane id="3o_0" traveltime="47.73" nSamples="3450" density="23.61" occupancy="0.12" noStops="0" speed="10.20"/>
      </edge>
      <edge id="4fi">
         <lane id="4fi_0" traveltime="22.88" nSamples="1783" density="23.76" occupancy="0.12" noStops="0" speed="10.93"/>
      </edge>
      <edge id="4o">
         <lane id="4o_0" traveltime="48.88" nSamples="3777" density="25.85" occupancy="0.13" noStops="0" speed="9.96"/>
      </edge>
      <edge id="1si">
         <lane id="1si_0" traveltime="19.42" nSamples="646" density="9.08" occupancy="0.05" noStops="0" speed="12.21"/>
         <lane id="1si_1" traveltime="43.44" nSamples="1343" density="18.88" occupancy="0.09" noStops="466" speed="5.46"/>
         <lane id="1si_2" traveltime="478.15" nSamples="8689" density="122.13" occupancy="0.61" noStops="5250" speed="0.50"/>
      </edge>
      <edge id="2si">
         <lane id="2si_0" traveltime="20.56" nSamples="671" density="9.43" occupancy="0.05" noStops="38" speed="11.53"/>
         <lane id="2si_1" traveltime="41.54" nSamples="1228" density="17.26" occupancy="0.09" noStops="469" speed="5.71"/>
         <lane id="2si_2" traveltime="32.79" nSamples="307" density="4.32" occupancy="0.02" noStops="117" speed="7.23"/>
      </edge>
      <edge id="3si">
         <lane id="3si_0" traveltime="34.84" nSamples="1125" density="15.81" occupancy="0.08" noStops="331" speed="6.81"/>
         <lane id="3si_1" traveltime="34.24" nSamples="1023" density="14.38" occupancy="0.07" noStops="296" speed="6.93"/>
         <lane id="3si_2" traveltime="33.62" nSamples="377" density="5.30" occupancy="0.03" noStops="122" speed="7.05"/>
      </edge>
      <edge id="4si">
         <lane id="4si_0" traveltime="20.05" nSamples="711" density="9.99" occupancy="0.05" noStops="5" speed="11.83"/>
         <lane id="4si_1" traveltime="52.52" nSamples="1542" density="21.67" occupancy="0.11" noStops="685" speed="4.52"/>
         <lane id="4si_2" traveltime="273.89" nSamples="3490" density="49.05" occupancy="0.25" noStops="2706" speed="0.87"/>
      </edge>
   </interval>
   <interval begin="900" end="1001" id="dump_300">
      <edge id="1fi">
         <lane id="1fi_0" traveltime="32.48" nSamples="977" density="38.29" occupancy="0.19" noStops="0" speed="7.70"/>
      </edge>
      <edge id="1o">
         <lane id="1o_0" traveltime="47.39" nSamples="1121" density="22.57" occupancy="0.11" noStops="0" speed="10.28"/>
      </edge>
      <edge id="2fi">
         <lane id="2fi_0" traveltime="30.49" nSamples="620" density="24.30" occupancy="0.12" noStops="0" speed="8.21"/>
      </edge>
      <edge id="2o">
         <lane id="2o_0" traveltime="50.07" nSamples="1206" density="24.28" occupancy="0.12" noStops="0" speed="9.73"/>
      </edge>
      <edge id="3fi">
         <lane id="3fi_0" traveltime="36.06" nSamples="636" density="24.93" occupancy="0.12" noStops="0" speed="6.94"/>
      </edge>
      <edge id="3o">
         <lane id="3o_0" traveltime="48.42" nSamples="1092" density="21.98" occupancy="0.11" noStops="0" speed="10.06"/>
      </edge>
      <edge id="4fi">
         <lane id="4fi_0" traveltime="22.89" nSamples="665" density="26.06" occupancy="0.13" noStops="0" speed="10.93"/>
      </edge>
      <edge id="4o">
         <lane id="4o_0" traveltime="50.34" nSamples="1277" density="25.71" occupancy="0.13" noStops="0" speed="9.67"/>
      </edge>
      <edge id="1si">
         <lane id="1si_0" traveltime="18.65" nSamples="180" density="7.44" occupancy="0.04" noStops="0" speed="12.72"/>
         <lane id="1si_1" traveltime="53.18" nSamples="441" density="18.23" occupancy="0.09" noStops="89" speed="4.46"/>
         <lane id="1si_2" traveltime="609.09" nSamples="3816" density="157.76" occupancy="0.79" noStops="2020" speed="0.39"/>
      </edge>
      <edge id="2si">
         <lane id="2si_0" traveltime="20.41" nSamples="209" density="8.64" occupancy="0.04" noStops="0" speed="11.62"/>
         <lane id="2si_1" traveltime="40.94" nSamples="428" density="17.69" occupancy="0.09" noStops="133" speed="5.79"/>
         <lane id="2si_2" traveltime="54.88" nSamples="207" density="8.56" occupancy="0.04" noStops="119" speed="4.32"/>
      </edge>
      <edge id="3si">
         <lane id="3si_0" traveltime="38.12" nSamples="414" density="17.12" occupancy="0.09" noStops="143" speed="6.22"/>
         <lane id="3si_1" traveltime="38.24" nSamples="395" density="16.33" occupancy="0.08" noStops="130" speed="6.20"/>
         <lane id="3si_2" traveltime="20.14" nSamples="1" density="0.04" occupancy="0.00" noStops="0" speed="11.78"/>
      </edge>
      <edge id="4si">
         <lane id="4si_0" traveltime="18.44" nSamples="257" density="10.62" occupancy="0.05" noStops="0" speed="12.86"/>
         <lane id="4si_1" traveltime="69.38" nSamples="584" density="24.14" occupancy="0.12" noStops="311" speed="3.42"/>
         <lane id="4si_2" traveltime="323.63" nSamples="1420" density="58.70" occupancy="0.29" noStops="1104" speed="0.73"/>
      </edge>
   </interval>
</netstats>
