<?xml version="1.0" encoding="UTF-8"?>

<!-- generated on 2022-10-11 08:43:44 by Eclipse SUMO netedit Version v1_14_1+1563-f3c96901f69
-->

<routes xmlns:xsi="http://www.w3.org/2001/XMLSchema-instance" xsi:noNamespaceSchemaLocation="http://sumo.dlr.de/xsd/routes_file.xsd">
    <!-- Vehicles, persons and containers (sorted by depart) -->
    <person id="p_0" depart="0.00">
        <walk from="gneE2" to="gneE2"/>
        <walk edges="gneE2 gneE4 gneE5" arrivalPos="7.00"/>
        <walk edges="gneE5 gneE10" arrivalPos="5.00"/>
    </person>
</routes>
