<?xml version="1.0" encoding="UTF-8"?>

<!-- generated on 22.01.2019 16:51:17 by Eclipse SUMO netedit Version v1_1_0+0076-a16c2aae75
-->

<additional xmlns:xsi="http://www.w3.org/2001/XMLSchema-instance" xsi:noNamespaceSchemaLocation="http://sumo.dlr.de/xsd/additional_file.xsd">
    <calibrator id="calibratorFlows" edge="gneE0" pos="20.00" freq="100.00" output="calibratorFlows.txt"/>
</additional>
