<?xml version="1.0" encoding="UTF-8"?>

<!-- generated on 2023-05-31 11:59:29 by Eclipse SUMO netedit Version v1_17_0+0593-1bcdaaf
<configuration xmlns:xsi="http://www.w3.org/2001/XMLSchema-instance" xsi:noNamespaceSchemaLocation="http://sumo.dlr.de/xsd/netconvertConfiguration.xsd">

    <input>
        <sumo-net-file value="net.net.xml.gz"/>
    </input>

    <output>
        <output.street-names value="true"/>
    </output>

    <processing>
        <geometry.min-radius.fix.railways value="false"/>
        <geometry.max-grade.fix value="false"/>
        <offset.disable-normalization value="true"/>
        <lefthand value="0"/>
    </processing>

    <junctions>
        <no-internal-links value="false"/>
        <no-turnarounds value="true"/>
        <junctions.corner-detail value="5"/>
        <junctions.limit-turn-speed value="5.50"/>
        <rectangular-lane-cut value="0"/>
    </junctions>

    <pedestrian>
        <walkingareas value="1"/>
    </pedestrian>

</configuration>
-->

<edges version="1.16" xmlns:xsi="http://www.w3.org/2001/XMLSchema-instance" xsi:noNamespaceSchemaLocation="http://sumo.dlr.de/xsd/edges_file.xsd">
    <location netOffset="-398816.96,-5809707.61" convBoundary="2337.86,943.73,2428.34,995.19" origBoundary="13.510966,52.428677,13.569823,52.453865" projParameter="+proj=utm +zone=33 +ellps=WGS84 +datum=WGS84 +units=m +no_defs"/>

    <edge id="-178028204#1" from="cluster3892451598_766875150" to="cluster_237253947_3909915214" name="Dörpfeldstraße" priority="10" type="highway.tertiary" numLanes="3" speed="8.33" shape="2360.46,959.11 2425.00,995.19" bidi="178028204#1">
        <lane index="0" allow="pedestrian" width="3.00">
            <param key="origId" value="178028204"/>
        </lane>
        <lane index="1" disallow="pedestrian tram rail_urban rail rail_electric rail_fast ship">
            <param key="origId" value="178028204"/>
        </lane>
        <lane index="2" disallow="pedestrian rail_urban rail rail_electric rail_fast ship">
            <param key="origId" value="178028204"/>
        </lane>
        <param key="origTo" value="3909915214"/>
    </edge>
    <edge id="-178028204#3" from="257749657" to="cluster3892451598_766875150" name="Dörpfeldstraße" priority="10" type="highway.tertiary" numLanes="3" speed="8.33" shape="2337.86,946.53 2358.87,958.22" bidi="178028204#3">
        <lane index="0" allow="pedestrian" width="3.00">
            <param key="origId" value="178028204"/>
        </lane>
        <lane index="1" disallow="pedestrian tram rail_urban rail rail_electric rail_fast ship">
            <param key="origId" value="178028204"/>
        </lane>
        <lane index="2" disallow="pedestrian rail_urban rail rail_electric rail_fast ship">
            <param key="origId" value="178028204"/>
        </lane>
    </edge>
    <edge id="178028204#1" from="cluster_237253947_3909915214" to="cluster3892451598_766875150" name="Dörpfeldstraße" priority="10" type="highway.tertiary" numLanes="3" speed="8.33" shape="2426.56,992.39 2362.02,956.31" bidi="-178028204#1">
        <lane index="0" allow="pedestrian" width="3.00">
            <param key="origId" value="178028204"/>
        </lane>
        <lane index="1" disallow="pedestrian tram rail_urban rail rail_electric rail_fast ship">
            <param key="origId" value="178028204"/>
        </lane>
        <lane index="2" disallow="pedestrian rail_urban rail rail_electric rail_fast ship">
            <param key="origId" value="178028204"/>
        </lane>
        <param key="origFrom" value="3909915214"/>
    </edge>
    <edge id="178028204#3" from="cluster3892451598_766875150" to="257749657" name="Dörpfeldstraße" priority="10" type="highway.tertiary" numLanes="3" speed="8.33" shape="2360.43,955.42 2339.42,943.73" bidi="-178028204#3">
        <lane index="0" allow="pedestrian" width="3.00">
            <param key="origId" value="178028204"/>
        </lane>
        <lane index="1" disallow="pedestrian tram rail_urban rail rail_electric rail_fast ship">
            <param key="origId" value="178028204"/>
        </lane>
        <lane index="2" disallow="pedestrian rail_urban rail rail_electric rail_fast ship">
            <param key="origId" value="178028204"/>
        </lane>
    </edge>
</edges>
