<?xml version="1.0" encoding="UTF-8"?>

<!-- generated on 2022-05-06 13:10:00 by Eclipse SUMO sumo Version v1_13_0+0080-acf42d6
<configuration xmlns:xsi="http://www.w3.org/2001/XMLSchema-instance" xsi:noNamespaceSchemaLocation="http://sumo.dlr.de/xsd/sumoConfiguration.xsd">

    <input>
        <net-file value="input_net.net.xml"/>
        <route-files value="vr.xml"/>
    </input>

    <output>
        <statistic-output value="statistics2.xml"/>
    </output>

    <routing>
        <replay-rerouting value="true"/>
    </routing>

    <report>
        <verbose value="true"/>
        <duration-log.statistics value="true"/>
        <no-step-log value="true"/>
    </report>

</configuration>
-->

<statistics xmlns:xsi="http://www.w3.org/2001/XMLSchema-instance" xsi:noNamespaceSchemaLocation="http://sumo.dlr.de/xsd/statistic_file.xsd">
    <vehicles loaded="832" inserted="832" running="0" waiting="0"/>
    <teleports total="0" jam="0" yield="0" wrongLane="0"/>
    <safety collisions="0" emergencyStops="0"/>
    <persons loaded="0" running="0" jammed="0"/>
    <vehicleTripStatistics routeLength="1179.67" speed="4.17" duration="306.01" waitingTime="144.70" timeLoss="218.02" departDelay="0.00" departDelayWaiting="-1.00" totalTravelTime="254598.00" totalDepartDelay="0.00"/>
    <pedestrianStatistics number="0" routeLength="0.00" duration="0.00" timeLoss="0.00"/>
    <rideStatistics number="0"/>
    <transportStatistics number="0"/>
</statistics>
