<?xml version="1.0" encoding="UTF-8"?>

<!-- generated on 2026-06-21T10:05:25.413032+01:00 by Eclipse SUMO sumo v1_27_0+0279-a98528887a8
<sumoConfiguration xmlns:xsi="http://www.w3.org/2001/XMLSchema-instance" xsi:noNamespaceSchemaLocation="http://sumo.dlr.de/xsd/sumoConfiguration.xsd">

    <input>
        <net-file value="input_net.net.xml"/>
        <route-files value="vr.xml"/>
    </input>

    <output>
        <statistic-output value="statistics2.xml"/>
    </output>

    <processing>
        <default.departspeed value="0"/>
        <default.departlane value="first"/>
    </processing>

    <routing>
        <replay-rerouting value="true"/>
    </routing>

    <report>
        <duration-log.statistics value="true"/>
        <no-step-log value="true"/>
    </report>

</sumoConfiguration>
-->

<statistics xmlns:xsi="http://www.w3.org/2001/XMLSchema-instance" xsi:noNamespaceSchemaLocation="http://sumo.dlr.de/xsd/statistic_file.xsd">
    <performance clockBegin="1782029125.42" clockEnd="1782029126.19" clockDuration="0.77" traciDuration="0.00" realTimeFactor="1794.57" vehicleUpdatesPerSecond="304864.34" personUpdatesPerSecond="0.00" begin="0.00" end="1389.00" duration="1389.00"/>
    <vehicles loaded="832" inserted="832" running="0" waiting="0"/>
    <teleports total="0" jam="0" yield="0" wrongLane="0"/>
    <safety collisions="0" emergencyStops="0" emergencyBraking="0"/>
    <persons loaded="0" running="0" jammed="0"/>
    <personTeleports total="0" abortWait="0" wrongDest="0"/>
    <vehicleTripStatistics count="832" routeLength="1174.21" speed="4.43" duration="283.61" waitingTime="127.02" timeLoss="196.07" departDelay="0.00" departDelayWaiting="-1.00" totalTravelTime="235965.00" totalDepartDelay="0.00"/>
    <pedestrianStatistics number="0" routeLength="0.00" duration="0.00" timeLoss="0.00"/>
    <rideStatistics number="0"/>
    <transportStatistics number="0"/>
</statistics>
