<?xml version="1.0" encoding="UTF-8"?>

<!-- generated on 2024-06-26 13:46:43 by Eclipse SUMO sumo Version v1_20_0+0840-6edfc792969
<sumoConfiguration xmlns:xsi="http://www.w3.org/2001/XMLSchema-instance" xsi:noNamespaceSchemaLocation="http://sumo.dlr.de/xsd/sumoConfiguration.xsd">

    <input>
        <net-file value="input_net.net.xml"/>
        <route-files value="vr.xml"/>
    </input>

    <output>
        <statistic-output value="statistics2.xml"/>
    </output>

    <routing>
        <replay-rerouting value="true"/>
    </routing>

    <report>
        <duration-log.statistics value="true"/>
        <no-step-log value="true"/>
    </report>

</sumoConfiguration>
-->

<statistics xmlns:xsi="http://www.w3.org/2001/XMLSchema-instance" xsi:noNamespaceSchemaLocation="http://sumo.dlr.de/xsd/statistic_file.xsd">
    <performance clockBegin="1719402403.02" clockEnd="1719402403.77" clockDuration="0.75" traciDuration="0.00" realTimeFactor="1874.01" vehicleUpdatesPerSecond="304103.45" personUpdatesPerSecond="0.00" begin="0.00" end="1413.00" duration="1413.00"/>
    <vehicles loaded="832" inserted="832" running="0" waiting="0"/>
    <teleports total="0" jam="0" yield="0" wrongLane="0"/>
    <safety collisions="0" emergencyStops="0" emergencyBraking="0"/>
    <persons loaded="0" running="0" jammed="0"/>
    <personTeleports total="0" abortWait="0" wrongDest="0"/>
    <vehicleTripStatistics count="832" routeLength="1174.05" speed="4.54" duration="275.59" waitingTime="123.70" timeLoss="188.14" departDelay="0.00" departDelayWaiting="-1.00" totalTravelTime="229294.00" totalDepartDelay="0.00"/>
    <pedestrianStatistics number="0" routeLength="0.00" duration="0.00" timeLoss="0.00"/>
    <rideStatistics number="0"/>
    <transportStatistics number="0"/>
</statistics>
