<?xml version="1.0" encoding="UTF-8"?>

<!-- generated on 2023-06-26 12:25:39 by Eclipse SUMO netedit Version v1_17_0+1258-4ce06f8
<configuration xmlns:xsi="http://www.w3.org/2001/XMLSchema-instance" xsi:noNamespaceSchemaLocation="http://sumo.dlr.de/xsd/neteditConfiguration.xsd">

    <input>
        <sumo-net-file value="/scr1/sumo/tests/netedit/netelements/junctions/inspect_tls/tl/net.netedit"/>
    </input>

    <processing>
        <geometry.min-radius.fix.railways value="false"/>
        <geometry.max-grade.fix value="false"/>
        <offset.disable-normalization value="true"/>
        <lefthand value="0"/>
    </processing>

    <junctions>
        <no-internal-links value="false"/>
        <no-turnarounds value="true"/>
        <junctions.corner-detail value="5"/>
        <junctions.limit-turn-speed value="5.50"/>
        <rectangular-lane-cut value="0"/>
    </junctions>

    <pedestrian>
        <walkingareas value="0"/>
    </pedestrian>

</configuration>
-->

<nodes version="1.16" xmlns:xsi="http://www.w3.org/2001/XMLSchema-instance" xsi:noNamespaceSchemaLocation="http://sumo.dlr.de/xsd/nodes_file.xsd">
    <location netOffset="50.00,50.00" convBoundary="0.00,0.00,100.00,100.00" origBoundary="-50.00,-50.00,50.00,50.00" projParameter="!"/>

    <node id="A" x="50.00" y="0.00" type="traffic_light" tl="A"/>
    <node id="B" x="50.00" y="100.00" type="traffic_light" tl="B"/>
    <node id="C" x="0.00" y="50.00" type="traffic_light" tl="C"/>
    <node id="Center" x="50.00" y="50.00" type="traffic_light" tl="Center"/>
    <node id="D" x="100.00" y="50.00" type="traffic_light" tl="Center"/>
</nodes>
