<?xml version="1.0" encoding="UTF-8"?>

<!-- generated on 2023-11-06 16:40:34 by Eclipse SUMO netedit Version v1_18_0+2440-94ba841a93d
-->

<routes xmlns:xsi="http://www.w3.org/2001/XMLSchema-instance" xsi:noNamespaceSchemaLocation="http://sumo.dlr.de/xsd/routes_file.xsd">
    <!-- Vehicles, persons and containers (sorted by depart) -->
    <trip id="tripA" depart="0.00" from="Edge0" to="Edge2">
        <stop containerStop="containerStopA" duration="70.00" until="12.00" extension="10.00" triggered="person" parking="1" expected="perA perB" permitted="opportunistic" tripId="tripA" line="lineA" onDemand="1" actType="walking"/>
    </trip>
    <trip id="tripB" depart="0.00" from="EdgeCenter0" to="EdgeCenter1">
        <stop containerStop="containerStopB" duration="60.00" until="20.00" extension="20.00" triggered="container" parking="1" expected="conA conB" permitted="opportunistic" tripId="tripB" line="lineB" actType="singing"/>
    </trip>
</routes>
