<routes xmlns:xsi="http://www.w3.org/2001/XMLSchema-instance" xsi:noNamespaceSchemaLocation="http://sumo.dlr.de/xsd/routes_file.xsd">
   <vType id="DEFAULT_VEHTYPE" sigma="0"/>
    <vehicle id="straight" depart="0">
        <route edges="beg1 end2"/>
    </vehicle>
    <vehicle id="yield" depart="0" departPos="20">
        <route edges="beg2 end2"/>
    </vehicle>
</routes>
