<?xml version="1.0" encoding="UTF-8"?>

<!-- generated on 2022-11-22 13:59:41 by Eclipse SUMO netconvert Version v1_15_0+0513-92dad7d
This data file and the accompanying materials
are made available under the terms of the Eclipse Public License v2.0
which accompanies this distribution, and is available at
http://www.eclipse.org/legal/epl-v20.html
This file may also be made available under the following Secondary
Licenses when the conditions for such availability set forth in the Eclipse
Public License 2.0 are satisfied: GNU General Public License, version 2
or later which is available at
https://www.gnu.org/licenses/old-licenses/gpl-2.0-standalone.html
SPDX-License-Identifier: EPL-2.0 OR GPL-2.0-or-later
<configuration xmlns:xsi="http://www.w3.org/2001/XMLSchema-instance" xsi:noNamespaceSchemaLocation="http://sumo.dlr.de/xsd/netconvertConfiguration.xsd">

    <input>
        <node-files value="input_plain.nod.xml"/>
        <edge-files value="input_plain.edg.xml"/>
        <connection-files value="input_plain.con.xml"/>
    </input>

    <output>
        <write-license value="true"/>
        <output-file value="net.net.xml"/>
        <plain-output-prefix value="plain"/>
    </output>

    <report>
        <xml-validation value="never"/>
    </report>

</configuration>
-->

<edges version="1.16" xmlns:xsi="http://www.w3.org/2001/XMLSchema-instance" xsi:noNamespaceSchemaLocation="http://sumo.dlr.de/xsd/edges_file.xsd">
    <edge id="-T11_0" from="B" to="A" priority="15" numLanes="1" speed="44.44" spreadType="center" allow="rail rail_electric" bidi="T11_0"/>
    <edge id="-T14_0" from="C" to="B" priority="15" numLanes="1" speed="44.44" spreadType="center" allow="rail rail_electric" bidi="T14_0"/>
    <edge id="T11_0" from="A" to="B" priority="15" numLanes="1" speed="44.44" spreadType="center" allow="rail rail_electric" bidi="-T11_0"/>
    <edge id="T14_0" from="B" to="C" priority="15" numLanes="1" speed="44.44" spreadType="center" allow="rail rail_electric" bidi="-T14_0"/>
</edges>
