<routes>
    <route id="r1" edges="In L2 L3 L4 L5 L6 L7 Out"/>
    <route id="r2" edges="In L2 L3 midexit"/>
    <route id="r3" edges="midentry L3 L4 L5 L6 L7 Out"/>
    <route id="r4" edges="midentry L3 midexit"/>
    <vType id="t1" sigma="0" length="5"/>
    <vehicle id="v0" type ="t1" depart="0" route="r1" departSpeed="max" departLane="0">
        <stop lane="L4_0" endPos="1" duration="40"/>
    </vehicle>
    <vehicle id="v1" type ="t1" depart="0" route="r1" departSpeed="max" departLane="1">
        <stop lane="L4_1" endPos="1" duration="40"/>
    </vehicle>
    <vehicle id="v2" type ="t1" depart="2" route="r1" departSpeed="max" departLane="0"/>
</routes>
