<?xml version="1.0" encoding="UTF-8"?>

<!-- generated on 2023-01-06 15:48:51 by Eclipse SUMO netedit Version v1_15_0+1421-e64fb7a
-->

<routes xmlns:xsi="http://www.w3.org/2001/XMLSchema-instance" xsi:noNamespaceSchemaLocation="http://sumo.dlr.de/xsd/routes_file.xsd">
    <!-- Vehicles, persons and containers (sorted by depart) -->
    <flow id="f_0" begin="0.00" departSpeed="avg" end="500" period="exp(0.5)">
        <route edges="NC CS"/>
    </flow>
    <flow id="f_1" begin="0.00" departSpeed="avg" end="500" period="exp(0.1)">
        <route edges="EC CS"/>
    </flow>
</routes>
