<?xml version="1.0" encoding="UTF-8"?>
<routes xmlns:xsi="http://www.w3.org/2001/XMLSchema-instance" xsi:noNamespaceSchemaLocation="http://sumo.dlr.de/xsd/routes_file.xsd">
    <vType id="DEFAULT_VEHTYPE" sigma="0" lcSpeedGainLookahead="10"/>

    <route id="rSE" edges="SC CE"/>
    <route id="rESb" edges="CE SC"/>

    <!--
    <personFlow id="SE" begin="0" end="200" period="10">
        <walk route="rSE"/>
    </personFlow>

    <personFlow id="ESb" begin="0" end="200" period="5">
        <walk route="rESb"/>
    </personFlow>

    -->
    <personFlow id="SE_car" begin="0" period="20" number="2">
        <personTrip from="SC" to="CN" modes="car"/>
    </personFlow>

    <!--
    <vehicle id="v0" depart="0">
        <route edges="SC CN"/>
    </vehicle>
    <vehicle id="v1" depart="10">
        <route edges="SC CN"/>
    </vehicle>
    -->
</routes>
