<?xml version="1.0" encoding="UTF-8"?>

<!-- generated on 2022-06-29 10:07:34 by Eclipse SUMO netconvert Version v1_13_0+1291-82ac0ee5f81
<configuration xmlns:xsi="http://www.w3.org/2001/XMLSchema-instance" xsi:noNamespaceSchemaLocation="http://sumo.dlr.de/xsd/netconvertConfiguration.xsd">

    <input>
        <sumo-net-file value="D:/SUMO/tests/netedit\additionalelements\vaporizer\load/input_net.net.xml"/>
    </input>

    <output>
        <plain-output-prefix value="D:/SUMO/tests/netedit\additionalelements\vaporizer\load/input_net"/>
    </output>

    <processing>
        <geometry.min-radius.fix.railways value="false"/>
        <geometry.max-grade.fix value="false"/>
        <offset.disable-normalization value="true"/>
        <lefthand value="false"/>
    </processing>

    <junctions>
        <no-turnarounds value="true"/>
        <junctions.corner-detail value="5"/>
        <junctions.limit-turn-speed value="5.5"/>
        <rectangular-lane-cut value="false"/>
    </junctions>

    <pedestrian>
        <walkingareas value="false"/>
    </pedestrian>

</configuration>
-->

<tlLogics version="1.9" xmlns:xsi="http://www.w3.org/2001/XMLSchema-instance" xsi:noNamespaceSchemaLocation="http://sumo.dlr.de/xsd/tllogic_file.xsd">
    <tlLogic id="gneJ0" type="static" programID="0" offset="0">
        <phase duration="87" state="G"/>
        <phase duration="3"  state="y"/>
    </tlLogic>
    <tlLogic id="gneJ1" type="static" programID="0" offset="0">
        <phase duration="87" state="G"/>
        <phase duration="3"  state="y"/>
    </tlLogic>

    <connection from="7" to="8" fromLane="0" toLane="0" tl="gneJ0" linkIndex="0"/>
    <connection from="8" to="7" fromLane="0" toLane="0" tl="gneJ1" linkIndex="0"/>
</tlLogics>
