<?xml version="1.0" encoding="UTF-8"?>

<!-- generated on 2022-10-04 13:39:15 by Eclipse SUMO netedit Version v1_14_1+1410-f995fc26d2f
-->

<additional xmlns:xsi="http://www.w3.org/2001/XMLSchema-instance" xsi:noNamespaceSchemaLocation="http://sumo.dlr.de/xsd/additional_file.xsd">
    <!-- StoppingPlaces -->
    <chargingStation id="cs_0" lane="gneE0_0" startPos="16.00" endPos="26.00"/>
    <chargingStation id="custom_ID" lane="gneE0_0" startPos="20.00" endPos="30.00"/>
</additional>
