<routes>

   <vtype id="0" maxspeed="20" length="5.0" accel="0.8" decel="4.5" sigma="0.5"/>

   <route id="always_right">1i 4o 4i 2o 2i 3o 3i 1o 1i</route>
   <vehicle type="0" id="always_right0" depart="0" route="always_right"/>
   <vehicle type="0" id="always_right1" depart="90" route="always_right"/>
   <vehicle type="0" id="always_right2" depart="180" route="always_right"/>
   <vehicle type="0" id="always_right3" depart="270" route="always_right"/>
   <vehicle type="0" id="always_right4" depart="360" route="always_right"/>
   <vehicle type="0" id="always_right5" depart="450" route="always_right"/>
   <vehicle type="0" id="always_right6" depart="540" route="always_right"/>
   <vehicle type="0" id="always_right7" depart="630" route="always_right"/>
   <vehicle type="0" id="always_right8" depart="720" route="always_right"/>
   <vehicle type="0" id="always_right9" depart="810" route="always_right"/>
   <vehicle type="0" id="always_right10" depart="900" route="always_right"/>
   <vehicle type="0" id="always_right11" depart="990" route="always_right"/>
   <vehicle type="0" id="always_right12" depart="1080" route="always_right"/>
   <vehicle type="0" id="always_right13" depart="1170" route="always_right"/>
   <vehicle type="0" id="always_right14" depart="1260" route="always_right"/>
   <vehicle type="0" id="always_right15" depart="1350" route="always_right"/>
   <vehicle type="0" id="always_right16" depart="1440" route="always_right"/>
   <vehicle type="0" id="always_right17" depart="1530" route="always_right"/>
   <vehicle type="0" id="always_right18" depart="1620" route="always_right"/>
   <vehicle type="0" id="always_right19" depart="1710" route="always_right"/>
   <vehicle type="0" id="always_right20" depart="1800" route="always_right"/>
   <vehicle type="0" id="always_right21" depart="1890" route="always_right"/>
   <vehicle type="0" id="always_right22" depart="1980" route="always_right"/>
   <vehicle type="0" id="always_right23" depart="2070" route="always_right"/>
   <vehicle type="0" id="always_right24" depart="2160" route="always_right"/>
   <vehicle type="0" id="always_right25" depart="2250" route="always_right"/>
   <vehicle type="0" id="always_right26" depart="2340" route="always_right"/>
   <vehicle type="0" id="always_right27" depart="2430" route="always_right"/>
   <vehicle type="0" id="always_right28" depart="2520" route="always_right"/>
   <vehicle type="0" id="always_right29" depart="2610" route="always_right"/>
   <vehicle type="0" id="always_right30" depart="2700" route="always_right"/>
   <vehicle type="0" id="always_right31" depart="2790" route="always_right"/>
   <vehicle type="0" id="always_right32" depart="2880" route="always_right"/>
   <vehicle type="0" id="always_right33" depart="2970" route="always_right"/>
   <vehicle type="0" id="always_right34" depart="3060" route="always_right"/>
   <vehicle type="0" id="always_right35" depart="3150" route="always_right"/>
   <vehicle type="0" id="always_right36" depart="3240" route="always_right"/>
   <vehicle type="0" id="always_right37" depart="3330" route="always_right"/>
   <vehicle type="0" id="always_right38" depart="3420" route="always_right"/>
   <vehicle type="0" id="always_right39" depart="3510" route="always_right"/>
   <vehicle type="0" id="always_right40" depart="3600" route="always_right"/>
   <vehicle type="0" id="always_right41" depart="3690" route="always_right"/>
   <vehicle type="0" id="always_right42" depart="3780" route="always_right"/>
   <vehicle type="0" id="always_right43" depart="3870" route="always_right"/>
   <vehicle type="0" id="always_right44" depart="3960" route="always_right"/>
   <vehicle type="0" id="always_right45" depart="4050" route="always_right"/>
   <vehicle type="0" id="always_right46" depart="4140" route="always_right"/>
   <vehicle type="0" id="always_right47" depart="4230" route="always_right"/>
   <vehicle type="0" id="always_right48" depart="4320" route="always_right"/>
   <vehicle type="0" id="always_right49" depart="4410" route="always_right"/>
   <vehicle type="0" id="always_right50" depart="4500" route="always_right"/>
   <vehicle type="0" id="always_right51" depart="4590" route="always_right"/>
   <vehicle type="0" id="always_right52" depart="4680" route="always_right"/>
   <vehicle type="0" id="always_right53" depart="4770" route="always_right"/>
   <vehicle type="0" id="always_right54" depart="4860" route="always_right"/>
   <vehicle type="0" id="always_right55" depart="4950" route="always_right"/>
   <vehicle type="0" id="always_right56" depart="5040" route="always_right"/>
   <vehicle type="0" id="always_right57" depart="5130" route="always_right"/>
   <vehicle type="0" id="always_right58" depart="5220" route="always_right"/>
   <vehicle type="0" id="always_right59" depart="5310" route="always_right"/>
   <vehicle type="0" id="always_right60" depart="5400" route="always_right"/>
   <vehicle type="0" id="always_right61" depart="5490" route="always_right"/>
   <vehicle type="0" id="always_right62" depart="5580" route="always_right"/>
   <vehicle type="0" id="always_right63" depart="5670" route="always_right"/>
   <vehicle type="0" id="always_right64" depart="5760" route="always_right"/>
   <vehicle type="0" id="always_right65" depart="5850" route="always_right"/>
   <vehicle type="0" id="always_right66" depart="5940" route="always_right"/>
   <vehicle type="0" id="always_right67" depart="6030" route="always_right"/>
   <vehicle type="0" id="always_right68" depart="6120" route="always_right"/>
   <vehicle type="0" id="always_right69" depart="6210" route="always_right"/>
   <vehicle type="0" id="always_right70" depart="6300" route="always_right"/>
   <vehicle type="0" id="always_right71" depart="6390" route="always_right"/>
   <vehicle type="0" id="always_right72" depart="6480" route="always_right"/>
   <vehicle type="0" id="always_right73" depart="6570" route="always_right"/>
   <vehicle type="0" id="always_right74" depart="6660" route="always_right"/>
   <vehicle type="0" id="always_right75" depart="6750" route="always_right"/>
   <vehicle type="0" id="always_right76" depart="6840" route="always_right"/>
   <vehicle type="0" id="always_right77" depart="6930" route="always_right"/>
   <vehicle type="0" id="always_right78" depart="7020" route="always_right"/>
   <vehicle type="0" id="always_right79" depart="7110" route="always_right"/>
   <vehicle type="0" id="always_right80" depart="7200" route="always_right"/>
   <vehicle type="0" id="always_right81" depart="7290" route="always_right"/>
   <vehicle type="0" id="always_right82" depart="7380" route="always_right"/>
   <vehicle type="0" id="always_right83" depart="7470" route="always_right"/>
   <vehicle type="0" id="always_right84" depart="7560" route="always_right"/>
   <vehicle type="0" id="always_right85" depart="7650" route="always_right"/>
   <vehicle type="0" id="always_right86" depart="7740" route="always_right"/>
   <vehicle type="0" id="always_right87" depart="7830" route="always_right"/>
   <vehicle type="0" id="always_right88" depart="7920" route="always_right"/>
   <vehicle type="0" id="always_right89" depart="8010" route="always_right"/>
   <vehicle type="0" id="always_right90" depart="8100" route="always_right"/>
   <vehicle type="0" id="always_right91" depart="8190" route="always_right"/>
   <vehicle type="0" id="always_right92" depart="8280" route="always_right"/>
   <vehicle type="0" id="always_right93" depart="8370" route="always_right"/>
   <vehicle type="0" id="always_right94" depart="8460" route="always_right"/>
   <vehicle type="0" id="always_right95" depart="8550" route="always_right"/>
   <vehicle type="0" id="always_right96" depart="8640" route="always_right"/>
   <vehicle type="0" id="always_right97" depart="8730" route="always_right"/>
   <vehicle type="0" id="always_right98" depart="8820" route="always_right"/>
   <vehicle type="0" id="always_right99" depart="8910" route="always_right"/>
   <vehicle type="0" id="always_right100" depart="9000" route="always_right"/>
   <vehicle type="0" id="always_right101" depart="9090" route="always_right"/>
   <vehicle type="0" id="always_right102" depart="9180" route="always_right"/>
   <vehicle type="0" id="always_right103" depart="9270" route="always_right"/>
   <vehicle type="0" id="always_right104" depart="9360" route="always_right"/>
   <vehicle type="0" id="always_right105" depart="9450" route="always_right"/>
   <vehicle type="0" id="always_right106" depart="9540" route="always_right"/>
   <vehicle type="0" id="always_right107" depart="9630" route="always_right"/>
   <vehicle type="0" id="always_right108" depart="9720" route="always_right"/>
   <vehicle type="0" id="always_right109" depart="9810" route="always_right"/>
   <vehicle type="0" id="always_right110" depart="9900" route="always_right"/>
   <vehicle type="0" id="always_right111" depart="9990" route="always_right"/>
   <vehicle type="0" id="always_right112" depart="10080" route="always_right"/>
   <vehicle type="0" id="always_right113" depart="10170" route="always_right"/>
   <vehicle type="0" id="always_right114" depart="10260" route="always_right"/>
   <vehicle type="0" id="always_right115" depart="10350" route="always_right"/>
   <vehicle type="0" id="always_right116" depart="10440" route="always_right"/>
   <vehicle type="0" id="always_right117" depart="10530" route="always_right"/>
   <vehicle type="0" id="always_right118" depart="10620" route="always_right"/>
   <vehicle type="0" id="always_right119" depart="10710" route="always_right"/>
   <vehicle type="0" id="always_right120" depart="10800" route="always_right"/>
   <vehicle type="0" id="always_right121" depart="10890" route="always_right"/>
   <vehicle type="0" id="always_right122" depart="10980" route="always_right"/>
   <vehicle type="0" id="always_right123" depart="11070" route="always_right"/>
   <vehicle type="0" id="always_right124" depart="11160" route="always_right"/>
   <vehicle type="0" id="always_right125" depart="11250" route="always_right"/>
   <vehicle type="0" id="always_right126" depart="11340" route="always_right"/>
   <vehicle type="0" id="always_right127" depart="11430" route="always_right"/>
   <vehicle type="0" id="always_right128" depart="11520" route="always_right"/>
   <vehicle type="0" id="always_right129" depart="11610" route="always_right"/>
   <vehicle type="0" id="always_right130" depart="11700" route="always_right"/>
   <vehicle type="0" id="always_right131" depart="11790" route="always_right"/>
   <vehicle type="0" id="always_right132" depart="11880" route="always_right"/>
   <vehicle type="0" id="always_right133" depart="11970" route="always_right"/>
   <vehicle type="0" id="always_right134" depart="12060" route="always_right"/>
   <vehicle type="0" id="always_right135" depart="12150" route="always_right"/>
   <vehicle type="0" id="always_right136" depart="12240" route="always_right"/>
   <vehicle type="0" id="always_right137" depart="12330" route="always_right"/>
   <vehicle type="0" id="always_right138" depart="12420" route="always_right"/>
   <vehicle type="0" id="always_right139" depart="12510" route="always_right"/>
   <vehicle type="0" id="always_right140" depart="12600" route="always_right"/>
   <vehicle type="0" id="always_right141" depart="12690" route="always_right"/>
   <vehicle type="0" id="always_right142" depart="12780" route="always_right"/>
   <vehicle type="0" id="always_right143" depart="12870" route="always_right"/>
   <vehicle type="0" id="always_right144" depart="12960" route="always_right"/>
   <vehicle type="0" id="always_right145" depart="13050" route="always_right"/>
   <vehicle type="0" id="always_right146" depart="13140" route="always_right"/>
   <vehicle type="0" id="always_right147" depart="13230" route="always_right"/>
   <vehicle type="0" id="always_right148" depart="13320" route="always_right"/>
   <vehicle type="0" id="always_right149" depart="13410" route="always_right"/>
   <vehicle type="0" id="always_right150" depart="13500" route="always_right"/>
   <vehicle type="0" id="always_right151" depart="13590" route="always_right"/>
   <vehicle type="0" id="always_right152" depart="13680" route="always_right"/>
   <vehicle type="0" id="always_right153" depart="13770" route="always_right"/>
   <vehicle type="0" id="always_right154" depart="13860" route="always_right"/>
   <vehicle type="0" id="always_right155" depart="13950" route="always_right"/>
   <vehicle type="0" id="always_right156" depart="14040" route="always_right"/>
   <vehicle type="0" id="always_right157" depart="14130" route="always_right"/>
   <vehicle type="0" id="always_right158" depart="14220" route="always_right"/>
   <vehicle type="0" id="always_right159" depart="14310" route="always_right"/>
   <vehicle type="0" id="always_right160" depart="14400" route="always_right"/>
   <vehicle type="0" id="always_right161" depart="14490" route="always_right"/>
   <vehicle type="0" id="always_right162" depart="14580" route="always_right"/>
   <vehicle type="0" id="always_right163" depart="14670" route="always_right"/>
   <vehicle type="0" id="always_right164" depart="14760" route="always_right"/>
   <vehicle type="0" id="always_right165" depart="14850" route="always_right"/>
   <vehicle type="0" id="always_right166" depart="14940" route="always_right"/>
   <vehicle type="0" id="always_right167" depart="15030" route="always_right"/>
   <vehicle type="0" id="always_right168" depart="15120" route="always_right"/>
   <vehicle type="0" id="always_right169" depart="15210" route="always_right"/>
   <vehicle type="0" id="always_right170" depart="15300" route="always_right"/>
   <vehicle type="0" id="always_right171" depart="15390" route="always_right"/>
   <vehicle type="0" id="always_right172" depart="15480" route="always_right"/>
   <vehicle type="0" id="always_right173" depart="15570" route="always_right"/>
   <vehicle type="0" id="always_right174" depart="15660" route="always_right"/>
   <vehicle type="0" id="always_right175" depart="15750" route="always_right"/>
   <vehicle type="0" id="always_right176" depart="15840" route="always_right"/>
   <vehicle type="0" id="always_right177" depart="15930" route="always_right"/>
   <vehicle type="0" id="always_right178" depart="16020" route="always_right"/>
   <vehicle type="0" id="always_right179" depart="16110" route="always_right"/>
   <vehicle type="0" id="always_right180" depart="16200" route="always_right"/>
   <vehicle type="0" id="always_right181" depart="16290" route="always_right"/>
   <vehicle type="0" id="always_right182" depart="16380" route="always_right"/>
   <vehicle type="0" id="always_right183" depart="16470" route="always_right"/>
   <vehicle type="0" id="always_right184" depart="16560" route="always_right"/>
   <vehicle type="0" id="always_right185" depart="16650" route="always_right"/>
   <vehicle type="0" id="always_right186" depart="16740" route="always_right"/>
   <vehicle type="0" id="always_right187" depart="16830" route="always_right"/>
   <vehicle type="0" id="always_right188" depart="16920" route="always_right"/>
   <vehicle type="0" id="always_right189" depart="17010" route="always_right"/>
   <vehicle type="0" id="always_right190" depart="17100" route="always_right"/>
   <vehicle type="0" id="always_right191" depart="17190" route="always_right"/>
   <vehicle type="0" id="always_right192" depart="17280" route="always_right"/>
   <vehicle type="0" id="always_right193" depart="17370" route="always_right"/>
   <vehicle type="0" id="always_right194" depart="17460" route="always_right"/>
   <vehicle type="0" id="always_right195" depart="17550" route="always_right"/>
   <vehicle type="0" id="always_right196" depart="17640" route="always_right"/>
   <vehicle type="0" id="always_right197" depart="17730" route="always_right"/>
   <vehicle type="0" id="always_right198" depart="17820" route="always_right"/>
   <vehicle type="0" id="always_right199" depart="17910" route="always_right"/>
   <vehicle type="0" id="always_right200" depart="18000" route="always_right"/>
   <vehicle type="0" id="always_right201" depart="18090" route="always_right"/>
   <vehicle type="0" id="always_right202" depart="18180" route="always_right"/>
   <vehicle type="0" id="always_right203" depart="18270" route="always_right"/>
   <vehicle type="0" id="always_right204" depart="18360" route="always_right"/>
   <vehicle type="0" id="always_right205" depart="18450" route="always_right"/>
   <vehicle type="0" id="always_right206" depart="18540" route="always_right"/>
   <vehicle type="0" id="always_right207" depart="18630" route="always_right"/>
   <vehicle type="0" id="always_right208" depart="18720" route="always_right"/>
   <vehicle type="0" id="always_right209" depart="18810" route="always_right"/>
   <vehicle type="0" id="always_right210" depart="18900" route="always_right"/>
   <vehicle type="0" id="always_right211" depart="18990" route="always_right"/>
   <vehicle type="0" id="always_right212" depart="19080" route="always_right"/>
   <vehicle type="0" id="always_right213" depart="19170" route="always_right"/>
   <vehicle type="0" id="always_right214" depart="19260" route="always_right"/>
   <vehicle type="0" id="always_right215" depart="19350" route="always_right"/>
   <vehicle type="0" id="always_right216" depart="19440" route="always_right"/>
   <vehicle type="0" id="always_right217" depart="19530" route="always_right"/>
   <vehicle type="0" id="always_right218" depart="19620" route="always_right"/>
   <vehicle type="0" id="always_right219" depart="19710" route="always_right"/>
   <vehicle type="0" id="always_right220" depart="19800" route="always_right"/>
   <vehicle type="0" id="always_right221" depart="19890" route="always_right"/>
   <vehicle type="0" id="always_right222" depart="19980" route="always_right"/>
   <vehicle type="0" id="always_right223" depart="20070" route="always_right"/>
   <vehicle type="0" id="always_right224" depart="20160" route="always_right"/>
   <vehicle type="0" id="always_right225" depart="20250" route="always_right"/>
   <vehicle type="0" id="always_right226" depart="20340" route="always_right"/>
   <vehicle type="0" id="always_right227" depart="20430" route="always_right"/>
   <vehicle type="0" id="always_right228" depart="20520" route="always_right"/>
   <vehicle type="0" id="always_right229" depart="20610" route="always_right"/>
   <vehicle type="0" id="always_right230" depart="20700" route="always_right"/>
   <vehicle type="0" id="always_right231" depart="20790" route="always_right"/>
   <vehicle type="0" id="always_right232" depart="20880" route="always_right"/>
   <vehicle type="0" id="always_right233" depart="20970" route="always_right"/>
   <vehicle type="0" id="always_right234" depart="21060" route="always_right"/>
   <vehicle type="0" id="always_right235" depart="21150" route="always_right"/>
   <vehicle type="0" id="always_right236" depart="21240" route="always_right"/>
   <vehicle type="0" id="always_right237" depart="21330" route="always_right"/>
   <vehicle type="0" id="always_right238" depart="21420" route="always_right"/>
   <vehicle type="0" id="always_right239" depart="21510" route="always_right"/>
   <vehicle type="0" id="always_right240" depart="21600" route="always_right"/>
   <vehicle type="0" id="always_right241" depart="21690" route="always_right"/>
   <vehicle type="0" id="always_right242" depart="21780" route="always_right"/>
   <vehicle type="0" id="always_right243" depart="21870" route="always_right"/>
   <vehicle type="0" id="always_right244" depart="21960" route="always_right"/>
   <vehicle type="0" id="always_right245" depart="22050" route="always_right"/>
   <vehicle type="0" id="always_right246" depart="22140" route="always_right"/>
   <vehicle type="0" id="always_right247" depart="22230" route="always_right"/>
   <vehicle type="0" id="always_right248" depart="22320" route="always_right"/>
   <vehicle type="0" id="always_right249" depart="22410" route="always_right"/>
   <vehicle type="0" id="always_right250" depart="22500" route="always_right"/>
   <vehicle type="0" id="always_right251" depart="22590" route="always_right"/>
   <vehicle type="0" id="always_right252" depart="22680" route="always_right"/>
   <vehicle type="0" id="always_right253" depart="22770" route="always_right"/>
   <vehicle type="0" id="always_right254" depart="22860" route="always_right"/>
   <vehicle type="0" id="always_right255" depart="22950" route="always_right"/>
   <vehicle type="0" id="always_right256" depart="23040" route="always_right"/>
   <vehicle type="0" id="always_right257" depart="23130" route="always_right"/>
   <vehicle type="0" id="always_right258" depart="23220" route="always_right"/>
   <vehicle type="0" id="always_right259" depart="23310" route="always_right"/>
   <vehicle type="0" id="always_right260" depart="23400" route="always_right"/>
   <vehicle type="0" id="always_right261" depart="23490" route="always_right"/>
   <vehicle type="0" id="always_right262" depart="23580" route="always_right"/>
   <vehicle type="0" id="always_right263" depart="23670" route="always_right"/>
   <vehicle type="0" id="always_right264" depart="23760" route="always_right"/>
   <vehicle type="0" id="always_right265" depart="23850" route="always_right"/>
   <vehicle type="0" id="always_right266" depart="23940" route="always_right"/>
   <vehicle type="0" id="always_right267" depart="24030" route="always_right"/>
   <vehicle type="0" id="always_right268" depart="24120" route="always_right"/>
   <vehicle type="0" id="always_right269" depart="24210" route="always_right"/>
   <vehicle type="0" id="always_right270" depart="24300" route="always_right"/>
   <vehicle type="0" id="always_right271" depart="24390" route="always_right"/>
   <vehicle type="0" id="always_right272" depart="24480" route="always_right"/>
   <vehicle type="0" id="always_right273" depart="24570" route="always_right"/>
   <vehicle type="0" id="always_right274" depart="24660" route="always_right"/>
   <vehicle type="0" id="always_right275" depart="24750" route="always_right"/>
   <vehicle type="0" id="always_right276" depart="24840" route="always_right"/>
   <vehicle type="0" id="always_right277" depart="24930" route="always_right"/>
   <vehicle type="0" id="always_right278" depart="25020" route="always_right"/>
   <vehicle type="0" id="always_right279" depart="25110" route="always_right"/>
   <vehicle type="0" id="always_right280" depart="25200" route="always_right"/>
   <vehicle type="0" id="always_right281" depart="25290" route="always_right"/>
   <vehicle type="0" id="always_right282" depart="25380" route="always_right"/>
   <vehicle type="0" id="always_right283" depart="25470" route="always_right"/>
   <vehicle type="0" id="always_right284" depart="25560" route="always_right"/>
   <vehicle type="0" id="always_right285" depart="25650" route="always_right"/>
   <vehicle type="0" id="always_right286" depart="25740" route="always_right"/>
   <vehicle type="0" id="always_right287" depart="25830" route="always_right"/>
   <vehicle type="0" id="always_right288" depart="25920" route="always_right"/>
   <vehicle type="0" id="always_right289" depart="26010" route="always_right"/>
   <vehicle type="0" id="always_right290" depart="26100" route="always_right"/>
   <vehicle type="0" id="always_right291" depart="26190" route="always_right"/>
   <vehicle type="0" id="always_right292" depart="26280" route="always_right"/>
   <vehicle type="0" id="always_right293" depart="26370" route="always_right"/>
   <vehicle type="0" id="always_right294" depart="26460" route="always_right"/>
   <vehicle type="0" id="always_right295" depart="26550" route="always_right"/>
   <vehicle type="0" id="always_right296" depart="26640" route="always_right"/>
   <vehicle type="0" id="always_right297" depart="26730" route="always_right"/>
   <vehicle type="0" id="always_right298" depart="26820" route="always_right"/>
   <vehicle type="0" id="always_right299" depart="26910" route="always_right"/>
   <vehicle type="0" id="always_right300" depart="27000" route="always_right"/>
   <vehicle type="0" id="always_right301" depart="27090" route="always_right"/>
   <vehicle type="0" id="always_right302" depart="27180" route="always_right"/>
   <vehicle type="0" id="always_right303" depart="27270" route="always_right"/>
   <vehicle type="0" id="always_right304" depart="27360" route="always_right"/>
   <vehicle type="0" id="always_right305" depart="27450" route="always_right"/>
   <vehicle type="0" id="always_right306" depart="27540" route="always_right"/>
   <vehicle type="0" id="always_right307" depart="27630" route="always_right"/>
   <vehicle type="0" id="always_right308" depart="27720" route="always_right"/>
   <vehicle type="0" id="always_right309" depart="27810" route="always_right"/>
   <vehicle type="0" id="always_right310" depart="27900" route="always_right"/>
   <vehicle type="0" id="always_right311" depart="27990" route="always_right"/>
   <vehicle type="0" id="always_right312" depart="28080" route="always_right"/>
   <vehicle type="0" id="always_right313" depart="28170" route="always_right"/>
   <vehicle type="0" id="always_right314" depart="28260" route="always_right"/>
   <vehicle type="0" id="always_right315" depart="28350" route="always_right"/>
   <vehicle type="0" id="always_right316" depart="28440" route="always_right"/>
   <vehicle type="0" id="always_right317" depart="28530" route="always_right"/>
   <vehicle type="0" id="always_right318" depart="28620" route="always_right"/>
   <vehicle type="0" id="always_right319" depart="28710" route="always_right"/>
   <vehicle type="0" id="always_right320" depart="28800" route="always_right"/>
   <vehicle type="0" id="always_right321" depart="28890" route="always_right"/>
   <vehicle type="0" id="always_right322" depart="28980" route="always_right"/>
   <vehicle type="0" id="always_right323" depart="29070" route="always_right"/>
   <vehicle type="0" id="always_right324" depart="29160" route="always_right"/>
   <vehicle type="0" id="always_right325" depart="29250" route="always_right"/>
   <vehicle type="0" id="always_right326" depart="29340" route="always_right"/>
   <vehicle type="0" id="always_right327" depart="29430" route="always_right"/>
   <vehicle type="0" id="always_right328" depart="29520" route="always_right"/>
   <vehicle type="0" id="always_right329" depart="29610" route="always_right"/>
   <vehicle type="0" id="always_right330" depart="29700" route="always_right"/>
   <vehicle type="0" id="always_right331" depart="29790" route="always_right"/>
   <vehicle type="0" id="always_right332" depart="29880" route="always_right"/>
   <vehicle type="0" id="always_right333" depart="29970" route="always_right"/>
   <vehicle type="0" id="always_right334" depart="30060" route="always_right"/>
   <vehicle type="0" id="always_right335" depart="30150" route="always_right"/>
   <vehicle type="0" id="always_right336" depart="30240" route="always_right"/>
   <vehicle type="0" id="always_right337" depart="30330" route="always_right"/>
   <vehicle type="0" id="always_right338" depart="30420" route="always_right"/>
   <vehicle type="0" id="always_right339" depart="30510" route="always_right"/>
   <vehicle type="0" id="always_right340" depart="30600" route="always_right"/>
   <vehicle type="0" id="always_right341" depart="30690" route="always_right"/>
   <vehicle type="0" id="always_right342" depart="30780" route="always_right"/>
   <vehicle type="0" id="always_right343" depart="30870" route="always_right"/>
   <vehicle type="0" id="always_right344" depart="30960" route="always_right"/>
   <vehicle type="0" id="always_right345" depart="31050" route="always_right"/>
   <vehicle type="0" id="always_right346" depart="31140" route="always_right"/>
   <vehicle type="0" id="always_right347" depart="31230" route="always_right"/>
   <vehicle type="0" id="always_right348" depart="31320" route="always_right"/>
   <vehicle type="0" id="always_right349" depart="31410" route="always_right"/>
   <vehicle type="0" id="always_right350" depart="31500" route="always_right"/>
   <vehicle type="0" id="always_right351" depart="31590" route="always_right"/>
   <vehicle type="0" id="always_right352" depart="31680" route="always_right"/>
   <vehicle type="0" id="always_right353" depart="31770" route="always_right"/>
   <vehicle type="0" id="always_right354" depart="31860" route="always_right"/>
   <vehicle type="0" id="always_right355" depart="31950" route="always_right"/>
   <vehicle type="0" id="always_right356" depart="32040" route="always_right"/>
   <vehicle type="0" id="always_right357" depart="32130" route="always_right"/>
   <vehicle type="0" id="always_right358" depart="32220" route="always_right"/>
   <vehicle type="0" id="always_right359" depart="32310" route="always_right"/>
   <vehicle type="0" id="always_right360" depart="32400" route="always_right"/>
   <vehicle type="0" id="always_right361" depart="32490" route="always_right"/>
   <vehicle type="0" id="always_right362" depart="32580" route="always_right"/>
   <vehicle type="0" id="always_right363" depart="32670" route="always_right"/>
   <vehicle type="0" id="always_right364" depart="32760" route="always_right"/>
   <vehicle type="0" id="always_right365" depart="32850" route="always_right"/>
   <vehicle type="0" id="always_right366" depart="32940" route="always_right"/>
   <vehicle type="0" id="always_right367" depart="33030" route="always_right"/>
   <vehicle type="0" id="always_right368" depart="33120" route="always_right"/>
   <vehicle type="0" id="always_right369" depart="33210" route="always_right"/>
   <vehicle type="0" id="always_right370" depart="33300" route="always_right"/>
   <vehicle type="0" id="always_right371" depart="33390" route="always_right"/>
   <vehicle type="0" id="always_right372" depart="33480" route="always_right"/>
   <vehicle type="0" id="always_right373" depart="33570" route="always_right"/>
   <vehicle type="0" id="always_right374" depart="33660" route="always_right"/>
   <vehicle type="0" id="always_right375" depart="33750" route="always_right"/>