<?xml version="1.0" encoding="UTF-8"?>

<!-- generated on 2024-02-29 13:56:03 by Eclipse SUMO netconvert Version v1_19_0+1092-a49a04372af
This data file and the accompanying materials
are made available under the terms of the Eclipse Public License v2.0
which accompanies this distribution, and is available at
http://www.eclipse.org/legal/epl-v20.html
This file may also be made available under the following Secondary
Licenses when the conditions for such availability set forth in the Eclipse
Public License 2.0 are satisfied: GNU General Public License, version 2
or later which is available at
https://www.gnu.org/licenses/old-licenses/gpl-2.0-standalone.html
SPDX-License-Identifier: EPL-2.0 OR GPL-2.0-or-later
<configuration xmlns:xsi="http://www.w3.org/2001/XMLSchema-instance" xsi:noNamespaceSchemaLocation="http://sumo.dlr.de/xsd/netconvertConfiguration.xsd">

    <input>
        <vissim-file value="vissim.inp"/>
    </input>

    <output>
        <write-license value="true"/>
        <output-file value="net.net.xml"/>
        <plain-output-prefix value="plain"/>
        <output.street-names value="true"/>
    </output>

    <processing>
        <geometry.junction-mismatch-threshold value="100"/>
        <edges.join value="true"/>
    </processing>

    <report>
        <verbose value="true"/>
        <xml-validation value="never"/>
    </report>

</configuration>
-->

<connections version="1.20" xmlns:xsi="http://www.w3.org/2001/XMLSchema-instance" xsi:noNamespaceSchemaLocation="http://sumo.dlr.de/xsd/connections_file.xsd">
    <connection from="1" to="2" fromLane="0" toLane="0"/>
    <connection from="1" to="2" fromLane="1" toLane="1"/>
    <connection from="1" to="4" fromLane="2" toLane="0"/>

    <connection from="10" to="7" fromLane="0" toLane="0"/>

    <connection from="2" to="8" fromLane="0" toLane="1"/>
    <connection from="2" to="8" fromLane="1" toLane="2"/>

    <connection from="3" to="6" fromLane="0" toLane="1"/>
    <connection from="3" to="6" fromLane="1" toLane="2"/>
    <connection from="3" to="6" fromLane="2" toLane="3"/>

    <connection from="4" to="6" fromLane="0" toLane="0"/>

    <connection from="6" to="5" fromLane="1" toLane="0"/>
    <connection from="6" to="5" fromLane="2" toLane="1"/>
    <connection from="6" to="5" fromLane="3" toLane="2"/>

    <connection from="7" to="3" fromLane="0" toLane="0"/>
    <connection from="7" to="3" fromLane="1" toLane="1"/>
    <connection from="7" to="3" fromLane="2" toLane="2"/>

    <connection from="9" to="1" fromLane="0" toLane="2"/>

</connections>
