<?xml version="1.0" encoding="UTF-8"?>

<!-- generated on 28.11.2018 14:44:14 by Eclipse SUMO netedit Version v1_0_0+1123-7e66fbd65e
<configuration xmlns:xsi="http://www.w3.org/2001/XMLSchema-instance" xsi:noNamespaceSchemaLocation="https://sumo.dlr.de/xsd/netconvertConfiguration.xsd">

    <input>
        <sumo-net-file value="C:/Users/alva_pa/.texttest/tmp/netedit.gui.3_from_28Nov142137.9656/netedit.gui/additionalElements/lanecalibrator/inspect/id\input_net.net.xml"/>
    </input>

    <output>
        <output-file value="C:/Users/alva_pa/.texttest/tmp/netedit.gui.3_from_28Nov142137.9656/netedit.gui/additionalElements/lanecalibrator/inspect/id\net.net.xml"/>
    </output>

    <processing>
        <offset.disable-normalization value="true"/>
        <lefthand value="false"/>
    </processing>

    <junctions>
        <no-turnarounds value="true"/>
        <junctions.corner-detail value="5"/>
        <junctions.limit-turn-speed value="5.5"/>
        <rectangular-lane-cut value="false"/>
    </junctions>

    <pedestrian>
        <walkingareas value="false"/>
    </pedestrian>

    <netedit>
        <additionals-output value="C:/Users/alva_pa/.texttest/tmp/netedit.gui.3_from_28Nov142137.9656/netedit.gui/additionalElements/lanecalibrator/inspect/id\additionals.xml"/>
        <shapes-output value="C:/Users/alva_pa/.texttest/tmp/netedit.gui.3_from_28Nov142137.9656/netedit.gui/additionalElements/lanecalibrator/inspect/id\shapes.xml"/>
    </netedit>

    <visualisation>
        <gui-settings-file value="C:/Users/alva_pa/.texttest/tmp/netedit.gui.3_from_28Nov142137.9656/netedit.gui/additionalElements/lanecalibrator/inspect/id\gui-settings.xml"/>
        <window-size value="700,500"/>
        <window-pos value="50,50"/>
        <gui-testing value="true"/>
        <gui-testing-debug value="true"/>
        <gui-testing-debug-gl value="true"/>
    </visualisation>

    <report>
        <no-warnings value="true"/>
        <error-log value="C:/Users/alva_pa/.texttest/tmp/netedit.gui.3_from_28Nov142137.9656/netedit.gui/additionalElements/lanecalibrator/inspect/id\log.txt"/>
    </report>

</configuration>
-->

<additional xmlns:xsi="http://www.w3.org/2001/XMLSchema-instance" xsi:noNamespaceSchemaLocation="https://sumo.dlr.de/xsd/additional_file.xsd">
    <calibrator id="correctID" lane="gneE2_1" pos="1.00"/>
    <calibrator id="laneCalibrator_gneE3_1_0" lane="gneE3_1" pos="33.00"/>
</additional>
