<?xml version="1.0" encoding="UTF-8"?>

<!-- generated on 2022-10-27 20:21:34.100246 by routeSampler.py v1_14_1+2036-c3c3278
<configuration>
    <route-files value="input_routes.rou.xml"/>
    <total-count value="20"/>
    <turn-attribute value="None"/>
    <turn-files value="input_turns.xml"/>
    <turn-ratio-attribute value="ratio"/>
    <write-flows value="number"/>
</configuration>
-->

<routes xmlns:xsi="http://www.w3.org/2001/XMLSchema-instance" xsi:noNamespaceSchemaLocation="http://sumo.dlr.de/xsd/routes_file.xsd">
<!-- begin="0.0" end="3600.0" -->
    <flow id="2" begin="0.00" end="3240.00" number="10">
        <route edges="3 3.180.00 27"/>
    </flow>
    <flow id="1" begin="180.00" end="2340.00" number="7">
        <route edges="3 3.180.00 -71"/>
    </flow>
    <flow id="0" begin="2160.00" end="3420.00" number="3">
        <route edges="3 3.180.00 -3"/>
    </flow>
</routes>
