<?xml version="1.0" encoding="UTF-8"?>

<!-- generated on 2023-06-07 19:13:45.688732 by routeSampler.py v1_17_0+0809-16ac9524e56
<configuration>
    <route-files value="input_routes.rou.xml"/>
    <turn-files value="input_turns.xml"/>
    <turn-attribute value="None"/>
    <turn-ratio-attribute value="ratio"/>
    <total-count value="20"/>
    <write-flows value="number"/>
</configuration>
-->

<routes xmlns:xsi="http://www.w3.org/2001/XMLSchema-instance" xsi:noNamespaceSchemaLocation="http://sumo.dlr.de/xsd/routes_file.xsd">
<!-- begin="0.0" end="3600.0" -->
    <flow id="0" begin="0.00" end="2520.00" number="5">
        <route edges="3 3.180.00 -3"/>
    </flow>
    <flow id="2" begin="180.00" end="3420.00" number="9">
        <route edges="3 3.180.00 27"/>
    </flow>
    <flow id="1" begin="900.00" end="3060.00" number="6">
        <route edges="3 3.180.00 -71"/>
    </flow>
</routes>
