<routes>

	<vType sigma="0" id="t1" vmax="70"/>
	<vehicle id="1" depart="0" route="1" departSpeed="max"/>

</routes>
