<?xml version="1.0" encoding="UTF-8"?>

<!-- generated on 07.09.2020 14:49:03 by Eclipse SUMO netedit Version v1_6_0+2013-27eec12fcb
<configuration xmlns:xsi="http://www.w3.org/2001/XMLSchema-instance" xsi:noNamespaceSchemaLocation="http://sumo.dlr.de/xsd/netconvertConfiguration.xsd">

    <input>
        <sumo-net-file value="C:\Users\alva_pa\.texttest\tmp\netedit.gui.07Sep144340.17112\netedit.gui\demandElements\flow_embedded\load\departPosLat\input_net.net.xml"/>
    </input>

    <output>
        <output-file value="C:\Users\alva_pa\.texttest\tmp\netedit.gui.07Sep144340.17112\netedit.gui\demandElements\flow_embedded\load\departPosLat\net.net.xml"/>
    </output>

    <processing>
        <geometry.min-radius.fix.railways value="false"/>
        <geometry.max-grade.fix value="false"/>
        <offset.disable-normalization value="true"/>
        <lefthand value="false"/>
    </processing>

    <junctions>
        <no-turnarounds value="true"/>
        <junctions.corner-detail value="5"/>
        <junctions.limit-turn-speed value="5.5"/>
        <rectangular-lane-cut value="false"/>
    </junctions>

    <pedestrian>
        <walkingareas value="false"/>
    </pedestrian>

    <netedit>
        <additional-files value="C:\Users\alva_pa\.texttest\tmp\netedit.gui.07Sep144340.17112\netedit.gui\demandElements\flow_embedded\load\departPosLat\additionals.xml"/>
        <additionals-output value="C:\Users\alva_pa\.texttest\tmp\netedit.gui.07Sep144340.17112\netedit.gui\demandElements\flow_embedded\load\departPosLat\additionals.xml"/>
        <route-files value="C:\Users\alva_pa\.texttest\tmp\netedit.gui.07Sep144340.17112\netedit.gui\demandElements\flow_embedded\load\departPosLat\routes.xml"/>
        <demandelements-output value="C:\Users\alva_pa\.texttest\tmp\netedit.gui.07Sep144340.17112\netedit.gui\demandElements\flow_embedded\load\departPosLat\routes.xml"/>
        <data-files value="C:\Users\alva_pa\.texttest\tmp\netedit.gui.07Sep144340.17112\netedit.gui\demandElements\flow_embedded\load\departPosLat\datas.xml"/>
        <dataelements-output value="C:\Users\alva_pa\.texttest\tmp\netedit.gui.07Sep144340.17112\netedit.gui\demandElements\flow_embedded\load\departPosLat\datas.xml"/>
    </netedit>

    <visualisation>
        <gui-settings-file value="C:\Users\alva_pa\.texttest\tmp\netedit.gui.07Sep144340.17112\netedit.gui\demandElements\flow_embedded\load\departPosLat\gui-settings.xml"/>
        <window-size value="700,500"/>
        <window-pos value="50,50"/>
        <gui-testing value="true"/>
        <gui-testing-debug value="true"/>
        <gui-testing-debug-gl value="true"/>
        <gui-testing.setting-output value="C:\Users\alva_pa\.texttest\tmp\netedit.gui.07Sep144340.17112\netedit.gui\demandElements\flow_embedded\load\departPosLat\guisettingsoutput.xml"/>
    </visualisation>

    <report>
        <no-warnings value="true"/>
        <aggregate-warnings value="5"/>
        <error-log value="C:\Users\alva_pa\.texttest\tmp\netedit.gui.07Sep144340.17112\netedit.gui\demandElements\flow_embedded\load\departPosLat\log.txt"/>
    </report>

</configuration>
-->

<routes xmlns:xsi="http://www.w3.org/2001/XMLSchema-instance" xsi:noNamespaceSchemaLocation="http://sumo.dlr.de/xsd/routes_file.xsd">
    <flow id="flow_0" begin="20.00" end="50.00" number="100">
        <route edges="gneE2 gneE4 gneE5" color="cyan"/>
    </flow>
    <flow id="flow_1" begin="20.00" departPosLat="0.00" end="50.00" number="100">
        <route edges="gneE2 gneE4 gneE5" color="cyan"/>
    </flow>
    <flow id="flow_10" begin="20.00" departPosLat="center" end="50.00" number="100">
        <route edges="gneE2 gneE4 gneE5" color="cyan"/>
    </flow>
    <flow id="flow_2" begin="20.00" departPosLat="0.00" end="50.00" number="100">
        <route edges="gneE2 gneE4 gneE5" color="cyan"/>
    </flow>
    <flow id="flow_3" begin="20.00" departPosLat="0.00" end="50.00" number="100">
        <route edges="gneE2 gneE4 gneE5" color="cyan"/>
    </flow>
    <flow id="flow_4" begin="20.00" departPosLat="0.00" end="50.00" number="100">
        <route edges="gneE2 gneE4 gneE5" color="cyan"/>
    </flow>
    <flow id="flow_5" begin="20.00" departPosLat="random" end="50.00" number="100">
        <route edges="gneE2 gneE4 gneE5" color="cyan"/>
    </flow>
    <flow id="flow_6" begin="20.00" departPosLat="free" end="50.00" number="100">
        <route edges="gneE2 gneE4 gneE5" color="cyan"/>
    </flow>
    <flow id="flow_7" begin="20.00" departPosLat="random_free" end="50.00" number="100">
        <route edges="gneE2 gneE4 gneE5" color="cyan"/>
    </flow>
    <flow id="flow_8" begin="20.00" departPosLat="left" end="50.00" number="100">
        <route edges="gneE2 gneE4 gneE5" color="cyan"/>
    </flow>
    <flow id="flow_9" begin="20.00" departPosLat="right" end="50.00" number="100">
        <route edges="gneE2 gneE4 gneE5" color="cyan"/>
    </flow>
</routes>
