<?xml version="1.0" encoding="UTF-8"?>

<!-- generated on Fri Nov  7 09:10:45 2014 by SUMO duarouter Version dev-SVN-r17271ID
<?xml version="1.0" encoding="UTF-8"?>

<configuration xmlns:xsi="http://www.w3.org/2001/XMLSchema-instance" xsi:noNamespaceSchemaLocation="http://sumo.dlr.de/xsd/duarouterConfiguration.xsd">

    <input>
        <net-file value="input_net.net.xml"/>
        <flow-files value="input_flows.flows.xml"/>
    </input>

    <output>
        <output-file value="routes.rou.xml"/>
    </output>

    <report>
        <xml-validation value="never"/>
        <no-step-log value="true"/>
    </report>

</configuration>
-->

<routes xmlns:xsi="http://www.w3.org/2001/XMLSchema-instance" xsi:noNamespaceSchemaLocation="http://sumo.dlr.de/xsd/routes_file.xsd">
    <vehicle id="0.0" depart="2.00">
        <route edges="beg middle end rend"/>
    </vehicle>
    <vehicle id="0.1" depart="5.00">
        <route edges="beg middle end rend"/>
    </vehicle>
    <vehicle id="0.2" depart="10.00">
        <route edges="beg middle end rend"/>
    </vehicle>
    <vehicle id="0.3" depart="16.00">
        <route edges="beg middle end rend"/>
    </vehicle>
    <vehicle id="0.4" depart="20.00">
        <route edges="beg middle end rend"/>
    </vehicle>
    <vehicle id="0.5" depart="30.00">
        <route edges="beg middle end rend"/>
    </vehicle>
    <vehicle id="0.6" depart="33.00">
        <route edges="beg middle end rend"/>
    </vehicle>
    <vehicle id="0.7" depart="35.00">
        <route edges="beg middle end rend"/>
    </vehicle>
    <vehicle id="0.8" depart="38.00">
        <route edges="beg middle end rend"/>
    </vehicle>
    <vehicle id="0.9" depart="39.00">
        <route edges="beg middle end rend"/>
    </vehicle>
    <vehicle id="0.10" depart="44.00">
        <route edges="beg middle end rend"/>
    </vehicle>
    <vehicle id="0.11" depart="48.00">
        <route edges="beg middle end rend"/>
    </vehicle>
    <vehicle id="0.12" depart="58.00">
        <route edges="beg middle end rend"/>
    </vehicle>
    <vehicle id="0.13" depart="60.00">
        <route edges="beg middle end rend"/>
    </vehicle>
    <vehicle id="0.14" depart="62.00">
        <route edges="beg middle end rend"/>
    </vehicle>
    <vehicle id="0.15" depart="63.00">
        <route edges="beg middle end rend"/>
    </vehicle>
    <vehicle id="0.16" depart="67.00">
        <route edges="beg middle end rend"/>
    </vehicle>
    <vehicle id="0.17" depart="68.00">
        <route edges="beg middle end rend"/>
    </vehicle>
    <vehicle id="0.18" depart="72.00">
        <route edges="beg middle end rend"/>
    </vehicle>
    <vehicle id="0.19" depart="75.00">
        <route edges="beg middle end rend"/>
    </vehicle>
    <vehicle id="0.20" depart="76.00">
        <route edges="beg middle end rend"/>
    </vehicle>
    <vehicle id="0.21" depart="77.00">
        <route edges="beg middle end rend"/>
    </vehicle>
    <vehicle id="0.22" depart="92.00">
        <route edges="beg middle end rend"/>
    </vehicle>
    <vehicle id="0.23" depart="94.00">
        <route edges="beg middle end rend"/>
    </vehicle>
</routes>
