<?xml version="1.0" encoding="UTF-8"?>

<!-- generated on 2022-01-18 12:40:09 by Eclipse SUMO netedit Version v1_11_0+1211-1b1dce94384
<configuration xmlns:xsi="http://www.w3.org/2001/XMLSchema-instance" xsi:noNamespaceSchemaLocation="http://sumo.dlr.de/xsd/netconvertConfiguration.xsd">

    <input>
        <sumo-net-file value="C:\Users\palva\.texttest\tmp\netedit.gui.18Jan114657.13884\netedit.gui\additionalElements\e2detector\load\timethreshold\input_net.net.xml"/>
    </input>

    <output>
        <output-file value="C:\Users\palva\.texttest\tmp\netedit.gui.18Jan114657.13884\netedit.gui\additionalElements\e2detector\load\timethreshold\net.net.xml"/>
    </output>

    <processing>
        <geometry.min-radius.fix.railways value="false"/>
        <geometry.max-grade.fix value="false"/>
        <offset.disable-normalization value="true"/>
        <lefthand value="false"/>
    </processing>

    <junctions>
        <no-turnarounds value="true"/>
        <junctions.corner-detail value="5"/>
        <junctions.limit-turn-speed value="5.5"/>
        <rectangular-lane-cut value="false"/>
    </junctions>

    <pedestrian>
        <walkingareas value="false"/>
    </pedestrian>

    <netedit>
        <additional-files value="C:\Users\palva\.texttest\tmp\netedit.gui.18Jan114657.13884\netedit.gui\additionalElements\e2detector\load\timethreshold\additionals.xml"/>
        <additionals-output value="C:\Users\palva\.texttest\tmp\netedit.gui.18Jan114657.13884\netedit.gui\additionalElements\e2detector\load\timethreshold\additionals.xml"/>
        <route-files value="C:\Users\palva\.texttest\tmp\netedit.gui.18Jan114657.13884\netedit.gui\additionalElements\e2detector\load\timethreshold\routes.xml"/>
        <demandelements-output value="C:\Users\palva\.texttest\tmp\netedit.gui.18Jan114657.13884\netedit.gui\additionalElements\e2detector\load\timethreshold\routes.xml"/>
        <data-files value="C:\Users\palva\.texttest\tmp\netedit.gui.18Jan114657.13884\netedit.gui\additionalElements\e2detector\load\timethreshold\datas.xml"/>
        <dataelements-output value="C:\Users\palva\.texttest\tmp\netedit.gui.18Jan114657.13884\netedit.gui\additionalElements\e2detector\load\timethreshold\datas.xml"/>
    </netedit>

    <visualisation>
        <gui-settings-file value="C:\Users\palva\.texttest\tmp\netedit.gui.18Jan114657.13884\netedit.gui\additionalElements\e2detector\load\timethreshold\gui-settings.xml"/>
        <window-size value="936,697"/>
        <window-pos value="50,50"/>
        <gui-testing value="true"/>
        <gui-testing-debug value="true"/>
        <gui-testing-debug-gl value="true"/>
        <gui-testing.setting-output value="C:\Users\palva\.texttest\tmp\netedit.gui.18Jan114657.13884\netedit.gui\additionalElements\e2detector\load\timethreshold\guisettingsoutput.xml"/>
    </visualisation>

    <report>
        <no-warnings value="true"/>
        <aggregate-warnings value="5"/>
        <error-log value="C:\Users\palva\.texttest\tmp\netedit.gui.18Jan114657.13884\netedit.gui\additionalElements\e2detector\load\timethreshold\log.txt"/>
    </report>

</configuration>
-->

<additional xmlns:xsi="http://www.w3.org/2001/XMLSchema-instance" xsi:noNamespaceSchemaLocation="http://sumo.dlr.de/xsd/additional_file.xsd">
    <e2Detector id="E2_01" lane="gneE0_0" pos="23.00" length="10.00" freq="120.00" file="fileA.txt"/>
    <e2Detector id="E2_04" lane="gneE0_0" pos="26.00" length="10.00" freq="120.00" file="fileA.txt" timeThreshold="1.39"/>
</additional>
