<?xml version="1.0" encoding="UTF-8"?>

<!-- generated on Tue Jul  2 20:03:57 2019 by Eclipse SUMO Version v1_2_0+0913-defca3a3d1
This data file and the accompanying materials
are made available under the terms of the Eclipse Public License v2.0
which accompanies this distribution, and is available at
http://www.eclipse.org/legal/epl-v20.html
SPDX-License-Identifier: EPL-2.0
<configuration xmlns:xsi="http://www.w3.org/2001/XMLSchema-instance" xsi:noNamespaceSchemaLocation="http://sumo.dlr.de/xsd/sumoConfiguration.xsd">

    <input>
        <net-file value="net.net.xml"/>
        <route-files value="input_routes.rou.xml"/>
    </input>

    <output>
        <write-license value="true"/>
        <lanechange-output value="lanechanges.xml"/>
        <lanechange-output.started value="true"/>
        <lanechange-output.ended value="true"/>
    </output>

    <time>
        <step-length value="0.5"/>
    </time>

    <processing>
        <lateral-resolution value="3.5"/>
        <default.speeddev value="0"/>
    </processing>

    <report>
        <xml-validation value="never"/>
        <no-step-log value="true"/>
    </report>

    <gui_only>
        <tracker-interval value="0.5"/>
    </gui_only>

</configuration>
-->

<lanechanges>
    <changeStarted id="car_overtake" type="truck_overtake" time="21.50" from="gneE3_1" to="gneE3_1" dir="0" speed="16.56" pos="20.86" reason="keepRight" leaderGap="None" leaderSecureGap="None" leaderSpeed="None" followerGap="None" followerSecureGap="None" followerSpeed="None" origLeaderGap="None" origLeaderSecureGap="None" origLeaderSpeed="None" latGap="None" maneuverDistance="-3.00"/>
    <change id="car_overtake" type="truck_overtake" time="23.50" from="gneE4_1" to="gneE4_0" dir="-1" speed="16.52" pos="3.80" reason="keepRight" leaderGap="53.00" leaderSecureGap="34.58" leaderSpeed="10.80" followerGap="None" followerSecureGap="None" followerSpeed="None" origLeaderGap="None" origLeaderSecureGap="None" origLeaderSpeed="None" latGap="None"/>
    <changeEnded id="car_overtake" type="truck_overtake" time="25.00" from="gneE4_0" to="gneE4_0" dir="0" speed="16.63" pos="28.69" reason="keepRight|sublane" leaderGap="44.56" leaderSecureGap="34.96" leaderSpeed="10.87" followerGap="32.33" followerSecureGap="9.43" followerSpeed="11.11" origLeaderGap="44.56" origLeaderSecureGap="34.96" origLeaderSpeed="10.87" latGap="None"/>
    <changeStarted id="car_overtake" type="truck_overtake" time="29.00" from="gneE5_0" to="gneE5_0" dir="0" speed="14.19" pos="41.19" reason="speedGain" leaderGap="25.48" leaderSecureGap="23.61" leaderSpeed="10.89" followerGap="50.49" followerSecureGap="10.17" followerSpeed="11.11" origLeaderGap="25.48" origLeaderSecureGap="23.61" origLeaderSpeed="10.89" latGap="None" maneuverDistance="3.00"/>
    <change id="car_overtake" type="truck_overtake" time="31.00" from="gneE6_0" to="gneE6_1" dir="1" speed="13.09" pos="18.01" reason="speedGain" leaderGap="None" leaderSecureGap="None" leaderSpeed="None" followerGap="None" followerSecureGap="None" followerSpeed="None" origLeaderGap="20.50" origLeaderSecureGap="18.99" origLeaderSpeed="10.94" latGap="None"/>
    <changeEnded id="car_overtake" type="truck_overtake" time="32.00" from="gneE6_1" to="gneE6_1" dir="0" speed="12.39" pos="30.58" reason="speedGain" leaderGap="None" leaderSecureGap="None" leaderSpeed="None" followerGap="None" followerSecureGap="None" followerSpeed="None" origLeaderGap="None" origLeaderSecureGap="None" origLeaderSpeed="None" latGap="None"/>
    <changeStarted id="car_overtake" type="truck_overtake" time="42.50" from="gneE9_1" to="gneE9_1" dir="0" speed="16.38" pos="46.13" reason="keepRight" leaderGap="None" leaderSecureGap="None" leaderSpeed="None" followerGap="None" followerSecureGap="None" followerSpeed="None" origLeaderGap="None" origLeaderSecureGap="None" origLeaderSpeed="None" latGap="None" maneuverDistance="-3.00"/>
    <change id="car_overtake" type="truck_overtake" time="44.50" from="gneE9.34_1" to="gneE9.34_0" dir="-1" speed="16.45" pos="28.92" reason="keepRight" leaderGap="None" leaderSecureGap="None" leaderSpeed="None" followerGap="14.30" followerSecureGap="0.00" followerSpeed="11.01" origLeaderGap="None" origLeaderSecureGap="None" origLeaderSpeed="None" latGap="None"/>
    <changeEnded id="car_overtake" type="truck_overtake" time="46.00" from="gneE10_0" to="gneE10_0" dir="0" speed="16.42" pos="3.52" reason="keepRight|sublane" leaderGap="None" leaderSecureGap="None" leaderSpeed="None" followerGap="124.55" followerSecureGap="9.49" followerSpeed="11.11" origLeaderGap="None" origLeaderSecureGap="None" origLeaderSpeed="None" latGap="None"/>
</lanechanges>
