<?xml version="1.0" encoding="UTF-8"?>

<!-- generated on Fri Dec 14 09:27:48 2018 by Eclipse SUMO netconvert Version v1_0_1+0645-93703db
This data file and the accompanying materials
are made available under the terms of the Eclipse Public License v2.0
which accompanies this distribution, and is available at
http://www.eclipse.org/legal/epl-v20.html
SPDX-License-Identifier: EPL-2.0
<configuration xmlns:xsi="http://www.w3.org/2001/XMLSchema-instance" xsi:noNamespaceSchemaLocation="https://sumo.dlr.de/xsd/netconvertConfiguration.xsd">

    <input>
        <dlr-navteq-prefix value="elmar"/>
    </input>

    <output>
        <write-license value="true"/>
        <plain-output-prefix value="plain"/>
    </output>

    <projection>
        <proj.scale value="1e-05"/>
        <proj.utm value="true"/>
    </projection>

    <report>
        <xml-validation value="never"/>
    </report>

</configuration>
-->

<connections version="1.1" xmlns:xsi="http://www.w3.org/2001/XMLSchema-instance" xsi:noNamespaceSchemaLocation="https://sumo.dlr.de/xsd/connections_file.xsd">
    <connection from="-1" to="1" fromLane="2" toLane="2"/>

    <connection from="-2" to="2" fromLane="2" toLane="2"/>

    <connection from="-3" to="3" fromLane="2" toLane="1"/>

    <connection from="-4" to="4" fromLane="2" toLane="1"/>

    <connection from="1" to="-3" fromLane="0" toLane="0"/>
    <connection from="1" to="-2" fromLane="0" toLane="0"/>
    <connection from="1" to="-2" fromLane="1" toLane="1"/>
    <connection from="1" to="-2" fromLane="2" toLane="2"/>
    <connection from="1" to="-4" fromLane="2" toLane="2"/>
    <connection from="1" to="-1" fromLane="2" toLane="2"/>

    <connection from="2" to="-4" fromLane="0" toLane="0"/>
    <connection from="2" to="-1" fromLane="0" toLane="0"/>
    <connection from="2" to="-1" fromLane="1" toLane="1"/>
    <connection from="2" to="-1" fromLane="2" toLane="2"/>
    <connection from="2" to="-3" fromLane="2" toLane="2"/>
    <connection from="2" to="-2" fromLane="2" toLane="2"/>

    <connection from="3" to="-2" fromLane="0" toLane="0"/>
    <connection from="3" to="-4" fromLane="0" toLane="1"/>
    <connection from="3" to="-4" fromLane="1" toLane="2"/>
    <connection from="3" to="-1" fromLane="1" toLane="2"/>
    <connection from="3" to="-3" fromLane="1" toLane="2"/>

    <connection from="4" to="-1" fromLane="0" toLane="0"/>
    <connection from="4" to="-3" fromLane="0" toLane="1"/>
    <connection from="4" to="-3" fromLane="1" toLane="2"/>
    <connection from="4" to="-2" fromLane="1" toLane="2"/>
    <connection from="4" to="-4" fromLane="1" toLane="2"/>

</connections>
