<?xml version="1.0"?>

<!-- generated on 04/10/08 15:12:02 by SUMO od2trips Version 0.9.7
<configuration>

   <input>
      <net-file>input_net.net.xml</net-file>
      <od-files>input_od_v.fma</od-files>
   </input>

   <output>
      <output-file>trips.trips.xml</output-file>
   </output>

   <processing>
      <spread.uniform>true</spread.uniform>
   </processing>

</configuration>
-->

<tripdefs>
   <tripdef id="0" depart="432.00" from="a1" to="b2" departlane="free" departspeed="max"/>
   <tripdef id="1" depart="1296.00" from="a1" to="b2" departlane="free" departspeed="max"/>
   <tripdef id="2" depart="2160.00" from="a1" to="b2" departlane="free" departspeed="max"/>
   <tripdef id="3" depart="3024.00" from="a1" to="b2" departlane="free" departspeed="max"/>
   <tripdef id="4" depart="3888.00" from="a1" to="b2" departlane="free" departspeed="max"/>
   <tripdef id="5" depart="4752.00" from="a1" to="b2" departlane="free" departspeed="max"/>
   <tripdef id="6" depart="5616.00" from="a1" to="b2" departlane="free" departspeed="max"/>
   <tripdef id="7" depart="6480.00" from="a1" to="b2" departlane="free" departspeed="max"/>
   <tripdef id="8" depart="7344.00" from="a1" to="b2" departlane="free" departspeed="max"/>
   <tripdef id="9" depart="8208.00" from="a1" to="b2" departlane="free" departspeed="max"/>
   <tripdef id="10" depart="9072.00" from="a1" to="b2" departlane="free" departspeed="max"/>
   <tripdef id="11" depart="9936.00" from="a1" to="b2" departlane="free" departspeed="max"/>
   <tripdef id="12" depart="10800.00" from="a1" to="b2" departlane="free" departspeed="max"/>
   <tripdef id="13" depart="11664.00" from="a1" to="b2" departlane="free" departspeed="max"/>
   <tripdef id="14" depart="12528.00" from="a1" to="b2" departlane="free" departspeed="max"/>
   <tripdef id="15" depart="13392.00" from="a1" to="b2" departlane="free" departspeed="max"/>
   <tripdef id="16" depart="14256.00" from="a1" to="b2" departlane="free" departspeed="max"/>
   <tripdef id="17" depart="15120.00" from="a1" to="b2" departlane="free" departspeed="max"/>
   <tripdef id="18" depart="15984.00" from="a1" to="b2" departlane="free" departspeed="max"/>
   <tripdef id="19" depart="16848.00" from="a1" to="b2" departlane="free" departspeed="max"/>
   <tripdef id="20" depart="17712.00" from="a1" to="b2" departlane="free" departspeed="max"/>
   <tripdef id="21" depart="18576.00" from="a1" to="b2" departlane="free" departspeed="max"/>
   <tripdef id="22" depart="19440.00" from="a1" to="b2" departlane="free" departspeed="max"/>
   <tripdef id="23" depart="20304.00" from="a1" to="b2" departlane="free" departspeed="max"/>
   <tripdef id="24" depart="21168.00" from="a1" to="b2" departlane="free" departspeed="max"/>
   <tripdef id="25" depart="22032.00" from="a1" to="b2" departlane="free" departspeed="max"/>
   <tripdef id="26" depart="22896.00" from="a1" to="b2" departlane="free" departspeed="max"/>
   <tripdef id="27" depart="23760.00" from="a1" to="b2" departlane="free" departspeed="max"/>
   <tripdef id="28" depart="24624.00" from="a1" to="b2" departlane="free" departspeed="max"/>
   <tripdef id="29" depart="25488.00" from="a1" to="b2" departlane="free" departspeed="max"/>
   <tripdef id="30" depart="26352.00" from="a1" to="b2" departlane="free" departspeed="max"/>
   <tripdef id="31" depart="27216.00" from="a1" to="b2" departlane="free" departspeed="max"/>
   <tripdef id="32" depart="28080.00" from="a1" to="b2" departlane="free" departspeed="max"/>
   <tripdef id="33" depart="28944.00" from="a1" to="b2" departlane="free" departspeed="max"/>
   <tripdef id="34" depart="29808.00" from="a1" to="b2" departlane="free" departspeed="max"/>
   <tripdef id="35" depart="30672.00" from="a1" to="b2" departlane="free" departspeed="max"/>
   <tripdef id="36" depart="31536.00" from="a1" to="b2" departlane="free" departspeed="max"/>
   <tripdef id="37" depart="32400.00" from="a1" to="b2" departlane="free" departspeed="max"/>
   <tripdef id="38" depart="33264.00" from="a1" to="b2" departlane="free" departspeed="max"/>
   <tripdef id="39" depart="34128.00" from="a1" to="b2" departlane="free" departspeed="max"/>
   <tripdef id="40" depart="34992.00" from="a1" to="b2" departlane="free" departspeed="max"/>
   <tripdef id="41" depart="35856.00" from="a1" to="b2" departlane="free" departspeed="max"/>
   <tripdef id="42" depart="36720.00" from="a1" to="b2" departlane="free" departspeed="max"/>
   <tripdef id="43" depart="37584.00" from="a1" to="b2" departlane="free" departspeed="max"/>
   <tripdef id="44" depart="38448.00" from="a1" to="b2" departlane="free" departspeed="max"/>
   <tripdef id="45" depart="39312.00" from="a1" to="b2" departlane="free" departspeed="max"/>
   <tripdef id="46" depart="40176.00" from="a1" to="b2" departlane="free" departspeed="max"/>
   <tripdef id="47" depart="41040.00" from="a1" to="b2" departlane="free" departspeed="max"/>
   <tripdef id="48" depart="41904.00" from="a1" to="b2" departlane="free" departspeed="max"/>
   <tripdef id="49" depart="42768.00" from="a1" to="b2" departlane="free" departspeed="max"/>
   <tripdef id="50" depart="43632.00" from="a1" to="b2" departlane="free" departspeed="max"/>
   <tripdef id="51" depart="44496.00" from="a1" to="b2" departlane="free" departspeed="max"/>
   <tripdef id="52" depart="45360.00" from="a1" to="b2" departlane="free" departspeed="max"/>
   <tripdef id="53" depart="46224.00" from="a1" to="b2" departlane="free" departspeed="max"/>
   <tripdef id="54" depart="47088.00" from="a1" to="b2" departlane="free" departspeed="max"/>
   <tripdef id="55" depart="47952.00" from="a1" to="b2" departlane="free" departspeed="max"/>
   <tripdef id="56" depart="48816.00" from="a1" to="b2" departlane="free" departspeed="max"/>
   <tripdef id="57" depart="49680.00" from="a1" to="b2" departlane="free" departspeed="max"/>
   <tripdef id="58" depart="50544.00" from="a1" to="b2" departlane="free" departspeed="max"/>
   <tripdef id="59" depart="51408.00" from="a1" to="b2" departlane="free" departspeed="max"/>
   <tripdef id="60" depart="52272.00" from="a1" to="b2" departlane="free" departspeed="max"/>
   <tripdef id="61" depart="53136.00" from="a1" to="b2" departlane="free" departspeed="max"/>
   <tripdef id="62" depart="54000.00" from="a1" to="b2" departlane="free" departspeed="max"/>
   <tripdef id="63" depart="54864.00" from="a1" to="b2" departlane="free" departspeed="max"/>
   <tripdef id="64" depart="55728.00" from="a1" to="b2" departlane="free" departspeed="max"/>
   <tripdef id="65" depart="56592.00" from="a1" to="b2" departlane="free" departspeed="max"/>
   <tripdef id="66" depart="57456.00" from="a1" to="b2" departlane="free" departspeed="max"/>
   <tripdef id="67" depart="58320.00" from="a1" to="b2" departlane="free" departspeed="max"/>
   <tripdef id="68" depart="59184.00" from="a1" to="b2" departlane="free" departspeed="max"/>
   <tripdef id="69" depart="60048.00" from="a1" to="b2" departlane="free" departspeed="max"/>
   <tripdef id="70" depart="60912.00" from="a1" to="b2" departlane="free" departspeed="max"/>
   <tripdef id="71" depart="61776.00" from="a1" to="b2" departlane="free" departspeed="max"/>
   <tripdef id="72" depart="62640.00" from="a1" to="b2" departlane="free" departspeed="max"/>
   <tripdef id="73" depart="63504.00" from="a1" to="b2" departlane="free" departspeed="max"/>
   <tripdef id="74" depart="64368.00" from="a1" to="b2" departlane="free" departspeed="max"/>
   <tripdef id="75" depart="65232.00" from="a1" to="b2" departlane="free" departspeed="max"/>
   <tripdef id="76" depart="66096.00" from="a1" to="b2" departlane="free" departspeed="max"/>
   <tripdef id="77" depart="66960.00" from="a1" to="b2" departlane="free" departspeed="max"/>
   <tripdef id="78" depart="67824.00" from="a1" to="b2" departlane="free" departspeed="max"/>
   <tripdef id="79" depart="68688.00" from="a1" to="b2" departlane="free" departspeed="max"/>
   <tripdef id="80" depart="69552.00" from="a1" to="b2" departlane="free" departspeed="max"/>
   <tripdef id="81" depart="70416.00" from="a1" to="b2" departlane="free" departspeed="max"/>
   <tripdef id="82" depart="71280.00" from="a1" to="b2" departlane="free" departspeed="max"/>
   <tripdef id="83" depart="72144.00" from="a1" to="b2" departlane="free" departspeed="max"/>
   <tripdef id="84" depart="73008.00" from="a1" to="b2" departlane="free" departspeed="max"/>
   <tripdef id="85" depart="73872.00" from="a1" to="b2" departlane="free" departspeed="max"/>
   <tripdef id="86" depart="74736.00" from="a1" to="b2" departlane="free" departspeed="max"/>
   <tripdef id="87" depart="75600.00" from="a1" to="b2" departlane="free" departspeed="max"/>
   <tripdef id="88" depart="76464.00" from="a1" to="b2" departlane="free" departspeed="max"/>
   <tripdef id="89" depart="77328.00" from="a1" to="b2" departlane="free" departspeed="max"/>
   <tripdef id="90" depart="78192.00" from="a1" to="b2" departlane="free" departspeed="max"/>
   <tripdef id="91" depart="79056.00" from="a1" to="b2" departlane="free" departspeed="max"/>
   <tripdef id="92" depart="79920.00" from="a1" to="b2" departlane="free" departspeed="max"/>
   <tripdef id="93" depart="80784.00" from="a1" to="b2" departlane="free" departspeed="max"/>
   <tripdef id="94" depart="81648.00" from="a1" to="b2" departlane="free" departspeed="max"/>
   <tripdef id="95" depart="82512.00" from="a1" to="b2" departlane="free" departspeed="max"/>
   <tripdef id="96" depart="83376.00" from="a1" to="b2" departlane="free" departspeed="max"/>
   <tripdef id="97" depart="84240.00" from="a1" to="b2" departlane="free" departspeed="max"/>
   <tripdef id="98" depart="85104.00" from="a1" to="b2" departlane="free" departspeed="max"/>
   <tripdef id="99" depart="85968.00" from="a1" to="b2" departlane="free" departspeed="max"/>
</tripdefs>
