<?xml version="1.0"?>

<net>

    <taz id="131">
        <tazSource id="131" weight="1.00"/>
    </taz>
    <taz id="204[1][1]">
        <tazSink id="204[1][1]" weight="1.00"/>
    </taz>

</net>
