<?xml version="1.0" encoding="UTF-8"?>

<!-- generated on Mon Feb 17 15:30:42 2020 by Eclipse SUMO netgenerate Version v1_5_0+0130-ceb0a01
This data file and the accompanying materials
are made available under the terms of the Eclipse Public License v2.0
which accompanies this distribution, and is available at
http://www.eclipse.org/legal/epl-v20.html
SPDX-License-Identifier: EPL-2.0
<configuration xmlns:xsi="http://www.w3.org/2001/XMLSchema-instance" xsi:noNamespaceSchemaLocation="http://sumo.dlr.de/xsd/netgenerateConfiguration.xsd">

    <random_network>
        <rand value="true"/>
        <rand.iterations value="100"/>
        <rand.max-distance value="250"/>
        <rand.min-distance value="100"/>
        <rand.min-angle value="60"/>
        <rand.grid value="true"/>
    </random_network>

    <output>
        <write-license value="true"/>
        <output-file value="net.net.xml"/>
    </output>

    <report>
        <xml-validation value="never"/>
    </report>

</configuration>
-->

<net version="1.6" junctionCornerDetail="5" limitTurnSpeed="5.50" xmlns:xsi="http://www.w3.org/2001/XMLSchema-instance" xsi:noNamespaceSchemaLocation="http://sumo.dlr.de/xsd/net_file.xsd">

    <location netOffset="800.00,1100.00" convBoundary="0.00,0.00,1600.00,2100.00" origBoundary="-800.00,-1100.00,800.00,1000.00" projParameter="!"/>

    <edge id=":1_0" function="internal">
        <lane id=":1_0_0" index="0" speed="6.51" length="9.03" shape="798.40,1107.20 798.05,1104.75 797.00,1103.00 795.25,1101.95 792.80,1101.60"/>
    </edge>
    <edge id=":1_1" function="internal">
        <lane id=":1_1_0" index="0" speed="13.89" length="14.40" shape="798.40,1107.20 798.40,1092.80"/>
    </edge>
    <edge id=":1_2" function="internal">
        <lane id=":1_2_0" index="0" speed="8.00" length="5.93" shape="798.40,1107.20 798.95,1103.35 800.00,1101.60"/>
    </edge>
    <edge id=":1_3" function="internal">
        <lane id=":1_3_0" index="0" speed="3.65" length="2.34" shape="798.40,1107.20 799.20,1106.00 800.00,1105.60"/>
    </edge>
    <edge id=":1_16" function="internal">
        <lane id=":1_16_0" index="0" speed="8.00" length="8.26" shape="800.00,1101.60 800.60,1100.60 803.35,1098.95 807.20,1098.40"/>
    </edge>
    <edge id=":1_17" function="internal">
        <lane id=":1_17_0" index="0" speed="3.65" length="2.34" shape="800.00,1105.60 800.80,1106.00 801.60,1107.20"/>
    </edge>
    <edge id=":1_4" function="internal">
        <lane id=":1_4_0" index="0" speed="6.51" length="9.03" shape="807.20,1101.60 804.75,1101.95 803.00,1103.00 801.95,1104.75 801.60,1107.20"/>
    </edge>
    <edge id=":1_5" function="internal">
        <lane id=":1_5_0" index="0" speed="13.89" length="14.40" shape="807.20,1101.60 792.80,1101.60"/>
    </edge>
    <edge id=":1_6" function="internal">
        <lane id=":1_6_0" index="0" speed="8.00" length="14.19" shape="807.20,1101.60 803.35,1101.05 800.60,1099.40 798.95,1096.65 798.40,1092.80"/>
    </edge>
    <edge id=":1_7" function="internal">
        <lane id=":1_7_0" index="0" speed="3.65" length="4.67" shape="807.20,1101.60 806.00,1100.80 805.60,1100.00 806.00,1099.20 807.20,1098.40"/>
    </edge>
    <edge id=":1_8" function="internal">
        <lane id=":1_8_0" index="0" speed="6.51" length="9.03" shape="801.60,1092.80 801.95,1095.25 803.00,1097.00 804.75,1098.05 807.20,1098.40"/>
    </edge>
    <edge id=":1_9" function="internal">
        <lane id=":1_9_0" index="0" speed="13.89" length="14.40" shape="801.60,1092.80 801.60,1107.20"/>
    </edge>
    <edge id=":1_10" function="internal">
        <lane id=":1_10_0" index="0" speed="8.00" length="5.93" shape="801.60,1092.80 801.05,1096.65 800.00,1098.40"/>
    </edge>
    <edge id=":1_11" function="internal">
        <lane id=":1_11_0" index="0" speed="3.65" length="2.34" shape="801.60,1092.80 800.80,1094.00 800.00,1094.40"/>
    </edge>
    <edge id=":1_18" function="internal">
        <lane id=":1_18_0" index="0" speed="8.00" length="8.26" shape="800.00,1098.40 799.40,1099.40 796.65,1101.05 792.80,1101.60"/>
    </edge>
    <edge id=":1_19" function="internal">
        <lane id=":1_19_0" index="0" speed="3.65" length="2.34" shape="800.00,1094.40 799.20,1094.00 798.40,1092.80"/>
    </edge>
    <edge id=":1_12" function="internal">
        <lane id=":1_12_0" index="0" speed="6.51" length="9.03" shape="792.80,1098.40 795.25,1098.05 797.00,1097.00 798.05,1095.25 798.40,1092.80"/>
    </edge>
    <edge id=":1_13" function="internal">
        <lane id=":1_13_0" index="0" speed="13.89" length="14.40" shape="792.80,1098.40 807.20,1098.40"/>
    </edge>
    <edge id=":1_14" function="internal">
        <lane id=":1_14_0" index="0" speed="8.00" length="14.19" shape="792.80,1098.40 796.65,1098.95 799.40,1100.60 801.05,1103.35 801.60,1107.20"/>
    </edge>
    <edge id=":1_15" function="internal">
        <lane id=":1_15_0" index="0" speed="3.65" length="4.67" shape="792.80,1098.40 794.00,1099.20 794.40,1100.00 794.00,1100.80 792.80,1101.60"/>
    </edge>
    <edge id=":10_0" function="internal">
        <lane id=":10_0_0" index="0" speed="9.05" length="11.91" shape="705.98,1101.60 703.57,1102.06 701.32,1103.43 699.24,1105.72 697.33,1108.92"/>
    </edge>
    <edge id=":10_1" function="internal">
        <lane id=":10_1_0" index="0" speed="13.89" length="15.16" shape="705.98,1101.60 690.82,1101.60"/>
    </edge>
    <edge id=":10_2" function="internal">
        <lane id=":10_2_0" index="0" speed="3.65" length="2.34" shape="705.98,1101.60 704.78,1100.80 704.38,1100.00"/>
    </edge>
    <edge id=":10_9" function="internal">
        <lane id=":10_9_0" index="0" speed="3.65" length="2.34" shape="704.38,1100.00 704.78,1099.20 705.98,1098.40"/>
    </edge>
    <edge id=":10_3" function="internal">
        <lane id=":10_3_0" index="0" speed="13.89" length="15.16" shape="690.82,1098.40 705.98,1098.40"/>
    </edge>
    <edge id=":10_4" function="internal">
        <lane id=":10_4_0" index="0" speed="7.44" length="6.46" shape="690.82,1098.40 695.64,1099.06 696.93,1100.00"/>
    </edge>
    <edge id=":10_5" function="internal">
        <lane id=":10_5_0" index="0" speed="3.65" length="2.34" shape="690.82,1098.40 692.02,1099.20 692.42,1100.00"/>
    </edge>
    <edge id=":10_10" function="internal">
        <lane id=":10_10_0" index="0" speed="7.44" length="9.94" shape="696.93,1100.00 698.33,1101.03 698.89,1104.32 697.33,1108.92"/>
    </edge>
    <edge id=":10_11" function="internal">
        <lane id=":10_11_0" index="0" speed="3.65" length="2.34" shape="692.42,1100.00 692.02,1100.80 690.82,1101.60"/>
    </edge>
    <edge id=":10_6" function="internal">
        <lane id=":10_6_0" index="0" speed="5.74" length="9.18" shape="694.46,1107.49 695.34,1104.91 695.03,1103.07 693.52,1101.97 690.82,1101.60"/>
    </edge>
    <edge id=":10_7" function="internal">
        <lane id=":10_7_0" index="0" speed="10.24" length="15.45" shape="694.46,1107.49 696.89,1103.51 699.62,1100.67 702.65,1098.97 705.98,1098.40"/>
    </edge>
    <edge id=":10_8" function="internal">
        <lane id=":10_8_0" index="0" speed="3.65" length="4.67" shape="694.46,1107.49 695.72,1106.78 696.61,1106.78 697.15,1107.49 697.33,1108.92"/>
    </edge>
    <edge id=":1011_0" function="internal">
        <lane id=":1011_0_0" index="0" speed="6.51" length="9.03" shape="498.40,407.20 498.05,404.75 497.00,403.00 495.25,401.95 492.80,401.60"/>
    </edge>
    <edge id=":1011_1" function="internal">
        <lane id=":1011_1_0" index="0" speed="9.65" length="13.64" shape="498.40,407.20 498.79,403.42 499.96,400.28 501.90,397.77 504.63,395.90"/>
    </edge>
    <edge id=":1011_2" function="internal">
        <lane id=":1011_2_0" index="0" speed="3.65" length="4.67" shape="498.40,407.20 499.20,406.00 500.00,405.60 500.80,406.00 501.60,407.20"/>
    </edge>
    <edge id=":1011_3" function="internal">
        <lane id=":1011_3_0" index="0" speed="8.37" length="10.08" shape="506.06,398.76 504.11,400.12 502.72,401.98 501.88,404.34 501.60,407.20"/>
    </edge>
    <edge id=":1011_4" function="internal">
        <lane id=":1011_4_0" index="0" speed="13.89" length="13.70" shape="506.06,398.76 502.81,400.15 499.63,401.02 496.35,401.47 492.80,401.60"/>
    </edge>
    <edge id=":1011_5" function="internal">
        <lane id=":1011_5_0" index="0" speed="3.65" length="2.34" shape="506.06,398.76 504.63,398.58 503.92,398.04"/>
    </edge>
    <edge id=":1011_9" function="internal">
        <lane id=":1011_9_0" index="0" speed="3.65" length="2.34" shape="503.92,398.04 503.92,397.15 504.63,395.90"/>
    </edge>
    <edge id=":1011_6" function="internal">
        <lane id=":1011_6_0" index="0" speed="13.89" length="12.24" shape="492.80,398.40 496.13,398.32 498.91,397.99 501.60,397.23 504.63,395.90"/>
    </edge>
    <edge id=":1011_7" function="internal">
        <lane id=":1011_7_0" index="0" speed="8.00" length="5.25" shape="492.80,398.40 496.65,398.95 497.82,399.65"/>
    </edge>
    <edge id=":1011_8" function="internal">
        <lane id=":1011_8_0" index="0" speed="3.65" length="2.34" shape="492.80,398.40 494.00,399.20 494.40,400.00"/>
    </edge>
    <edge id=":1011_10" function="internal">
        <lane id=":1011_10_0" index="0" speed="8.00" length="8.94" shape="497.82,399.65 499.40,400.60 501.05,403.35 501.60,407.20"/>
    </edge>
    <edge id=":1011_11" function="internal">
        <lane id=":1011_11_0" index="0" speed="3.65" length="2.34" shape="494.40,400.00 494.00,400.80 492.80,401.60"/>
    </edge>
    <edge id=":1043_0" function="internal">
        <lane id=":1043_0_0" index="0" speed="3.90" length="2.58" shape="898.40,703.20 898.30,702.50 898.00,702.00 897.50,701.70 896.80,701.60"/>
    </edge>
    <edge id=":1043_1" function="internal">
        <lane id=":1043_1_0" index="0" speed="6.08" length="7.74" shape="896.80,698.40 898.90,698.70 900.40,699.60 901.30,701.10 901.60,703.20"/>
    </edge>
    <edge id=":1056_0" function="internal">
        <lane id=":1056_0_0" index="0" speed="6.51" length="9.03" shape="198.40,1207.20 198.05,1204.75 197.00,1203.00 195.25,1201.95 192.80,1201.60"/>
    </edge>
    <edge id=":1056_1" function="internal">
        <lane id=":1056_1_0" index="0" speed="13.89" length="14.40" shape="198.40,1207.20 198.40,1192.80"/>
    </edge>
    <edge id=":1056_2" function="internal">
        <lane id=":1056_2_0" index="0" speed="8.00" length="5.93" shape="198.40,1207.20 198.95,1203.35 200.00,1201.60"/>
    </edge>
    <edge id=":1056_3" function="internal">
        <lane id=":1056_3_0" index="0" speed="3.65" length="2.34" shape="198.40,1207.20 199.20,1206.00 200.00,1205.60"/>
    </edge>
    <edge id=":1056_16" function="internal">
        <lane id=":1056_16_0" index="0" speed="8.00" length="8.26" shape="200.00,1201.60 200.60,1200.60 203.35,1198.95 207.20,1198.40"/>
    </edge>
    <edge id=":1056_17" function="internal">
        <lane id=":1056_17_0" index="0" speed="3.65" length="2.34" shape="200.00,1205.60 200.80,1206.00 201.60,1207.20"/>
    </edge>
    <edge id=":1056_4" function="internal">
        <lane id=":1056_4_0" index="0" speed="6.51" length="9.03" shape="207.20,1201.60 204.75,1201.95 203.00,1203.00 201.95,1204.75 201.60,1207.20"/>
    </edge>
    <edge id=":1056_5" function="internal">
        <lane id=":1056_5_0" index="0" speed="13.89" length="14.40" shape="207.20,1201.60 192.80,1201.60"/>
    </edge>
    <edge id=":1056_6" function="internal">
        <lane id=":1056_6_0" index="0" speed="8.00" length="14.19" shape="207.20,1201.60 203.35,1201.05 200.60,1199.40 198.95,1196.65 198.40,1192.80"/>
    </edge>
    <edge id=":1056_7" function="internal">
        <lane id=":1056_7_0" index="0" speed="3.65" length="4.67" shape="207.20,1201.60 206.00,1200.80 205.60,1200.00 206.00,1199.20 207.20,1198.40"/>
    </edge>
    <edge id=":1056_8" function="internal">
        <lane id=":1056_8_0" index="0" speed="6.51" length="9.03" shape="201.60,1192.80 201.95,1195.25 203.00,1197.00 204.75,1198.05 207.20,1198.40"/>
    </edge>
    <edge id=":1056_9" function="internal">
        <lane id=":1056_9_0" index="0" speed="13.89" length="14.40" shape="201.60,1192.80 201.60,1207.20"/>
    </edge>
    <edge id=":1056_10" function="internal">
        <lane id=":1056_10_0" index="0" speed="8.00" length="5.93" shape="201.60,1192.80 201.05,1196.65 200.00,1198.40"/>
    </edge>
    <edge id=":1056_11" function="internal">
        <lane id=":1056_11_0" index="0" speed="3.65" length="2.34" shape="201.60,1192.80 200.80,1194.00 200.00,1194.40"/>
    </edge>
    <edge id=":1056_18" function="internal">
        <lane id=":1056_18_0" index="0" speed="8.00" length="8.26" shape="200.00,1198.40 199.40,1199.40 196.65,1201.05 192.80,1201.60"/>
    </edge>
    <edge id=":1056_19" function="internal">
        <lane id=":1056_19_0" index="0" speed="3.65" length="2.34" shape="200.00,1194.40 199.20,1194.00 198.40,1192.80"/>
    </edge>
    <edge id=":1056_12" function="internal">
        <lane id=":1056_12_0" index="0" speed="6.51" length="9.03" shape="192.80,1198.40 195.25,1198.05 197.00,1197.00 198.05,1195.25 198.40,1192.80"/>
    </edge>
    <edge id=":1056_13" function="internal">
        <lane id=":1056_13_0" index="0" speed="13.89" length="14.40" shape="192.80,1198.40 207.20,1198.40"/>
    </edge>
    <edge id=":1056_14" function="internal">
        <lane id=":1056_14_0" index="0" speed="8.00" length="14.19" shape="192.80,1198.40 196.65,1198.95 199.40,1200.60 201.05,1203.35 201.60,1207.20"/>
    </edge>
    <edge id=":1056_15" function="internal">
        <lane id=":1056_15_0" index="0" speed="3.65" length="4.67" shape="192.80,1198.40 194.00,1199.20 194.40,1200.00 194.00,1200.80 192.80,1201.60"/>
    </edge>
    <edge id=":1063_0" function="internal">
        <lane id=":1063_0_0" index="0" speed="13.89" length="14.40" shape="1298.40,1207.20 1298.40,1192.80"/>
    </edge>
    <edge id=":1063_1" function="internal">
        <lane id=":1063_1_0" index="0" speed="8.00" length="5.93" shape="1298.40,1207.20 1298.95,1203.35 1300.00,1201.60"/>
    </edge>
    <edge id=":1063_2" function="internal">
        <lane id=":1063_2_0" index="0" speed="3.65" length="2.34" shape="1298.40,1207.20 1299.20,1206.00 1300.00,1205.60"/>
    </edge>
    <edge id=":1063_9" function="internal">
        <lane id=":1063_9_0" index="0" speed="8.00" length="8.26" shape="1300.00,1201.60 1300.60,1200.60 1303.35,1198.95 1307.20,1198.40"/>
    </edge>
    <edge id=":1063_10" function="internal">
        <lane id=":1063_10_0" index="0" speed="3.65" length="2.34" shape="1300.00,1205.60 1300.80,1206.00 1301.60,1207.20"/>
    </edge>
    <edge id=":1063_3" function="internal">
        <lane id=":1063_3_0" index="0" speed="6.51" length="9.03" shape="1307.20,1201.60 1304.75,1201.95 1303.00,1203.00 1301.95,1204.75 1301.60,1207.20"/>
    </edge>
    <edge id=":1063_4" function="internal">
        <lane id=":1063_4_0" index="0" speed="8.00" length="14.19" shape="1307.20,1201.60 1303.35,1201.05 1300.60,1199.40 1298.95,1196.65 1298.40,1192.80"/>
    </edge>
    <edge id=":1063_5" function="internal">
        <lane id=":1063_5_0" index="0" speed="3.65" length="4.67" shape="1307.20,1201.60 1306.00,1200.80 1305.60,1200.00 1306.00,1199.20 1307.20,1198.40"/>
    </edge>
    <edge id=":1063_6" function="internal">
        <lane id=":1063_6_0" index="0" speed="6.51" length="9.03" shape="1301.60,1192.80 1301.95,1195.25 1303.00,1197.00 1304.75,1198.05 1307.20,1198.40"/>
    </edge>
    <edge id=":1063_7" function="internal">
        <lane id=":1063_7_0" index="0" speed="13.89" length="14.40" shape="1301.60,1192.80 1301.60,1207.20"/>
    </edge>
    <edge id=":1063_8" function="internal">
        <lane id=":1063_8_0" index="0" speed="3.65" length="2.34" shape="1301.60,1192.80 1300.80,1194.00 1300.00,1194.40"/>
    </edge>
    <edge id=":1063_11" function="internal">
        <lane id=":1063_11_0" index="0" speed="3.65" length="2.34" shape="1300.00,1194.40 1299.20,1194.00 1298.40,1192.80"/>
    </edge>
    <edge id=":1089_0" function="internal">
        <lane id=":1089_0_0" index="0" speed="6.51" length="9.03" shape="198.40,1007.20 198.05,1004.75 197.00,1003.00 195.25,1001.95 192.80,1001.60"/>
    </edge>
    <edge id=":1089_1" function="internal">
        <lane id=":1089_1_0" index="0" speed="13.89" length="16.80" shape="198.40,1007.20 198.75,1003.20 199.70,998.94 201.06,994.78 202.67,991.08"/>
    </edge>
    <edge id=":1089_2" function="internal">
        <lane id=":1089_2_0" index="0" speed="8.42" length="15.82" shape="198.40,1007.20 199.07,1003.35 201.09,1000.60 204.46,998.95 209.18,998.40"/>
    </edge>
    <edge id=":1089_3" function="internal">
        <lane id=":1089_3_0" index="0" speed="3.65" length="4.67" shape="198.40,1007.20 199.20,1006.00 200.00,1005.60 200.80,1006.00 201.60,1007.20"/>
    </edge>
    <edge id=":1089_4" function="internal">
        <lane id=":1089_4_0" index="0" speed="7.02" length="10.67" shape="209.18,1001.60 205.86,1001.95 203.49,1003.00 202.07,1004.75 201.60,1007.20"/>
    </edge>
    <edge id=":1089_5" function="internal">
        <lane id=":1089_5_0" index="0" speed="13.89" length="16.38" shape="209.18,1001.60 192.80,1001.60"/>
    </edge>
    <edge id=":1089_6" function="internal">
        <lane id=":1089_6_0" index="0" speed="7.44" length="6.46" shape="209.18,1001.60 204.36,1000.94 203.07,1000.00"/>
    </edge>
    <edge id=":1089_7" function="internal">
        <lane id=":1089_7_0" index="0" speed="3.65" length="2.34" shape="209.18,1001.60 207.98,1000.80 207.58,1000.00"/>
    </edge>
    <edge id=":1089_16" function="internal">
        <lane id=":1089_16_0" index="0" speed="7.44" length="9.94" shape="203.07,1000.00 201.67,998.97 201.11,995.68 202.67,991.08"/>
    </edge>
    <edge id=":1089_17" function="internal">
        <lane id=":1089_17_0" index="0" speed="3.65" length="2.34" shape="207.58,1000.00 207.98,999.20 209.18,998.40"/>
    </edge>
    <edge id=":1089_8" function="internal">
        <lane id=":1089_8_0" index="0" speed="5.74" length="9.18" shape="205.54,992.51 204.66,995.09 204.97,996.93 206.48,998.03 209.18,998.40"/>
    </edge>
    <edge id=":1089_9" function="internal">
        <lane id=":1089_9_0" index="0" speed="13.89" length="15.33" shape="205.54,992.51 203.98,995.99 202.73,999.66 201.90,1003.42 201.60,1007.20"/>
    </edge>
    <edge id=":1089_10" function="internal">
        <lane id=":1089_10_0" index="0" speed="10.47" length="16.19" shape="205.54,992.51 203.16,995.85 199.85,998.76 196.20,1000.82 192.80,1001.60"/>
    </edge>
    <edge id=":1089_11" function="internal">
        <lane id=":1089_11_0" index="0" speed="3.65" length="4.67" shape="205.54,992.51 204.28,993.22 203.39,993.22 202.85,992.51 202.67,991.08"/>
    </edge>
    <edge id=":1089_12" function="internal">
        <lane id=":1089_12_0" index="0" speed="9.42" length="12.97" shape="192.80,998.40 195.75,997.94 198.37,996.57 200.68,994.28 202.67,991.08"/>
    </edge>
    <edge id=":1089_13" function="internal">
        <lane id=":1089_13_0" index="0" speed="13.89" length="16.38" shape="192.80,998.40 209.18,998.40"/>
    </edge>
    <edge id=":1089_14" function="internal">
        <lane id=":1089_14_0" index="0" speed="8.00" length="5.93" shape="192.80,998.40 196.65,998.95 198.40,1000.00"/>
    </edge>
    <edge id=":1089_15" function="internal">
        <lane id=":1089_15_0" index="0" speed="3.65" length="2.34" shape="192.80,998.40 194.00,999.20 194.40,1000.00"/>
    </edge>
    <edge id=":1089_18" function="internal">
        <lane id=":1089_18_0" index="0" speed="8.00" length="8.26" shape="198.40,1000.00 199.40,1000.60 201.05,1003.35 201.60,1007.20"/>
    </edge>
    <edge id=":1089_19" function="internal">
        <lane id=":1089_19_0" index="0" speed="3.65" length="2.34" shape="194.40,1000.00 194.00,1000.80 192.80,1001.60"/>
    </edge>
    <edge id=":1097_0" function="internal">
        <lane id=":1097_0_0" index="0" speed="6.08" length="7.74" shape="103.20,1201.60 101.10,1201.30 99.60,1200.40 98.70,1198.90 98.40,1196.80"/>
    </edge>
    <edge id=":1097_1" function="internal">
        <lane id=":1097_1_0" index="0" speed="3.90" length="2.58" shape="101.60,1196.80 101.70,1197.50 102.00,1198.00 102.50,1198.30 103.20,1198.40"/>
    </edge>
    <edge id=":1106_0" function="internal">
        <lane id=":1106_0_0" index="0" speed="3.65" length="4.67" shape="1298.40,1000.00 1299.20,998.80 1300.00,998.40 1300.80,998.80 1301.60,1000.00"/>
    </edge>
    <edge id=":1122_0" function="internal">
        <lane id=":1122_0_0" index="0" speed="3.65" length="4.67" shape="1400.00,1198.40 1401.20,1199.20 1401.60,1200.00 1401.20,1200.80 1400.00,1201.60"/>
    </edge>
    <edge id=":1151_0" function="internal">
        <lane id=":1151_0_0" index="0" speed="6.51" length="9.03" shape="98.40,1007.20 98.05,1004.75 97.00,1003.00 95.25,1001.95 92.80,1001.60"/>
    </edge>
    <edge id=":1151_1" function="internal">
        <lane id=":1151_1_0" index="0" speed="13.89" length="14.40" shape="98.40,1007.20 98.40,992.80"/>
    </edge>
    <edge id=":1151_2" function="internal">
        <lane id=":1151_2_0" index="0" speed="8.00" length="5.93" shape="98.40,1007.20 98.95,1003.35 100.00,1001.60"/>
    </edge>
    <edge id=":1151_3" function="internal">
        <lane id=":1151_3_0" index="0" speed="3.65" length="2.34" shape="98.40,1007.20 99.20,1006.00 100.00,1005.60"/>
    </edge>
    <edge id=":1151_16" function="internal">
        <lane id=":1151_16_0" index="0" speed="8.00" length="8.26" shape="100.00,1001.60 100.60,1000.60 103.35,998.95 107.20,998.40"/>
    </edge>
    <edge id=":1151_17" function="internal">
        <lane id=":1151_17_0" index="0" speed="3.65" length="2.34" shape="100.00,1005.60 100.80,1006.00 101.60,1007.20"/>
    </edge>
    <edge id=":1151_4" function="internal">
        <lane id=":1151_4_0" index="0" speed="6.51" length="9.03" shape="107.20,1001.60 104.75,1001.95 103.00,1003.00 101.95,1004.75 101.60,1007.20"/>
    </edge>
    <edge id=":1151_5" function="internal">
        <lane id=":1151_5_0" index="0" speed="13.89" length="14.40" shape="107.20,1001.60 92.80,1001.60"/>
    </edge>
    <edge id=":1151_6" function="internal">
        <lane id=":1151_6_0" index="0" speed="8.00" length="14.19" shape="107.20,1001.60 103.35,1001.05 100.60,999.40 98.95,996.65 98.40,992.80"/>
    </edge>
    <edge id=":1151_7" function="internal">
        <lane id=":1151_7_0" index="0" speed="3.65" length="4.67" shape="107.20,1001.60 106.00,1000.80 105.60,1000.00 106.00,999.20 107.20,998.40"/>
    </edge>
    <edge id=":1151_8" function="internal">
        <lane id=":1151_8_0" index="0" speed="6.51" length="9.03" shape="101.60,992.80 101.95,995.25 103.00,997.00 104.75,998.05 107.20,998.40"/>
    </edge>
    <edge id=":1151_9" function="internal">
        <lane id=":1151_9_0" index="0" speed="13.89" length="14.40" shape="101.60,992.80 101.60,1007.20"/>
    </edge>
    <edge id=":1151_10" function="internal">
        <lane id=":1151_10_0" index="0" speed="8.00" length="5.93" shape="101.60,992.80 101.05,996.65 100.00,998.40"/>
    </edge>
    <edge id=":1151_11" function="internal">
        <lane id=":1151_11_0" index="0" speed="3.65" length="2.34" shape="101.60,992.80 100.80,994.00 100.00,994.40"/>
    </edge>
    <edge id=":1151_18" function="internal">
        <lane id=":1151_18_0" index="0" speed="8.00" length="8.26" shape="100.00,998.40 99.40,999.40 96.65,1001.05 92.80,1001.60"/>
    </edge>
    <edge id=":1151_19" function="internal">
        <lane id=":1151_19_0" index="0" speed="3.65" length="2.34" shape="100.00,994.40 99.20,994.00 98.40,992.80"/>
    </edge>
    <edge id=":1151_12" function="internal">
        <lane id=":1151_12_0" index="0" speed="6.51" length="9.03" shape="92.80,998.40 95.25,998.05 97.00,997.00 98.05,995.25 98.40,992.80"/>
    </edge>
    <edge id=":1151_13" function="internal">
        <lane id=":1151_13_0" index="0" speed="13.89" length="14.40" shape="92.80,998.40 107.20,998.40"/>
    </edge>
    <edge id=":1151_14" function="internal">
        <lane id=":1151_14_0" index="0" speed="8.00" length="14.19" shape="92.80,998.40 96.65,998.95 99.40,1000.60 101.05,1003.35 101.60,1007.20"/>
    </edge>
    <edge id=":1151_15" function="internal">
        <lane id=":1151_15_0" index="0" speed="3.65" length="4.67" shape="92.80,998.40 94.00,999.20 94.40,1000.00 94.00,1000.80 92.80,1001.60"/>
    </edge>
    <edge id=":1156_0" function="internal">
        <lane id=":1156_0_0" index="0" speed="6.08" length="7.74" shape="203.20,1401.60 201.10,1401.30 199.60,1400.40 198.70,1398.90 198.40,1396.80"/>
    </edge>
    <edge id=":1156_1" function="internal">
        <lane id=":1156_1_0" index="0" speed="3.90" length="2.58" shape="201.60,1396.80 201.70,1397.50 202.00,1398.00 202.50,1398.30 203.20,1398.40"/>
    </edge>
    <edge id=":1326_0" function="internal">
        <lane id=":1326_0_0" index="0" speed="13.89" length="16.80" shape="698.40,1607.20 698.75,1603.20 699.70,1598.94 701.06,1594.78 702.67,1591.08"/>
    </edge>
    <edge id=":1326_1" function="internal">
        <lane id=":1326_1_0" index="0" speed="8.42" length="6.81" shape="698.40,1607.20 699.07,1603.35 700.79,1601.01"/>
    </edge>
    <edge id=":1326_2" function="internal">
        <lane id=":1326_2_0" index="0" speed="3.65" length="2.47" shape="698.40,1607.20 699.20,1606.00 700.00,1605.60 700.12,1605.66"/>
    </edge>
    <edge id=":1326_9" function="internal">
        <lane id=":1326_9_0" index="0" speed="8.42" length="9.01" shape="700.79,1601.01 701.09,1600.60 704.46,1598.95 709.18,1598.40"/>
    </edge>
    <edge id=":1326_10" function="internal">
        <lane id=":1326_10_0" index="0" speed="3.65" length="2.21" shape="700.12,1605.66 700.80,1606.00 701.60,1607.20"/>
    </edge>
    <edge id=":1326_3" function="internal">
        <lane id=":1326_3_0" index="0" speed="7.02" length="10.67" shape="709.18,1601.60 705.86,1601.95 703.49,1603.00 702.07,1604.75 701.60,1607.20"/>
    </edge>
    <edge id=":1326_4" function="internal">
        <lane id=":1326_4_0" index="0" speed="7.44" length="16.40" shape="709.18,1601.60 704.36,1600.94 701.67,1598.97 701.11,1595.68 702.67,1591.08"/>
    </edge>
    <edge id=":1326_5" function="internal">
        <lane id=":1326_5_0" index="0" speed="3.65" length="4.67" shape="709.18,1601.60 707.98,1600.80 707.58,1600.00 707.98,1599.20 709.18,1598.40"/>
    </edge>
    <edge id=":1326_6" function="internal">
        <lane id=":1326_6_0" index="0" speed="5.74" length="9.18" shape="705.54,1592.51 704.66,1595.09 704.97,1596.93 706.48,1598.03 709.18,1598.40"/>
    </edge>
    <edge id=":1326_7" function="internal">
        <lane id=":1326_7_0" index="0" speed="13.89" length="15.33" shape="705.54,1592.51 703.98,1595.99 702.73,1599.66 701.90,1603.42 701.60,1607.20"/>
    </edge>
    <edge id=":1326_8" function="internal">
        <lane id=":1326_8_0" index="0" speed="3.65" length="2.34" shape="705.54,1592.51 704.28,1593.22 703.39,1593.22"/>
    </edge>
    <edge id=":1326_11" function="internal">
        <lane id=":1326_11_0" index="0" speed="3.65" length="2.34" shape="703.39,1593.22 702.85,1592.51 702.67,1591.08"/>
    </edge>
    <edge id=":1334_0" function="internal">
        <lane id=":1334_0_0" index="0" speed="6.51" length="9.03" shape="998.40,307.20 998.05,304.75 997.00,303.00 995.25,301.95 992.80,301.60"/>
    </edge>
    <edge id=":1334_1" function="internal">
        <lane id=":1334_1_0" index="0" speed="13.89" length="14.40" shape="998.40,307.20 998.40,292.80"/>
    </edge>
    <edge id=":1334_2" function="internal">
        <lane id=":1334_2_0" index="0" speed="8.00" length="14.19" shape="998.40,307.20 998.95,303.35 1000.60,300.60 1003.35,298.95 1007.20,298.40"/>
    </edge>
    <edge id=":1334_3" function="internal">
        <lane id=":1334_3_0" index="0" speed="3.65" length="4.67" shape="998.40,307.20 999.20,306.00 1000.00,305.60 1000.80,306.00 1001.60,307.20"/>
    </edge>
    <edge id=":1334_4" function="internal">
        <lane id=":1334_4_0" index="0" speed="6.51" length="9.03" shape="1007.20,301.60 1004.75,301.95 1003.00,303.00 1001.95,304.75 1001.60,307.20"/>
    </edge>
    <edge id=":1334_5" function="internal">
        <lane id=":1334_5_0" index="0" speed="13.89" length="14.40" shape="1007.20,301.60 992.80,301.60"/>
    </edge>
    <edge id=":1334_6" function="internal">
        <lane id=":1334_6_0" index="0" speed="8.00" length="5.93" shape="1007.20,301.60 1003.35,301.05 1001.60,300.00"/>
    </edge>
    <edge id=":1334_7" function="internal">
        <lane id=":1334_7_0" index="0" speed="3.65" length="2.34" shape="1007.20,301.60 1006.00,300.80 1005.60,300.00"/>
    </edge>
    <edge id=":1334_16" function="internal">
        <lane id=":1334_16_0" index="0" speed="8.00" length="8.26" shape="1001.60,300.00 1000.60,299.40 998.95,296.65 998.40,292.80"/>
    </edge>
    <edge id=":1334_17" function="internal">
        <lane id=":1334_17_0" index="0" speed="3.65" length="2.34" shape="1005.60,300.00 1006.00,299.20 1007.20,298.40"/>
    </edge>
    <edge id=":1334_8" function="internal">
        <lane id=":1334_8_0" index="0" speed="6.51" length="9.03" shape="1001.60,292.80 1001.95,295.25 1003.00,297.00 1004.75,298.05 1007.20,298.40"/>
    </edge>
    <edge id=":1334_9" function="internal">
        <lane id=":1334_9_0" index="0" speed="13.89" length="14.40" shape="1001.60,292.80 1001.60,307.20"/>
    </edge>
    <edge id=":1334_10" function="internal">
        <lane id=":1334_10_0" index="0" speed="8.00" length="14.19" shape="1001.60,292.80 1001.05,296.65 999.40,299.40 996.65,301.05 992.80,301.60"/>
    </edge>
    <edge id=":1334_11" function="internal">
        <lane id=":1334_11_0" index="0" speed="3.65" length="4.67" shape="1001.60,292.80 1000.80,294.00 1000.00,294.40 999.20,294.00 998.40,292.80"/>
    </edge>
    <edge id=":1334_12" function="internal">
        <lane id=":1334_12_0" index="0" speed="6.51" length="9.03" shape="992.80,298.40 995.25,298.05 997.00,297.00 998.05,295.25 998.40,292.80"/>
    </edge>
    <edge id=":1334_13" function="internal">