<?xml version="1.0" encoding="UTF-8"?>

<!-- generated on 2023-06-26 09:03:51 by Eclipse SUMO netedit Version v1_17_0+1257-dff0b114716
-->

<routes xmlns:xsi="http://www.w3.org/2001/XMLSchema-instance" xsi:noNamespaceSchemaLocation="http://sumo.dlr.de/xsd/routes_file.xsd">
    <!-- Vehicles, persons and containers (sorted by depart) -->
    <flow id="f_0" begin="0.00" fromTaz="taz_green" toTaz="taz_red" personNumber="13" end="3600.00" vehsPerHour="1800.00"/>
</routes>
