<routes xmlns:xsi="http://www.w3.org/2001/XMLSchema-instance" xsi:noNamespaceSchemaLocation="http://sumo.dlr.de/xsd/routes_file.xsd">
    <vType sigma="0" id="default" carFollowModel="EIDM" accel="0.2"/>
    <vehicle id="0" type="default" depart="0" departSpeed="max">
        <route edges="a b"/>
        <stop edge="a" duration="1"/>
    </vehicle>
</routes>
