<routes>
    <vType id="DEFAULT_VEHTYPE" sigma="0" laneChangeModel="JE2013"/>
    <route id="main" edges="main_beg main_ramp main_end"/>
    <route id="ramp" edges="ramp_beg main_ramp main_end"/>

    <vehicle id="veh0" route="ramp" depart="0" color="green"/>
    <vehicle id="veh1" route="main" depart="8" color="red" arrivalLane="0"/>
</routes>
