<routes>    
    <vType id="car" sigma="0" width="2.1"/>
    <person id="p0" depart="0">
        <walk edges="SC" departPos="0.0" departPosLat="2"/>
    </person>
    <vehicle id="v0" type="car" depart="2">
        <route edges="SC"/>
    </vehicle>
</routes>
