<routes>
    <vType id="t1" sigma="0" length="8"/>
    <vType id="tB" length="3" vClass="pedestrian"/>

    <person id="p0" depart="10" type="tB">
        <walk edges="WC CE" departPos="-1"/>
    </person>

    <person id="blocker" depart="18" type="tB">
        <walk edges="CE WC" departPos="1"/>
    </person>
    <person id="blocker2" depart="18" type="tB">
        <walk edges="CE WC" departPos="1" departPosLat="0.7"/>
    </person>

    <vehicle id="v0" type="t1" depart="18" departPos="60">
        <route edges="SC CN"/>
    </vehicle>

</routes>
