<?xml version="1.0"?>

<!-- generated on Mon Jan 28 20:26:24 2013 by SUMO sumo Version dev-SVN-r13250
<?xml version="1.0" encoding="UTF-8"?>

<configuration xmlns:xsi="http://www.w3.org/2001/XMLSchema-instance" xsi:noNamespaceSchemaLocation="http://sumo.sf.net/xsd/sumoConfiguration.xsd">

    <input>
        <net-file value="net.net.xml"/>
        <route-files value="input_routes.rou.xml"/>
        <additional-files value="input_additional.add.xml"/>
    </input>

    <time>
        <begin value="0"/>
        <end value="200"/>
    </time>

    <report>
        <no-duration-log value="true"/>
        <no-step-log value="true"/>
    </report>

</configuration>
-->

<tls-switch-states>
    <tlsstate time="0.00" id="0" programID="actuated_additional" phase="0" state="GGggrrrrGGggrrrr"/>
    <tlsstate time="31.00" id="0" programID="actuated_additional" phase="1" state="yyggrrrryyggrrrr"/>
    <tlsstate time="35.00" id="0" programID="actuated_additional" phase="2" state="rrGGrrrrrrGGrrrr"/>
    <tlsstate time="40.00" id="0" programID="actuated_additional" phase="3" state="rryyrrrrrryyrrrr"/>
    <tlsstate time="44.00" id="0" programID="actuated_additional" phase="4" state="rrrrGGggrrrrGGgg"/>
    <tlsstate time="54.00" id="0" programID="actuated_additional" phase="5" state="rrrryyggrrrryygg"/>
    <tlsstate time="58.00" id="0" programID="actuated_additional" phase="6" state="rrrrrrGGrrrrrrGG"/>
    <tlsstate time="63.00" id="0" programID="actuated_additional" phase="7" state="rrrrrryyrrrrrryy"/>
    <tlsstate time="67.00" id="0" programID="actuated_additional" phase="0" state="GGggrrrrGGggrrrr"/>
    <tlsstate time="72.00" id="0" programID="actuated_additional" phase="1" state="yyggrrrryyggrrrr"/>
    <tlsstate time="76.00" id="0" programID="actuated_additional" phase="2" state="rrGGrrrrrrGGrrrr"/>
    <tlsstate time="81.00" id="0" programID="actuated_additional" phase="3" state="rryyrrrrrryyrrrr"/>
    <tlsstate time="85.00" id="0" programID="actuated_additional" phase="4" state="rrrrGGggrrrrGGgg"/>
    <tlsstate time="95.00" id="0" programID="actuated_additional" phase="5" state="rrrryyggrrrryygg"/>
    <tlsstate time="99.00" id="0" programID="actuated_additional" phase="6" state="rrrrrrGGrrrrrrGG"/>
    <tlsstate time="104.00" id="0" programID="actuated_additional" phase="7" state="rrrrrryyrrrrrryy"/>
    <tlsstate time="108.00" id="0" programID="actuated_additional" phase="0" state="GGggrrrrGGggrrrr"/>
    <tlsstate time="113.00" id="0" programID="actuated_additional" phase="1" state="yyggrrrryyggrrrr"/>
    <tlsstate time="117.00" id="0" programID="actuated_additional" phase="2" state="rrGGrrrrrrGGrrrr"/>
    <tlsstate time="122.00" id="0" programID="actuated_additional" phase="3" state="rryyrrrrrryyrrrr"/>
    <tlsstate time="126.00" id="0" programID="actuated_additional" phase="4" state="rrrrGGggrrrrGGgg"/>
    <tlsstate time="131.00" id="0" programID="actuated_additional" phase="5" state="rrrryyggrrrryygg"/>
    <tlsstate time="135.00" id="0" programID="actuated_additional" phase="6" state="rrrrrrGGrrrrrrGG"/>
    <tlsstate time="145.00" id="0" programID="actuated_additional" phase="7" state="rrrrrryyrrrrrryy"/>
    <tlsstate time="149.00" id="0" programID="actuated_additional" phase="0" state="GGggrrrrGGggrrrr"/>
    <tlsstate time="154.00" id="0" programID="actuated_additional" phase="1" state="yyggrrrryyggrrrr"/>
    <tlsstate time="158.00" id="0" programID="actuated_additional" phase="2" state="rrGGrrrrrrGGrrrr"/>
    <tlsstate time="163.00" id="0" programID="actuated_additional" phase="3" state="rryyrrrrrryyrrrr"/>
    <tlsstate time="167.00" id="0" programID="actuated_additional" phase="4" state="rrrrGGggrrrrGGgg"/>
    <tlsstate time="172.00" id="0" programID="actuated_additional" phase="5" state="rrrryyggrrrryygg"/>
    <tlsstate time="176.00" id="0" programID="actuated_additional" phase="6" state="rrrrrrGGrrrrrrGG"/>
    <tlsstate time="181.00" id="0" programID="actuated_additional" phase="7" state="rrrrrryyrrrrrryy"/>
    <tlsstate time="185.00" id="0" programID="actuated_additional" phase="0" state="GGggrrrrGGggrrrr"/>
    <tlsstate time="190.00" id="0" programID="actuated_additional" phase="1" state="yyggrrrryyggrrrr"/>
    <tlsstate time="194.00" id="0" programID="actuated_additional" phase="2" state="rrGGrrrrrrGGrrrr"/>
    <tlsstate time="199.00" id="0" programID="actuated_additional" phase="3" state="rryyrrrrrryyrrrr"/>
</tls-switch-states>
