<routes xmlns:xsi="http://www.w3.org/2001/XMLSchema-instance" xsi:noNamespaceSchemaLocation="http://sumo.dlr.de/xsd/routes_file.xsd">
    <vehicle id="p0_0" depart="triggered">
		<route edges="beg middle"/>
    </vehicle>

    <person id="p0" depart="0.00">
        <ride from="beg" to="middle" lines="p0_0"/>
        <walk edges="end"/>
    </person>
</routes>
