<?xml version="1.0" encoding="UTF-8"?>

<!-- generated on 2023-11-06 08:43:03 by Eclipse SUMO netedit Version v1_18_0+2429-1a41f4aa074
<configuration xmlns:xsi="http://www.w3.org/2001/XMLSchema-instance" xsi:noNamespaceSchemaLocation="http://sumo.dlr.de/xsd/neteditConfiguration.xsd">

    <input>
        <sumo-net-file value="D:\SUMO\tests\netedit\netelements\edges\contextual_menu\reset_lenght\net.net.xml"/>
    </input>

    <processing>
        <geometry.min-radius.fix.railways value="false"/>
        <geometry.max-grade.fix value="false"/>
        <offset.disable-normalization value="true"/>
        <lefthand value="0"/>
    </processing>

    <junctions>
        <no-turnarounds value="true"/>
        <junctions.corner-detail value="5"/>
        <junctions.limit-turn-speed value="5.50"/>
        <rectangular-lane-cut value="0"/>
    </junctions>

    <pedestrian>
        <walkingareas value="0"/>
    </pedestrian>

</configuration>
-->

<edges version="1.16" xmlns:xsi="http://www.w3.org/2001/XMLSchema-instance" xsi:noNamespaceSchemaLocation="http://sumo.dlr.de/xsd/edges_file.xsd">
    <edge id="gneE0" from="gneJ0" to="gneJ1" priority="1" numLanes="1" speed="13.89"/>
    <edge id="gneE1" from="gneJ1" to="gneJ0" priority="1" numLanes="1" speed="13.89"/>
    <edge id="gneE2" from="gneJ2" to="gneJ3" priority="1" numLanes="1" speed="13.89" length="500.00"/>
    <edge id="gneE4" from="gneJ3" to="gneJ1" priority="1" numLanes="1" speed="13.89"/>
    <edge id="gneE5" from="gneJ1" to="gneJ3" priority="1" numLanes="1" speed="13.89"/>
    <edge id="gneE8" from="gneJ2" to="gneJ0" priority="1" numLanes="1" speed="13.89"/>
    <edge id="gneE9" from="gneJ0" to="gneJ2" priority="1" numLanes="1" speed="13.89"/>
</edges>
