<?xml version="1.0" encoding="UTF-8"?>

<!-- generated on 2021-06-15 14:27:14 by Eclipse SUMO netedit Version v1_9_2+0562-734b028973
<configuration xmlns:xsi="http://www.w3.org/2001/XMLSchema-instance" xsi:noNamespaceSchemaLocation="http://sumo.dlr.de/xsd/netconvertConfiguration.xsd">

    <input>
        <sumo-net-file value="C:\Users\SUMO-Test\.texttest\tmp\netedit.gui.15Jun142414.5776\netedit.gui\additionalElements\vaporizer\create\end\input_net.net.xml"/>
    </input>

    <output>
        <output-file value="C:\Users\SUMO-Test\.texttest\tmp\netedit.gui.15Jun142414.5776\netedit.gui\additionalElements\vaporizer\create\end\net.net.xml"/>
    </output>

    <processing>
        <geometry.min-radius.fix.railways value="false"/>
        <geometry.max-grade.fix value="false"/>
        <offset.disable-normalization value="true"/>
        <lefthand value="false"/>
    </processing>

    <junctions>
        <no-turnarounds value="true"/>
        <junctions.corner-detail value="5"/>
        <junctions.limit-turn-speed value="5.5"/>
        <rectangular-lane-cut value="false"/>
    </junctions>

    <pedestrian>
        <walkingareas value="false"/>
    </pedestrian>

    <netedit>
        <additional-files value="C:\Users\SUMO-Test\.texttest\tmp\netedit.gui.15Jun142414.5776\netedit.gui\additionalElements\vaporizer\create\end\additionals.xml"/>
        <additionals-output value="C:\Users\SUMO-Test\.texttest\tmp\netedit.gui.15Jun142414.5776\netedit.gui\additionalElements\vaporizer\create\end\additionals.xml"/>
        <route-files value="C:\Users\SUMO-Test\.texttest\tmp\netedit.gui.15Jun142414.5776\netedit.gui\additionalElements\vaporizer\create\end\routes.xml"/>
        <demandelements-output value="C:\Users\SUMO-Test\.texttest\tmp\netedit.gui.15Jun142414.5776\netedit.gui\additionalElements\vaporizer\create\end\routes.xml"/>
        <data-files value="C:\Users\SUMO-Test\.texttest\tmp\netedit.gui.15Jun142414.5776\netedit.gui\additionalElements\vaporizer\create\end\datas.xml"/>
        <dataelements-output value="C:\Users\SUMO-Test\.texttest\tmp\netedit.gui.15Jun142414.5776\netedit.gui\additionalElements\vaporizer\create\end\datas.xml"/>
    </netedit>

    <visualisation>
        <gui-settings-file value="C:\Users\SUMO-Test\.texttest\tmp\netedit.gui.15Jun142414.5776\netedit.gui\additionalElements\vaporizer\create\end\gui-settings.xml"/>
        <window-size value="936,697"/>
        <window-pos value="50,50"/>
        <gui-testing value="true"/>
        <gui-testing-debug value="true"/>
        <gui-testing.setting-output value="C:\Users\SUMO-Test\.texttest\tmp\netedit.gui.15Jun142414.5776\netedit.gui\additionalElements\vaporizer\create\end\guisettingsoutput.xml"/>
    </visualisation>

    <report>
        <no-warnings value="true"/>
        <aggregate-warnings value="5"/>
        <error-log value="C:\Users\SUMO-Test\.texttest\tmp\netedit.gui.15Jun142414.5776\netedit.gui\additionalElements\vaporizer\create\end\log.txt"/>
    </report>

</configuration>
-->

<additional xmlns:xsi="http://www.w3.org/2001/XMLSchema-instance" xsi:noNamespaceSchemaLocation="http://sumo.dlr.de/xsd/additional_file.xsd">
    <vaporizer id="gneE0" begin="0.00" end="50.00"/>
    <vaporizer id="gneE1" begin="0.00" end="20.00"/>
</additional>
