<?xml version="1.0" encoding="UTF-8"?>

<!-- generated on 2025-05-19 16:56:39 by Eclipse SUMO netedit Version v1_23_1+0116-073b0fc757d
-->

<additional xmlns:xsi="http://www.w3.org/2001/XMLSchema-instance" xsi:noNamespaceSchemaLocation="http://sumo.dlr.de/xsd/additional_file.xsd">
    <!-- Routes (used in RouteProbReroutes and calibratorFlows) -->
    <route id="-A1A0_A1B1" edges="-A1A0 A1B1 B1C1 C1D1 D1E1"/>
    <route id="-A1A0_gneE28" edges="-A1A0 gneE28 A0B0 B0C0"/>
    <route id="-gneE14.122_-gneE12" edges="-gneE14.122 -gneE12 D0C0 C0B0"/>
    <route id="-gneE14.122_-gneE32" edges="-gneE14.122 -gneE32 F0F1 F1E1 E1D1"/>
    <route id="-gneE14_-gneE14.122" edges="-gneE14 -gneE14.122"/>
    <route id="-gneE14_-gneE39" edges="-gneE14 -gneE39"/>
    <route id="-gneE1_-gneE0" edges="-gneE1 -gneE0 D1E1"/>
    <route id="-gneE1_-gneE20" edges="-gneE1 -gneE20 -gneE19 -gneE18 -gneE16 -gneE14"/>
    <route id="-gneE38.328_-gneE38.389" edges="-gneE38.328 -gneE38.389 -gneE37 -gneE6.88 -gneE3 -gneE2 -gneE1"/>
    <route id="-gneE38.328_gneE38.39" edges="-gneE38.328 gneE38.39 gneE38.99 gneE38.308"/>
    <route id="-gneE39_-gneE38" edges="-gneE39 -gneE38 -gneE38.59 -gneE38.119 -gneE38.328"/>
    <route id="-gneE39_-gneE42" edges="-gneE39 -gneE42 -gneE41"/>
    <route id="-gneE41_-gneE40" edges="-gneE41 -gneE40 -gneE37 -gneE6.88 -gneE3 -gneE2 -gneE1"/>
    <route id="-gneE41_-gneE43" edges="-gneE41 -gneE43 -gneE34.267 -gneE6 -gneE6.88 -gneE3 -gneE2 -gneE1"/>
    <route id="B0A0_-A1A0" edges="B0A0 -A1A0"/>
    <route id="B0A0_-gneE24" edges="B0A0 -gneE24 A1A0 A0B0 B0C0"/>
    <route id="B0C0_-gneE10" edges="B0C0 -gneE10 -gneE9 -gneE8 -gneE7 -gneE6 -gneE6.88 -gneE3 -gneE2 -gneE1"/>
    <route id="B0C0_C0D0" edges="B0C0 C0D0"/>
    <route id="C0B0_B0A0" edges="C0B0 B0A0"/>
    <route id="C0B0_B0B1" edges="C0B0 B0B1 B1C1 C1D1 D1E1"/>
    <route id="C0D0_D0E0" edges="C0D0 D0E0"/>
    <route id="C0D0_gneE12" edges="C0D0 gneE12 gneE13 gneE13.107 gneE15 gneE17 gneE19 gneE20 gneE1 gneE2 gneE3 gneE6"/>
    <route id="C1B1_B1A1" edges="C1B1 B1A1 A1A0 A0B0 B0C0"/>
    <route id="C1B1_B1B0" edges="C1B1 B1B0 B0C0"/>
    <route id="D0E0_E0E1" edges="D0E0 E0E1 E1D1"/>
    <route id="D0E0_E0F0" edges="D0E0 E0F0 F0F1 F1E1 E1D1"/>
    <route id="D1E1_E1E0" edges="D1E1 E1E0 E0D0 D0C0 C0B0"/>
    <route id="D1E1_E1F1" edges="D1E1 E1F1 F1F0"/>
    <route id="E1D1_D1C1" edges="E1D1 D1C1 C1B1"/>
    <route id="E1D1_gneE0" edges="E1D1 gneE0 gneE1 gneE2 gneE3 gneE6"/>
    <route id="F1F0_F0E0" edges="F1F0 F0E0 E0D0 D0C0 C0B0"/>
    <route id="F1F0_gneE31" edges="F1F0 gneE31 gneE13 gneE13.107 gneE15 gneE17 gneE19 gneE20 gneE1 gneE2 gneE3 gneE6"/>
    <route id="gneE32_gneE32.34" edges="gneE32 gneE32.34 gneE33 -gneE33 -gneE34 -gneE34.267 -gneE6 -gneE6.88 -gneE3 -gneE2 -gneE1"/>
    <route id="gneE32_gneE43" edges="gneE32 gneE43 gneE41 gneE42 gneE39 gneE13.107 gneE15 gneE17 gneE19 gneE20 gneE1 gneE2 gneE3 gneE6"/>
    <route id="gneE36_gneE38" edges="gneE36 gneE38 gneE38.39 gneE38.99 gneE38.308"/>
    <route id="gneE36_gneE40" edges="gneE36 gneE40 gneE41 gneE42 gneE39 gneE13.107 gneE15 gneE17 gneE19 gneE20 gneE1 gneE2 gneE3 gneE6"/>
    <route id="gneE38.308_-gneE38.59" edges="gneE38.308 -gneE38.59 -gneE38.119 -gneE38.328"/>
    <route id="gneE38.308_gneE38.370" edges="gneE38.308 gneE38.370 gneE39 gneE13.107 gneE15 gneE17 gneE19 gneE20 gneE1 gneE2 gneE3 gneE6"/>
    <route id="gneE6.73_gneE32" edges="gneE6.73 gneE32"/>
    <route id="gneE6.73_gneE7" edges="gneE6.73 gneE7 gneE8 gneE9 gneE10 C0B0"/>
    <route id="gneE6_gneE36" edges="gneE6 gneE36"/>
    <route id="gneE6_gneE6.73" edges="gneE6 gneE6.73"/>
    <!-- Other additionals -->
    <rerouter id="rr_-A1A0" edges="-A1A0" pos="-3.79,94.46">
        <interval begin="0.00" end="86400.00">
            <routeProbReroute id="-A1A0_A1B1" probability="1.00"/>
            <routeProbReroute id="-A1A0_gneE28" probability="1.00"/>
        </interval>
    </rerouter>
    <rerouter id="rr_-gneE1" edges="-gneE1" pos="194.00,197.00">
        <interval begin="0.00" end="86400.00">
            <routeProbReroute id="-gneE1_-gneE0" probability="1.00"/>
            <routeProbReroute id="-gneE1_-gneE20" probability="1.00"/>
        </interval>
    </rerouter>
    <rerouter id="rr_-gneE14" edges="-gneE14" pos="529.40,-167.65">
        <interval begin="0.00" end="86400.00">
            <routeProbReroute id="-gneE14_-gneE14.122" probability="1.00"/>
            <routeProbReroute id="-gneE14_-gneE39" probability="1.00"/>
        </interval>
    </rerouter>
    <rerouter id="rr_-gneE14.122" edges="-gneE14.122" pos="406.44,-101.87">
        <interval begin="0.00" end="86400.00">
            <routeProbReroute id="-gneE14.122_-gneE12" probability="1.00"/>
            <routeProbReroute id="-gneE14.122_-gneE32" probability="1.00"/>
        </interval>
    </rerouter>
    <rerouter id="rr_-gneE38.328" edges="-gneE38.328" pos="-14.18,-147.00">
        <interval begin="0.00" end="86400.00">
            <routeProbReroute id="-gneE38.328_-gneE38.389" probability="1.00"/>
            <routeProbReroute id="-gneE38.328_gneE38.39" probability="0.00"/>
        </interval>
    </rerouter>
    <rerouter id="rr_-gneE39" edges="-gneE39" pos="382.21,-170.37">
        <interval begin="0.00" end="86400.00">
            <routeProbReroute id="-gneE39_-gneE38" probability="1.00"/>
            <routeProbReroute id="-gneE39_-gneE42" probability="1.00"/>
        </interval>
    </rerouter>
    <rerouter id="rr_-gneE41" edges="-gneE41" pos="-14.00,-127.00">
        <interval begin="0.00" end="86400.00">
            <routeProbReroute id="-gneE41_-gneE40" probability="1.00"/>
            <routeProbReroute id="-gneE41_-gneE43" probability="1.00"/>
        </interval>
    </rerouter>
    <rerouter id="rr_B0A0" edges="B0A0" pos="6.00,3.00">
        <interval begin="0.00" end="86400.00">
            <routeProbReroute id="B0A0_-A1A0" probability="1.00"/>
            <routeProbReroute id="B0A0_-gneE24" probability="1.00"/>
        </interval>
    </rerouter>
    <rerouter id="rr_B0C0" edges="B0C0" pos="194.00,-3.00">
        <interval begin="0.00" end="86400.00">
            <routeProbReroute id="B0C0_-gneE10" probability="1.00"/>
            <routeProbReroute id="B0C0_C0D0" probability="1.00"/>
        </interval>
    </rerouter>
    <rerouter id="rr_C0B0" edges="C0B0" pos="106.00,3.00">
        <interval begin="0.00" end="86400.00">
            <routeProbReroute id="C0B0_B0A0" probability="1.00"/>
            <routeProbReroute id="C0B0_B0B1" probability="1.00"/>
        </interval>
    </rerouter>
    <rerouter id="rr_C0D0" edges="C0D0" pos="294.00,-3.00">
        <interval begin="0.00" end="86400.00">
            <routeProbReroute id="C0D0_D0E0" probability="1.00"/>
            <routeProbReroute id="C0D0_gneE12" probability="1.00"/>
        </interval>
    </rerouter>
    <rerouter id="rr_C1B1" edges="C1B1" pos="106.00,103.00">
        <interval begin="0.00" end="86400.00">
            <routeProbReroute id="C1B1_B1A1" probability="1.00"/>
            <routeProbReroute id="C1B1_B1B0" probability="1.00"/>
        </interval>
    </rerouter>
    <rerouter id="rr_D0E0" edges="D0E0" pos="394.00,-3.00">
        <interval begin="0.00" end="86400.00">
            <routeProbReroute id="D0E0_E0E1" probability="1.00"/>
            <routeProbReroute id="D0E0_E0F0" probability="1.00"/>
        </interval>
    </rerouter>
    <rerouter id="rr_D1E1" edges="D1E1" pos="394.00,97.00">
        <interval begin="0.00" end="86400.00">
            <routeProbReroute id="D1E1_E1E0" probability="1.00"/>
            <routeProbReroute id="D1E1_E1F1" probability="1.00"/>
        </interval>
    </rerouter>
    <rerouter id="rr_E1D1" edges="E1D1" pos="306.00,103.00">
        <interval begin="0.00" end="86400.00">
            <routeProbReroute id="E1D1_D1C1" probability="1.00"/>
            <routeProbReroute id="E1D1_gneE0" probability="1.00"/>
        </interval>
    </rerouter>
    <rerouter id="rr_F1F0" edges="F1F0" pos="503.79,5.54">
        <interval begin="0.00" end="86400.00">
            <routeProbReroute id="F1F0_F0E0" probability="1.00"/>
            <routeProbReroute id="F1F0_gneE31" probability="1.00"/>
        </interval>
    </rerouter>
    <rerouter id="rr_gneE32" edges="gneE32" pos="-76.64,-110.95">
        <interval begin="0.00" end="86400.00">
            <routeProbReroute id="gneE32_gneE32.34" probability="1.00"/>
            <routeProbReroute id="gneE32_gneE43" probability="1.00"/>
        </interval>
    </rerouter>
    <rerouter id="rr_gneE36" edges="gneE36" pos="-66.40,-152.02">
        <interval begin="0.00" end="86400.00">
            <routeProbReroute id="gneE36_gneE38" probability="1.00"/>
            <routeProbReroute id="gneE36_gneE40" probability="1.00"/>
        </interval>
    </rerouter>
    <rerouter id="rr_gneE38.308" edges="gneE38.308" pos="304.23,-153.00">
        <interval begin="0.00" end="86400.00">
            <routeProbReroute id="gneE38.308_-gneE38.59" probability="0.00"/>
            <routeProbReroute id="gneE38.308_gneE38.370" probability="1.00"/>
        </interval>
    </rerouter>
    <rerouter id="rr_gneE6" edges="gneE6" pos="-186.00,-65.69">
        <interval begin="0.00" end="86400.00">
            <routeProbReroute id="gneE6_gneE36" probability="1.00"/>
            <routeProbReroute id="gneE6_gneE6.73" probability="1.00"/>
        </interval>
    </rerouter>
    <rerouter id="rr_gneE6.73" edges="gneE6.73" pos="-106.17,-102.64">
        <interval begin="0.00" end="86400.00">
            <routeProbReroute id="gneE6.73_gneE32" probability="1.00"/>
            <routeProbReroute id="gneE6.73_gneE7" probability="1.00"/>
        </interval>
    </rerouter>
    <!-- Wires -->
    <tractionSubstation id="tr_0" pos="149.92,45.56"/>
    <tractionSubstation id="tr_1" pos="-128.14,119.71"/>
    <tractionSubstation id="tr_2" pos="105.76,2.78"/>
</additional>
