<?xml version="1.0" encoding="UTF-8"?>

<!-- generated on 2024-09-25 08:34:08 by Eclipse SUMO sumo Version v1_20_0+0591-aafbbd9b23b
This data file and the accompanying materials
are made available under the terms of the Eclipse Public License v2.0
which accompanies this distribution, and is available at
http://www.eclipse.org/legal/epl-v20.html
This file may also be made available under the following Secondary
Licenses when the conditions for such availability set forth in the Eclipse
Public License 2.0 are satisfied: GNU General Public License, version 2
or later which is available at
https://www.gnu.org/licenses/old-licenses/gpl-2.0-standalone.html
SPDX-License-Identifier: EPL-2.0 OR GPL-2.0-or-later
<configuration xmlns:xsi="http://www.w3.org/2001/XMLSchema-instance" xsi:noNamespaceSchemaLocation="http://sumo.dlr.de/xsd/sumoConfiguration.xsd">

    <input>
        <net-file value="net.net.xml"/>
        <route-files value="input_routes.rou.xml"/>
        <additional-files value="input_additional.add.xml,input_additional2.add.xml"/>
    </input>

    <output>
        <write-license value="true"/>
        <railsignal-block-output value="railsignal_blocks.xml"/>
    </output>

    <time>
        <end value="3600"/>
        <step-length value="0.5"/>
    </time>

    <processing>
        <default.speeddev value="0"/>
    </processing>

    <report>
        <xml-validation value="never"/>
        <no-step-log value="true"/>
    </report>

    <gui_only>
        <gui-settings-file value="settings.xml"/>
    </gui_only>

</configuration>
-->

<railsignal-block-output>
    <departJunction id="B0">
        <driveWay id="B0.d0" vehicle="trip_1" edges="B0C0 C0D0 D0E0 E0E1 E1D1 D1C1 C1B1">
            <forward lanes="B0C0_0 :C0_3_0 C0D0_0 :D0_3_0 D0E0_0 :E0_3_0 E0E1_0 :E1_1_0 E1D1_0 :D1_1_0 D1C1_0 :C1_0_0 C1B1_0"/>
            <bidi lanes="C0B0_0 :C0_0_0 D0C0_0 :D0_0_0 E0D0_0 :E0_0_0 E1E0_0 :E1_2_0 D1E1_0 :D1_2_0 C1D1_0 :C1_1_0 B1C1_0"/>
            <flank lanes=""/>
            <protectingSwitches links=""/>
            <conflictLinks signals=""/>
            <foes driveWays="B0.d0"/>
        </driveWay>
    </departJunction>
</railsignal-block-output>
