<?xml version="1.0"?>

<!-- generated on 04/09/08 15:29:15 by SUMO netconvert Version 0.9.7
<configuration>

   <input>
      <xml-node-files>two_straight_3lanes.nod.xml</xml-node-files>
      <xml-edge-files>two_straight_3lanes.edg.xml</xml-edge-files>
   </input>

   <output>
      <output-file>net.net.xml</output-file>
   </output>

</configuration>
-->

<net>

   <location netOffset="-500.000000,0.000000" convBoundary="0.000000,0.000000,1000.000000,0.000000" origBoundary="500.000000,0.000000,1500.000000,0.000000" projParameter="!"/>

   <node_count>
   </node_count>

   <edge id="beg" from="beg" to="center" priority="-1" type="" function="normal">
      <lane id="beg_0" depart="1" maxspeed="27.80" length="500.00" shape="0.00,-8.25 500.00,-8.25"/>
      <lane id="beg_1" depart="0" maxspeed="27.80" length="500.00" shape="0.00,-4.95 500.00,-4.95"/>
      <lane id="beg_2" depart="0" maxspeed="27.80" length="500.00" shape="0.00,-1.65 500.00,-1.65"/>
   </edge>

   <edge id="end" from="center" to="end" priority="-1" type="" function="normal">
      <lane id="end_0" depart="1" maxspeed="27.80" length="500.00" shape="500.00,-8.25 1000.00,-8.25"/>
      <lane id="end_1" depart="0" maxspeed="27.80" length="500.00" shape="500.00,-4.95 1000.00,-4.95"/>
      <lane id="end_2" depart="0" maxspeed="27.80" length="500.00" shape="500.00,-1.65 1000.00,-1.65"/>
   </edge>

   <row-logic id="center" requestSize="3">
      <logicitem request="0" response="000" foes="000"/>
      <logicitem request="1" response="000" foes="000"/>
      <logicitem request="2" response="000" foes="000"/>
   </row-logic>

   <junction id="beg" type="DEAD_END" x="0.00" y="0.00" incLanes="" intLanes="" shape="-0.00,-0.05 -0.00,-9.85"/>

   <junction id="center" type="priority" x="500.00" y="0.00" incLanes="beg_0 beg_1 beg_2" intLanes="" shape="500.00,-0.05 500.00,-9.85 500.00,-0.05"/>

   <junction id="end" type="DEAD_END" x="1000.00" y="0.00" incLanes="end_0 end_1 end_2" intLanes="" shape="1000.00,-9.85 1000.00,-0.05"/>

   <succ edge="beg" lane="beg_0" junction="center">
      <succlane lane="end_0" yield="0" dir="s" state="M"/>
   </succ>

   <succ edge="beg" lane="beg_1" junction="center">
      <succlane lane="end_1" yield="0" dir="s" state="M"/>
   </succ>

   <succ edge="beg" lane="beg_2" junction="center">
      <succlane lane="end_2" yield="0" dir="s" state="M"/>
   </succ>

   <succ edge="end" lane="end_0" junction="end">
      <succlane lane="SUMO_NO_DESTINATION" yield="1" dir="s" state="O"/>
   </succ>

   <succ edge="end" lane="end_1" junction="end">
      <succlane lane="SUMO_NO_DESTINATION" yield="1" dir="s" state="O"/>
   </succ>

   <succ edge="end" lane="end_2" junction="end">
      <succlane lane="SUMO_NO_DESTINATION" yield="1" dir="s" state="O"/>
   </succ>

</net>
