<?xml version="1.0" encoding="UTF-8"?>

<!-- generated on 2021-11-30 07:49:32 by Eclipse SUMO netconvert Version v1_11_0+0181-2f671bb6a93
<configuration xmlns:xsi="http://www.w3.org/2001/XMLSchema-instance" xsi:noNamespaceSchemaLocation="http://sumo.dlr.de/xsd/netconvertConfiguration.xsd">

    <input>
        <type-files value="input_types.typ.xml"/>
        <opendrive-files value="opendrive"/>
    </input>

    <processing>
        <geometry.max-grade.fix value="false"/>
    </processing>

    <tls_building>
        <tls.left-green.time value="0"/>
    </tls_building>

    <junctions>
        <rectangular-lane-cut value="true"/>
    </junctions>

    <report>
        <aggregate-warnings value="5"/>
    </report>

</configuration>
-->

<net version="1.9" junctionCornerDetail="5" rectangularLaneCut="true" limitTurnSpeed="5.50" xmlns:xsi="http://www.w3.org/2001/XMLSchema-instance" xsi:noNamespaceSchemaLocation="http://sumo.dlr.de/xsd/net_file.xsd">

    <location netOffset="0.02,-0.28" convBoundary="0.00,0.00,1738.51,765.99" origBoundary="-0.02,0.28,1740.72,766.26" projParameter="!"/>

    <type id="biking" priority="1" speed="22.22" allow="bicycle" width="1.50"/>
    <type id="driving" priority="1" speed="22.22" disallow="pedestrian" width="3.65"/>
    <type id="mwyEntry" priority="1" speed="22.22" disallow="pedestrian" width="3.65"/>
    <type id="mwyExit" priority="1" speed="22.22" disallow="pedestrian" width="3.65"/>
    <type id="parking" priority="1" speed="1.39" disallow="pedestrian" width="3.65"/>
    <type id="restricted" priority="1" speed="22.22" allow="pedestrian bicycle" width="1.50"/>
    <type id="sidewalk" priority="1" speed="22.22" allow="pedestrian" width="2.50"/>
    <type id="special1" priority="1" speed="22.22" disallow="pedestrian" width="3.65"/>
    <type id="stop" priority="1" speed="22.22" disallow="pedestrian" width="3.65"/>

    <edge id=":1_0" function="internal">
        <lane id=":1_0_0" index="0" disallow="pedestrian" speed="3.65" length="4.67" width="3.20" shape="471.07,47.45 471.77,46.19 472.53,45.72 473.36,46.05 474.26,47.18"/>
    </edge>
    <edge id=":10_0" function="internal">
        <lane id=":10_0_0" index="0" disallow="all" speed="11.11" length="22.90" width="3.20" shape="377.18,471.96 373.02,469.17 367.61,465.56 362.09,462.21 357.57,460.25"/>
    </edge>
    <edge id=":10_1" function="internal">
        <lane id=":10_1_0" index="0" disallow="all" speed="5.83" length="13.79" width="3.20" shape="377.18,471.96 375.07,469.09 375.37,465.77 377.55,463.25 381.09,462.80"/>
    </edge>
    <edge id=":10_2" function="internal">
        <lane id=":10_2_0" index="0" allow="pedestrian" speed="3.65" length="4.67" width="3.20" shape="377.18,471.96 376.60,470.64 376.68,469.75 377.45,469.29 378.89,469.25"/>
    </edge>
    <edge id=":10_3" function="internal">
        <lane id=":10_3_0" index="0" disallow="all" speed="5.50" length="12.04" width="3.20" shape="380.31,465.90 376.05,465.08 374.40,465.36 375.34,466.75 378.89,469.25"/>
    </edge>
    <edge id=":10_4" function="internal">
        <lane id=":10_4_0" index="0" disallow="pedestrian" speed="13.89" length="23.44" width="3.20" shape="380.31,465.90 357.57,460.25"/>
    </edge>
    <edge id=":10_5" function="internal">
        <lane id=":10_5_0" index="0" disallow="pedestrian" speed="3.65" length="2.34" width="3.20" shape="380.31,465.90 379.34,464.84 379.15,463.97"/>
    </edge>
    <edge id=":10_9" function="internal">
        <lane id=":10_9_0" index="0" disallow="pedestrian" speed="3.65" length="2.34" width="3.20" shape="379.15,463.97 379.73,463.29 381.09,462.80"/>
    </edge>
    <edge id=":10_6" function="internal">
        <lane id=":10_6_0" index="0" disallow="pedestrian" speed="13.89" length="23.44" width="3.20" shape="358.34,457.15 381.09,462.80"/>
    </edge>
    <edge id=":10_7" function="internal">
        <lane id=":10_7_0" index="0" disallow="all" speed="11.11" length="7.71" width="3.20" shape="358.34,457.15 363.00,459.17 365.26,460.51"/>
    </edge>
    <edge id=":10_8" function="internal">
        <lane id=":10_8_0" index="0" disallow="pedestrian" speed="3.65" length="2.34" width="3.20" shape="358.34,457.15 359.31,458.21 359.51,459.08"/>
    </edge>
    <edge id=":10_10" function="internal">
        <lane id=":10_10_0" index="0" disallow="all" speed="11.11" length="16.19" width="3.20" shape="365.26,460.51 368.85,462.65 374.58,466.40 378.89,469.25"/>
    </edge>
    <edge id=":10_11" function="internal">
        <lane id=":10_11_0" index="0" disallow="pedestrian" speed="3.65" length="2.34" width="3.20" shape="359.51,459.08 358.93,459.76 357.57,460.25"/>
    </edge>
    <edge id=":11_0" function="internal">
        <lane id=":11_0_0" index="0" disallow="pedestrian" speed="13.89" length="10.17" width="3.20" shape="391.75,507.95 389.06,506.63 387.21,505.66 385.42,504.57 382.93,502.91"/>
    </edge>
    <edge id=":11_1" function="internal">
        <lane id=":11_1_0" index="0" disallow="all" speed="6.71" length="5.36" width="3.20" shape="391.75,507.95 389.07,506.12 388.03,504.29"/>
    </edge>
    <edge id=":11_2" function="internal">
        <lane id=":11_2_0" index="0" disallow="pedestrian" speed="3.65" length="2.34" width="3.20" shape="391.75,507.95 391.03,506.71 391.02,505.81"/>
    </edge>
    <edge id=":11_9" function="internal">
        <lane id=":11_9_0" index="0" disallow="all" speed="6.71" length="6.08" width="3.20" shape="388.03,504.29 387.85,503.97 388.10,501.52 389.81,498.75"/>
    </edge>
    <edge id=":11_10" function="internal">
        <lane id=":11_10_0" index="0" disallow="pedestrian" speed="3.65" length="2.34" width="3.20" shape="391.02,505.81 391.74,505.27 393.17,505.09"/>
    </edge>
    <edge id=":11_3" function="internal">
        <lane id=":11_3_0" index="0" disallow="all" speed="4.82" length="5.31" width="3.20" shape="392.27,500.81 391.47,502.09 391.35,503.23 391.92,504.23 393.17,505.09"/>
    </edge>
    <edge id=":11_4" function="internal">
        <lane id=":11_4_0" index="0" disallow="all" speed="7.28" length="10.67" width="3.20" shape="392.27,500.81 389.99,502.96 387.68,504.03 385.32,504.01 382.93,502.91"/>
    </edge>
    <edge id=":11_5" function="internal">
        <lane id=":11_5_0" index="0" allow="pedestrian" speed="3.65" length="4.67" width="3.20" shape="392.27,500.81 390.88,501.22 390.01,501.01 389.66,500.19 389.81,498.75"/>
    </edge>
    <edge id=":11_6" function="internal">
        <lane id=":11_6_0" index="0" disallow="all" speed="5.59" length="5.89" width="3.20" shape="384.72,500.27 385.96,500.79 387.21,500.71 388.50,500.04 389.81,498.75"/>
    </edge>
    <edge id=":11_7" function="internal">
        <lane id=":11_7_0" index="0" disallow="pedestrian" speed="13.89" length="9.74" width="3.20" shape="384.72,500.27 387.13,501.87 388.82,502.89 390.57,503.81 393.17,505.09"/>
    </edge>
    <edge id=":11_8" function="internal">
        <lane id=":11_8_0" index="0" disallow="pedestrian" speed="3.65" length="2.34" width="3.20" shape="384.72,500.27 385.27,501.60 385.15,502.49"/>
    </edge>
    <edge id=":11_11" function="internal">
        <lane id=":11_11_0" index="0" disallow="pedestrian" speed="3.65" length="2.34" width="3.20" shape="385.15,502.49 384.37,502.93 382.93,502.91"/>
    </edge>
    <edge id=":12_0" function="internal">
        <lane id=":12_0_0" index="0" disallow="all" speed="7.23" length="7.42" width="3.20" shape="416.90,475.00 415.61,475.00 414.17,475.63 412.58,476.86 410.84,478.71"/>
    </edge>
    <edge id=":12_1" function="internal">
        <lane id=":12_1_0" index="0" disallow="pedestrian" speed="13.89" length="10.13" width="3.20" shape="416.90,475.00 407.07,472.55"/>
    </edge>
    <edge id=":12_2" function="internal">
        <lane id=":12_2_0" index="0" disallow="pedestrian" speed="3.65" length="2.34" width="3.20" shape="416.90,475.00 415.93,473.93 415.73,473.06"/>
    </edge>
    <edge id=":12_9" function="internal">
        <lane id=":12_9_0" index="0" disallow="pedestrian" speed="3.65" length="2.34" width="3.20" shape="415.73,473.06 416.32,472.38 417.67,471.89"/>
    </edge>
    <edge id=":12_3" function="internal">
        <lane id=":12_3_0" index="0" disallow="pedestrian" speed="13.89" length="10.13" width="3.20" shape="407.84,469.45 417.67,471.89"/>
    </edge>
    <edge id=":12_4" function="internal">
        <lane id=":12_4_0" index="0" disallow="all" speed="6.67" length="5.64" width="3.20" shape="407.84,469.45 411.38,470.86 412.55,472.27"/>
    </edge>
    <edge id=":12_5" function="internal">
        <lane id=":12_5_0" index="0" disallow="pedestrian" speed="3.65" length="2.34" width="3.20" shape="407.84,469.45 408.81,470.51 409.01,471.39"/>
    </edge>
    <edge id=":12_10" function="internal">
        <lane id=":12_10_0" index="0" disallow="all" speed="6.67" length="7.23" width="3.20" shape="412.55,472.27 413.06,472.88 412.88,475.49 410.84,478.71"/>
    </edge>
    <edge id=":12_11" function="internal">
        <lane id=":12_11_0" index="0" disallow="pedestrian" speed="3.65" length="2.34" width="3.20" shape="409.01,471.39 408.42,472.07 407.07,472.55"/>
    </edge>
    <edge id=":12_6" function="internal">
        <lane id=":12_6_0" index="0" disallow="all" speed="4.70" length="5.69" width="3.20" shape="408.39,476.65 409.29,475.22 409.37,474.07 408.63,473.18 407.07,472.55"/>
    </edge>
    <edge id=":12_7" function="internal">
        <lane id=":12_7_0" index="0" disallow="all" speed="8.67" length="10.96" width="3.20" shape="408.39,476.65 410.82,474.16 413.18,472.54 415.46,471.78 417.67,471.89"/>
    </edge>
    <edge id=":12_8" function="internal">
        <lane id=":12_8_0" index="0" allow="pedestrian" speed="3.65" length="4.67" width="3.20" shape="408.39,476.65 409.78,476.25 410.65,476.46 411.00,477.28 410.84,478.71"/>
    </edge>
    <edge id=":13_0" function="internal">
        <lane id=":13_0_0" index="0" disallow="all" speed="5.13" length="5.11" width="3.20" shape="541.13,511.77 539.80,511.48 538.68,511.70 537.76,512.43 537.04,513.67"/>
    </edge>
    <edge id=":13_1" function="internal">
        <lane id=":13_1_0" index="0" disallow="pedestrian" speed="13.89" length="9.40" width="3.20" shape="541.13,511.77 532.33,508.43"/>
    </edge>
    <edge id=":13_2" function="internal">
        <lane id=":13_2_0" index="0" disallow="pedestrian" speed="3.65" length="2.34" width="3.20" shape="541.13,511.77 540.29,510.59 540.20,509.70"/>
    </edge>
    <edge id=":13_9" function="internal">
        <lane id=":13_9_0" index="0" disallow="pedestrian" speed="3.65" length="2.34" width="3.20" shape="540.20,509.70 540.86,509.10 542.26,508.77"/>
    </edge>
    <edge id=":13_3" function="internal">
        <lane id=":13_3_0" index="0" disallow="pedestrian" speed="13.89" length="9.40" width="3.20" shape="533.47,505.44 542.26,508.77"/>
    </edge>
    <edge id=":13_4" function="internal">
        <lane id=":13_4_0" index="0" disallow="all" speed="6.84" length="5.15" width="3.20" shape="533.47,505.44 535.95,506.81 537.37,508.64"/>
    </edge>
    <edge id=":13_5" function="internal">
        <lane id=":13_5_0" index="0" disallow="pedestrian" speed="3.65" length="2.34" width="3.20" shape="533.47,505.44 534.31,506.61 534.40,507.50"/>
    </edge>
    <edge id=":13_10" function="internal">
        <lane id=":13_10_0" index="0" disallow="all" speed="6.84" length="5.15" width="3.20" shape="537.37,508.64 537.73,510.93 537.04,513.67"/>
    </edge>
    <edge id=":13_11" function="internal">
        <lane id=":13_11_0" index="0" disallow="pedestrian" speed="3.65" length="2.34" width="3.20" shape="534.40,507.50 533.74,508.11 532.33,508.43"/>
    </edge>
    <edge id=":13_6" function="internal">
        <lane id=":13_6_0" index="0" disallow="all" speed="5.01" length="5.03" width="3.20" shape="534.08,512.46 534.42,511.11 534.24,510.00 533.55,509.10 532.33,508.43"/>
    </edge>
    <edge id=":13_7" function="internal">
        <lane id=":13_7_0" index="0" disallow="all" speed="6.93" length="10.17" width="3.20" shape="534.08,512.46 535.50,510.02 537.33,508.60 539.59,508.18 542.26,508.77"/>
    </edge>
    <edge id=":13_8" function="internal">
        <lane id=":13_8_0" index="0" allow="pedestrian" speed="3.65" length="4.67" width="3.20" shape="534.08,512.46 535.28,511.65 536.17,511.58 536.76,512.26 537.04,513.67"/>
    </edge>
    <edge id=":14_0" function="internal">
        <lane id=":14_0_0" index="0" disallow="pedestrian" speed="13.89" length="4.50" width="3.20" shape="504.65,563.12 503.37,562.74 502.49,562.48 501.64,562.15 500.43,561.59"/>
    </edge>
    <edge id=":14_1" function="internal">
        <lane id=":14_1_0" index="0" disallow="all" speed="11.11" length="2.77" width="3.20" shape="504.65,563.12 502.96,560.94"/>
    </edge>
    <edge id=":14_2" function="internal">
        <lane id=":14_2_0" index="0" disallow="all" speed="8.67" length="4.02" width="3.20" shape="504.65,563.12 501.89,561.06 501.85,560.48"/>
    </edge>
    <edge id=":14_3" function="internal">
        <lane id=":14_3_0" index="0" disallow="pedestrian" speed="3.65" length="2.34" width="3.20" shape="504.65,563.12 503.74,562.00 503.60,561.12"/>
    </edge>
    <edge id=":14_16" function="internal">
        <lane id=":14_16_0" index="0" disallow="all" speed="11.11" length="13.94" width="3.20" shape="502.96,560.94 502.66,560.55 502.69,556.06 502.99,551.13 501.84,547.28"/>
    </edge>
    <edge id=":14_17" function="internal">
        <lane id=":14_17_0" index="0" disallow="all" speed="8.67" length="17.36" width="3.20" shape="501.85,560.48 501.64,557.36 503.88,552.02 508.63,545.04"/>
    </edge>
    <edge id=":14_18" function="internal">
        <lane id=":14_18_0" index="0" disallow="pedestrian" speed="3.65" length="2.34" width="3.20" shape="503.60,561.12 504.22,560.48 505.60,560.07"/>
    </edge>
    <edge id=":14_4" function="internal">
        <lane id=":14_4_0" index="0" disallow="all" speed="7.42" length="15.29" width="3.20" shape="511.17,546.99 507.37,552.29 505.18,556.24 504.59,558.83 505.60,560.07"/>
    </edge>
    <edge id=":14_5" function="internal">
        <lane id=":14_5_0" index="0" disallow="all" speed="9.71" length="18.15" width="3.20" shape="511.17,546.99 509.36,549.67 505.91,554.75 502.40,559.60 500.43,561.59"/>
    </edge>
    <edge id=":14_6" function="internal">
        <lane id=":14_6_0" index="0" allow="pedestrian" speed="6.73" length="11.20" width="3.20" shape="511.17,546.99 508.90,549.20 506.59,549.98 504.24,549.34 501.84,547.28"/>
    </edge>
    <edge id=":14_7" function="internal">
        <lane id=":14_7_0" index="0" allow="pedestrian" speed="3.65" length="4.67" width="3.20" shape="511.17,546.99 509.80,547.46 508.92,547.29 508.53,546.48 508.63,545.04"/>
    </edge>
    <edge id=":14_8" function="internal">
        <lane id=":14_8_0" index="0" allow="pedestrian" speed="4.86" length="5.26" width="3.20" shape="504.25,545.17 505.38,546.14 506.48,546.44 507.57,546.08 508.63,545.04"/>
    </edge>
    <edge id=":14_9" function="internal">
        <lane id=":14_9_0" index="0" disallow="all" speed="11.11" length="14.96" width="3.20" shape="504.25,545.17 505.60,560.07"/>
    </edge>
    <edge id=":14_10" function="internal">
        <lane id=":14_10_0" index="0" disallow="all" speed="7.44" length="23.00" width="3.20" shape="504.25,545.17 507.43,551.30 507.80,557.58 505.43,561.76 500.43,561.59"/>
    </edge>
    <edge id=":14_11" function="internal">
        <lane id=":14_11_0" index="0" allow="pedestrian" speed="3.65" length="4.67" width="3.20" shape="504.25,545.17 504.44,546.61 504.10,547.43 503.23,547.66 501.84,547.28"/>
    </edge>
    <edge id=":14_12" function="internal">
        <lane id=":14_12_0" index="0" disallow="all" speed="7.75" length="25.11" width="3.20" shape="501.85,558.72 508.40,561.23 510.58,560.17 508.39,555.51 501.84,547.28"/>
    </edge>
    <edge id=":14_13" function="internal">
        <lane id=":14_13_0" index="0" disallow="all" speed="9.12" length="15.93" width="3.20" shape="501.85,558.72 501.26,557.36 502.19,554.63 504.65,550.52 508.63,545.04"/>
    </edge>
    <edge id=":14_14" function="internal">
        <lane id=":14_14_0" index="0" disallow="pedestrian" speed="13.89" length="4.00" width="3.20" shape="501.85,558.72 502.92,559.22 503.68,559.50 504.46,559.73 505.60,560.07"/>
    </edge>
    <edge id=":14_15" function="internal">
        <lane id=":14_15_0" index="0" disallow="pedestrian" speed="3.65" length="2.34" width="3.20" shape="501.85,558.72 502.57,559.96 502.57,560.86"/>
    </edge>
    <edge id=":14_19" function="internal">
        <lane id=":14_19_0" index="0" disallow="pedestrian" speed="3.65" length="2.34" width="3.20" shape="502.57,560.86 501.86,561.40 500.43,561.59"/>
    </edge>
    <edge id=":15_0" function="internal">
        <lane id=":15_0_0" index="0" allow="bicycle" speed="3.65" length="4.67" width="3.20" shape="14.58,169.55 13.28,168.91 12.78,168.17 13.07,167.32 14.16,166.37"/>
    </edge>
    <edge id=":16_0" function="internal">
        <lane id=":16_0_0" index="0" allow="pedestrian" speed="5.81" length="6.30" width="3.20" shape="1019.94,536.42 1019.09,535.03 1017.94,534.19 1016.48,533.90 1014.73,534.15"/>
    </edge>
    <edge id=":16_1" function="internal">
        <lane id=":16_1_0" index="0" allow="pedestrian" speed="8.33" length="10.27" width="3.20" shape="1019.94,536.42 1015.68,527.07"/>
    </edge>
    <edge id=":16_2" function="internal">
        <lane id=":16_2_0" index="0" allow="pedestrian" speed="6.79" length="10.62" width="3.20" shape="1019.94,536.42 1019.19,533.57 1019.58,531.24 1021.10,529.43 1023.76,528.15"/>
    </edge>
    <edge id=":16_3" function="internal">
        <lane id=":16_3_0" index="0" allow="pedestrian" speed="3.65" length="4.67" width="3.20" shape="1019.94,536.42 1020.21,535.00 1020.79,534.32 1021.68,534.38 1022.89,535.18"/>
    </edge>
    <edge id=":16_4" function="internal">
        <lane id=":16_4_0" index="0" allow="pedestrian" speed="4.95" length="5.11" width="3.20" shape="1024.73,531.20 1023.45,531.81 1022.72,532.68 1022.53,533.81 1022.89,535.18"/>
    </edge>
    <edge id=":16_5" function="internal">
        <lane id=":16_5_0" index="0" allow="pedestrian" speed="8.33" length="10.42" width="3.20" shape="1024.73,531.20 1014.73,534.15"/>
    </edge>
    <edge id=":16_6" function="internal">
        <lane id=":16_6_0" index="0" allow="pedestrian" speed="7.52" length="2.23" width="3.20" shape="1024.73,531.20 1022.53,531.56"/>
    </edge>
    <edge id=":16_7" function="internal">
        <lane id=":16_7_0" index="0" allow="pedestrian" speed="3.65" length="2.34" width="3.20" shape="1024.73,531.20 1023.34,530.80 1022.72,530.16"/>
    </edge>
    <edge id=":16_16" function="internal">
        <lane id=":16_16_0" index="0" allow="pedestrian" speed="7.52" length="8.77" width="3.20" shape="1022.53,531.56 1021.88,531.66 1019.42,531.13 1017.36,529.60 1015.68,527.07"/>
    </edge>
    <edge id=":16_17" function="internal">
        <lane id=":16_17_0" index="0" allow="pedestrian" speed="3.65" length="2.34" width="3.20" shape="1022.72,530.16 1022.86,529.27 1023.76,528.15"/>
    </edge>
    <edge id=":16_8" function="internal">
        <lane id=":16_8_0" index="0" allow="pedestrian" speed="5.88" length="6.38" width="3.20" shape="1018.56,525.67 1019.54,527.16 1020.73,528.07 1022.14,528.40 1023.76,528.15"/>
    </edge>
    <edge id=":16_9" function="internal">
        <lane id=":16_9_0" index="0" allow="pedestrian" speed="8.33" length="10.45" width="3.20" shape="1018.56,525.67 1022.89,535.18"/>
    </edge>
    <edge id=":16_10" function="internal">
        <lane id=":16_10_0" index="0" allow="pedestrian" speed="6.73" length="11.13" width="3.20" shape="1018.56,525.67 1019.52,528.65 1019.20,531.06 1017.60,532.89 1014.73,534.15"/>
    </edge>
    <edge id=":16_11" function="internal">
        <lane id=":16_11_0" index="0" allow="pedestrian" speed="3.65" length="4.67" width="3.20" shape="1018.56,525.67 1018.36,527.10 1017.82,527.81 1016.93,527.80 1015.68,527.07"/>
    </edge>
    <edge id=":16_12" function="internal">
        <lane id=":16_12_0" index="0" allow="pedestrian" speed="4.87" length="5.24" width="3.20" shape="1013.88,531.06 1015.23,530.47 1015.98,529.61 1016.13,528.48 1015.68,527.07"/>
    </edge>
    <edge id=":16_13" function="internal">
        <lane id=":16_13_0" index="0" allow="pedestrian" speed="8.33" length="10.30" width="3.20" shape="1013.88,531.06 1023.76,528.15"/>
    </edge>
    <edge id=":16_14" function="internal">
        <lane id=":16_14_0" index="0" allow="pedestrian" speed="7.46" length="2.35" width="3.20" shape="1013.88,531.06 1016.21,530.74"/>
    </edge>
    <edge id=":16_15" function="internal">
        <lane id=":16_15_0" index="0" allow="pedestrian" speed="3.65" length="2.34" width="3.20" shape="1013.88,531.06 1015.25,531.52 1015.85,532.18"/>
    </edge>
    <edge id=":16_18" function="internal">
        <lane id=":16_18_0" index="0" allow="pedestrian" speed="7.46" length="8.65" width="3.20" shape="1016.21,530.74 1016.89,530.65 1019.39,531.19 1021.39,532.71 1022.89,535.18"/>
    </edge>
    <edge id=":16_19" function="internal">
        <lane id=":16_19_0" index="0" allow="pedestrian" speed="3.65" length="2.34" width="3.20" shape="1015.85,532.18 1015.67,533.06 1014.73,534.15"/>
    </edge>
    <edge id=":17_0" function="internal">
        <lane id=":17_0_0" index="0" disallow="all" speed="7.63" length="12.56" width="3.20" shape="1055.56,524.74 1054.06,524.42 1051.91,525.42 1049.10,527.74 1045.65,531.38"/>
    </edge>
    <edge id=":17_1" function="internal">
        <lane id=":17_1_0" index="0" disallow="all" speed="10.71" length="14.86" width="3.20" shape="1055.56,524.74 1053.58,523.92 1050.51,523.86 1046.36,524.55 1041.12,526.01"/>
    </edge>
    <edge id=":17_2" function="internal">
        <lane id=":17_2_0" index="0" disallow="pedestrian" speed="13.89" length="11.96" width="3.20" shape="1055.56,524.74 1046.38,517.08"/>
    </edge>
    <edge id=":17_3" function="internal">
        <lane id=":17_3_0" index="0" disallow="pedestrian" speed="3.65" length="2.34" width="3.20" shape="1055.56,524.74 1055.15,523.36 1055.36,522.49"/>
    </edge>
    <edge id=":17_16" function="internal">
        <lane id=":17_16_0" index="0" disallow="pedestrian" speed="3.65" length="2.34" width="3.20" shape="1055.36,522.49 1056.18,522.13 1057.61,522.29"/>
    </edge>
    <edge id=":17_4" function="internal">
        <lane id=":17_4_0" index="0" disallow="pedestrian" speed="13.89" length="11.96" width="3.20" shape="1048.43,514.62 1057.61,522.29"/>
    </edge>
    <edge id=":17_5" function="internal">
        <lane id=":17_5_0" index="0" disallow="all" speed="9.13" length="4.98" width="3.20" shape="1048.43,514.62 1050.84,517.83 1050.93,518.79"/>
    </edge>
    <edge id=":17_6" function="internal">
        <lane id=":17_6_0" index="0" disallow="all" speed="7.55" length="4.94" width="3.20" shape="1048.43,514.62 1050.93,517.80 1050.81,518.69"/>
    </edge>
    <edge id=":17_7" function="internal">
        <lane id=":17_7_0" index="0" disallow="pedestrian" speed="3.65" length="2.34" width="3.20" shape="1048.43,514.62 1048.84,516.00 1048.64,516.87"/>
    </edge>
    <edge id=":17_17" function="internal">
        <lane id=":17_17_0" index="0" disallow="all" speed="9.13" length="14.17" width="3.20" shape="1050.93,518.79 1051.18,521.69 1049.45,526.20 1045.65,531.38"/>
    </edge>
    <edge id=":17_18" function="internal">
        <lane id=":17_18_0" index="0" disallow="all" speed="7.55" length="12.99" width="3.20" shape="1050.81,518.69 1050.54,520.76 1047.27,523.49 1041.12,526.01"/>
    </edge>
    <edge id=":17_19" function="internal">
        <lane id=":17_19_0" index="0" disallow="pedestrian" speed="3.65" length="2.34" width="3.20" shape="1048.64,516.87 1047.82,517.23 1046.38,517.08"/>
    </edge>
    <edge id=":17_8" function="internal">
        <lane id=":17_8_0" index="0" disallow="all" speed="5.90" length="10.38" width="3.20" shape="1040.16,522.96 1044.15,521.45 1046.52,519.96 1047.26,518.51 1046.38,517.08"/>
    </edge>
    <edge id=":17_9" function="internal">
        <lane id=":17_9_0" index="0" disallow="all" speed="11.11" length="18.01" width="3.20" shape="1040.16,522.96 1046.21,521.34 1051.14,520.69 1054.94,521.01 1057.61,522.29"/>
    </edge>
    <edge id=":17_10" function="internal">
        <lane id=":17_10_0" index="0" allow="pedestrian" speed="7.37" length="21.22" width="3.20" shape="1040.16,522.96 1047.21,521.36 1050.47,522.23 1049.95,525.57 1045.65,531.38"/>
    </edge>
    <edge id=":17_11" function="internal">
        <lane id=":17_11_0" index="0" allow="pedestrian" speed="3.65" length="4.67" width="3.20" shape="1040.16,522.96 1041.54,523.36 1042.17,524.00 1042.03,524.88 1041.12,526.01"/>
    </edge>
    <edge id=":17_12" function="internal">
        <lane id=":17_12_0" index="0" allow="pedestrian" speed="4.87" length="8.20" width="3.20" shape="1043.25,529.26 1044.91,527.02 1045.11,525.72 1043.85,525.39 1041.12,526.01"/>
    </edge>
    <edge id=":17_13" function="internal">
        <lane id=":17_13_0" index="0" disallow="all" speed="7.87" length="13.97" width="3.20" shape="1043.25,529.26 1046.26,525.30 1047.78,521.95 1047.83,519.21 1046.38,517.08"/>
    </edge>
    <edge id=":17_14" function="internal">
        <lane id=":17_14_0" index="0" disallow="all" speed="8.88" length="17.38" width="3.20" shape="1043.25,529.26 1047.75,524.72 1051.65,522.05 1054.93,521.24 1057.61,522.29"/>
    </edge>
    <edge id=":17_15" function="internal">
        <lane id=":17_15_0" index="0" allow="pedestrian" speed="3.65" length="4.67" width="3.20" shape="1043.25,529.26 1044.64,528.89 1045.50,529.12 1045.84,529.95 1045.65,531.38"/>
    </edge>
    <edge id=":18_0" function="internal">
        <lane id=":18_0_0" index="0" allow="pedestrian" speed="7.78" length="8.00" width="3.20" shape="979.90,549.30 977.78,547.46 975.93,546.24 974.36,545.65 973.06,545.68"/>
    </edge>
    <edge id=":18_1" function="internal">
        <lane id=":18_1_0" index="0" allow="pedestrian" speed="8.33" length="18.92" width="3.20" shape="979.90,549.30 977.74,546.00 977.61,542.15 979.49,537.73 983.38,532.75"/>
    </edge>
    <edge id=":18_2" function="internal">
        <lane id=":18_2_0" index="0" allow="pedestrian" speed="7.55" length="17.72" width="3.20" shape="979.90,549.30 977.68,546.03 978.24,543.10 981.60,540.51 987.74,538.26"/>
    </edge>
    <edge id=":18_3" function="internal">
        <lane id=":18_3_0" index="0" allow="pedestrian" speed="3.65" length="4.67" width="3.20" shape="979.90,549.30 979.58,547.89 979.84,547.04 980.69,546.73 982.11,546.98"/>
    </edge>
    <edge id=":18_4" function="internal">
        <lane id=":18_4_0" index="0" allow="pedestrian" speed="5.93" length="10.33" width="3.20" shape="988.59,541.35 984.58,542.69 982.16,544.08 981.34,545.51 982.11,546.98"/>
    </edge>
    <edge id=":18_5" function="internal">
        <lane id=":18_5_0" index="0" allow="pedestrian" speed="8.33" length="16.13" width="3.20" shape="988.59,541.35 973.06,545.68"/>
    </edge>
    <edge id=":18_6" function="internal">
        <lane id=":18_6_0" index="0" allow="pedestrian" speed="7.34" length="8.90" width="3.20" shape="988.59,541.35 981.59,542.65 979.89,542.11"/>
    </edge>
    <edge id=":18_7" function="internal">
        <lane id=":18_7_0" index="0" allow="pedestrian" speed="3.65" length="2.34" width="3.20" shape="988.59,541.35 987.22,540.89 986.63,540.23"/>
    </edge>
    <edge id=":18_16" function="internal">
        <lane id=":18_16_0" index="0" allow="pedestrian" speed="7.34" length="12.04" width="3.20" shape="979.89,542.11 978.39,541.65 978.99,538.35 983.38,532.75"/>
    </edge>
    <edge id=":18_17" function="internal">
        <lane id=":18_17_0" index="0" allow="pedestrian" speed="3.65" length="2.34" width="3.20" shape="986.63,540.23 986.80,539.35 987.74,538.26"/>
    </edge>
    <edge id=":18_8" function="internal">
        <lane id=":18_8_0" index="0" allow="pedestrian" speed="4.86" length="8.12" width="3.20" shape="985.73,534.93 984.02,537.10 983.79,538.38 985.03,538.76 987.74,538.26"/>
    </edge>
    <edge id=":18_9" function="internal">
        <lane id=":18_9_0" index="0" allow="pedestrian" speed="7.95" length="13.89" width="3.20" shape="985.73,534.93 982.63,538.76 980.99,542.05 980.82,544.79 982.11,546.98"/>
    </edge>
    <edge id=":18_10" function="internal">
        <lane id=":18_10_0" index="0" allow="pedestrian" speed="8.33" length="16.79" width="3.20" shape="985.73,534.93 982.98,537.95 979.91,541.15 976.58,543.92 973.06,545.68"/>
    </edge>
    <edge id=":18_11" function="internal">
        <lane id=":18_11_0" index="0" allow="pedestrian" speed="3.65" length="4.67" width="3.20" shape="985.73,534.93 984.32,535.26 983.46,535.01 983.15,534.17 983.38,532.75"/>
    </edge>
    <edge id=":18_12" function="internal">
        <lane id=":18_12_0" index="0" allow="pedestrian" speed="8.33" length="15.13" width="3.20" shape="972.16,542.61 975.46,540.99 978.29,538.52 980.87,535.63 983.38,532.75"/>
    </edge>
    <edge id=":18_13" function="internal">
        <lane id=":18_13_0" index="0" allow="pedestrian" speed="8.33" length="16.18" width="3.20" shape="972.16,542.61 987.74,538.26"/>
    </edge>
    <edge id=":18_14" function="internal">
        <lane id=":18_14_0" index="0" allow="pedestrian" speed="8.33" length="4.46" width="3.20" shape="972.16,542.61 974.32,542.43 976.52,543.05"/>
    </edge>
    <edge id=":18_15" function="internal">
        <lane id=":18_15_0" index="0" allow="pedestrian" speed="3.65" length="2.34" width="3.20" shape="972.16,542.61 973.54,543.04 974.14,543.70"/>
    </edge>
    <edge id=":18_18" function="internal">
        <lane id=":18_18_0" index="0" allow="pedestrian" speed="8.33" length="6.86" width="3.20" shape="976.52,543.05 976.69,543.10 979.29,544.62 982.11,546.98"/>
    </edge>
    <edge id=":18_19" function="internal">
        <lane id=":18_19_0" index="0" allow="pedestrian" speed="3.65" length="2.34" width="3.20" shape="974.14,543.70 973.99,544.58 973.06,545.68"/>
    </edge>