<routes>
    <vType id="t0" speedDev="0.1"/>
    <route id="main" edges="beg2 merge end" color="blue"/>
    <route id="onRamp" edges="onRamp merge end" color="red"/>
    <flow id="main"   type="t0" begin="0" end="1000" route="main"   departSpeed="avg" departPos="-1000" departLane="free" probability="0.8"/>
    <flow id="onRamp" type="t0" begin="0" end="1000" route="onRamp" departSpeed="avg" probability="0.3"/>
</routes>
