<additional xmlns:xsi="http://www.w3.org/2001/XMLSchema-instance" xsi:noNamespaceSchemaLocation="http://sumo.dlr.de/xsd/additional_file.xsd">


   <tlLogic id="0/1" type="static" programID="t1" offset="0">
      <phase duration="1" state="rrrrrrrrr"/>
      <phase duration="1" state="rrrrrrrrr"/>
   </tlLogic>

   <tlLogic id="1/1" type="static" programID="t1" offset="0">
      <phase duration="1" state="rrrrrrrrrrrrrrrr"/>
      <phase duration="1" state="rrrrrrrrrrrrrrrr"/>
   </tlLogic>

   <tlLogic id="2/1" type="static" programID="t1" offset="0">
      <phase duration="1" state="rrrrrrrrrrrrrrrr"/>
      <phase duration="1" state="rrrrrrrrrrrrrrrr"/>
   </tlLogic>

   <tlLogic id="3/1" type="static" programID="t1" offset="0">
      <phase duration="1" state="rrrrrrrrrrrrrrrr"/>
      <phase duration="1" state="rrrrrrrrrrrrrrrr"/>
   </tlLogic>

   <tlLogic id="4/1" type="static" programID="t1" offset="0">
      <phase duration="1" state="rrrrrrrrr"/>
      <phase duration="1" state="rrrrrrrrr"/>
   </tlLogic>

</additional>
