<?xml version="1.0" encoding="UTF-8"?>

<!-- generated on Fri Dec 14 09:27:45 2018 by Eclipse SUMO netconvert Version v1_0_1+0645-93703db
This data file and the accompanying materials
are made available under the terms of the Eclipse Public License v2.0
which accompanies this distribution, and is available at
http://www.eclipse.org/legal/epl-v20.html
SPDX-License-Identifier: EPL-2.0
<configuration xmlns:xsi="http://www.w3.org/2001/XMLSchema-instance" xsi:noNamespaceSchemaLocation="http://sumo.dlr.de/xsd/netconvertConfiguration.xsd">

    <input>
        <node-files value="input_plain.nod.xml"/>
        <edge-files value="input_plain.edg.xml"/>
    </input>

    <output>
        <write-license value="true"/>
        <output-file value="net.net.xml"/>
        <plain-output-prefix value="plain"/>
    </output>

    <building_defaults>
        <default.junctions.radius value="10"/>
    </building_defaults>

    <report>
        <xml-validation value="never"/>
    </report>

</configuration>
-->

<edges version="1.3" xmlns:xsi="http://www.w3.org/2001/XMLSchema-instance" xsi:noNamespaceSchemaLocation="http://sumo.dlr.de/xsd/edges_file.xsd">
    <edge id="CE" from="C" to="E" priority="2" numLanes="2" speed="13.89"/>
    <edge id="CN" from="C" to="N" priority="2" numLanes="2" speed="13.89"/>
    <edge id="CS" from="C" to="S" priority="2" numLanes="2" speed="13.89"/>
    <edge id="CW" from="C" to="W" priority="2" numLanes="2" speed="13.89"/>
    <edge id="EC" from="E" to="C" priority="2" numLanes="2" speed="13.89"/>
    <edge id="NC" from="N" to="C" priority="2" numLanes="2" speed="13.89"/>
    <edge id="SC" from="S" to="C" priority="2" numLanes="2" speed="13.89"/>
    <edge id="WC" from="W" to="C" priority="2" numLanes="2" speed="13.89"/>
</edges>
