<?xml version="1.0" encoding="UTF-8"?>

<!-- generated on 2022-01-17 13:05:25 by Eclipse SUMO sumo Version v1_11_0+1235-d9beea2df6c
This data file and the accompanying materials
are made available under the terms of the Eclipse Public License v2.0
which accompanies this distribution, and is available at
http://www.eclipse.org/legal/epl-v20.html
SPDX-License-Identifier: EPL-2.0
<configuration xmlns:xsi="http://www.w3.org/2001/XMLSchema-instance" xsi:noNamespaceSchemaLocation="http://sumo.dlr.de/xsd/sumoConfiguration.xsd">

    <input>
        <net-file value="net.net.xml"/>
        <route-files value="input_routes2.rou.xml"/>
        <additional-files value="input_additional.add.xml,input_additional3.add.xml"/>
    </input>

    <output>
        <write-license value="true"/>
    </output>

    <processing>
        <max-depart-delay value="10"/>
        <default.speeddev value="0"/>
    </processing>

    <report>
        <verbose value="true"/>
        <xml-validation value="never"/>
        <xml-validation.routes value="never"/>
        <duration-log.statistics value="true"/>
        <no-step-log value="true"/>
    </report>

</configuration>
-->

<tlsStates xmlns:xsi="http://www.w3.org/2001/XMLSchema-instance" xsi:noNamespaceSchemaLocation="http://sumo.dlr.de/xsd/tlsstates_file.xsd">
    <tlsState time="0.00" id="2881" programID="01" phase="0" state="srrrrrGGrrr" name="1+6"/>
    <tlsState time="6.00" id="2881" programID="01" phase="1" state="srrrGGGGrrr" name="1+6"/>
    <tlsState time="16.00" id="2881" programID="01" phase="0" state="srrrGGyyrrr" name="1+6"/>
    <tlsState time="20.00" id="2881" programID="01" phase="1" state="srrrGGrrrrr" name="1+6"/>
    <tlsState time="21.00" id="2881" programID="01" phase="0" state="srrrGGrrGGG" name="2+6"/>
    <tlsState time="88.00" id="2881" programID="01" phase="1" state="srrryyrryyy" name="2+6"/>
    <tlsState time="92.00" id="2881" programID="01" phase="0" state="rrrrrrrrrrr" name="2+6"/>
    <tlsState time="93.00" id="2881" programID="01" phase="1" state="GGGGrrrrrrr" name="4+4"/>
    <tlsState time="114.00" id="2881" programID="01" phase="0" state="yyyyrrrrrrr" name="4+4"/>
    <tlsState time="119.00" id="2881" programID="01" phase="1" state="rrrrrrrrrrr" name="4+4"/>
    <tlsState time="120.00" id="2881" programID="01" phase="0" state="srrrGGGGrrr" name="1+6"/>
    <tlsState time="128.00" id="2881" programID="01" phase="1" state="srrrGGyyrrr" name="1+6"/>
    <tlsState time="132.00" id="2881" programID="01" phase="0" state="srrrGGrrrrr" name="1+6"/>
    <tlsState time="133.00" id="2881" programID="01" phase="1" state="srrrGGrrGGG" name="2+6"/>
    <tlsState time="200.00" id="2881" programID="01" phase="0" state="srrrGGrryyy" name="2+6"/>
    <tlsState time="204.00" id="2881" programID="01" phase="1" state="srrrGGrrrrr" name="2+6"/>
    <tlsState time="205.00" id="2881" programID="01" phase="0" state="srrrGGGGrrr" name="1+6"/>
    <tlsState time="208.00" id="2881" programID="01" phase="1" state="srrryyGGrrr" name="1+6"/>
    <tlsState time="212.00" id="2881" programID="01" phase="0" state="srrrrrGGrrr" name="1+6"/>
    <tlsState time="213.00" id="2881" programID="01" phase="1" state="srrrGGGGrrr" name="1+6"/>
    <tlsState time="234.00" id="2881" programID="01" phase="0" state="srrrGGyyrrr" name="1+6"/>
    <tlsState time="238.00" id="2881" programID="01" phase="1" state="srrrGGrrrrr" name="1+6"/>
    <tlsState time="239.00" id="2881" programID="01" phase="0" state="srrrGGrrGGG" name="2+6"/>
    <tlsState time="301.00" id="2881" programID="01" phase="1" state="srrryyrrGGG" name="2+6"/>
    <tlsState time="305.00" id="2881" programID="01" phase="0" state="srrrrrrrGGG" name="2+6"/>
    <tlsState time="306.00" id="2881" programID="01" phase="1" state="srrrGGrryyy" name="2+6"/>
    <tlsState time="310.00" id="2881" programID="01" phase="0" state="srrrGGrrrrr" name="2+6"/>
    <tlsState time="311.00" id="2881" programID="01" phase="1" state="srrrGGGGrrr" name="1+6"/>
    <tlsState time="348.00" id="2881" programID="01" phase="0" state="srrrGGyyrrr" name="1+6"/>
    <tlsState time="352.00" id="2881" programID="01" phase="1" state="srrrGGrrrrr" name="1+6"/>
    <tlsState time="353.00" id="2881" programID="01" phase="0" state="srrrGGrrGGG" name="2+6"/>
    <tlsState time="394.00" id="2881" programID="01" phase="1" state="srrryyrrGGG" name="2+6"/>
    <tlsState time="398.00" id="2881" programID="01" phase="0" state="srrrrrrrGGG" name="2+6"/>
    <tlsState time="399.00" id="2881" programID="01" phase="1" state="srrrGGrrGGG" name="2+6"/>
    <tlsState time="420.00" id="2881" programID="01" phase="0" state="srrrGGrryyy" name="2+6"/>
    <tlsState time="424.00" id="2881" programID="01" phase="1" state="srrrGGrrrrr" name="2+6"/>
    <tlsState time="425.00" id="2881" programID="01" phase="0" state="srrrGGGGrrr" name="1+6"/>
    <tlsState time="452.00" id="2881" programID="01" phase="1" state="srrrGGyyrrr" name="1+6"/>
    <tlsState time="456.00" id="2881" programID="01" phase="0" state="srrrGGrrrrr" name="1+6"/>
    <tlsState time="457.00" id="2881" programID="01" phase="1" state="srrrGGrrGGG" name="2+6"/>
    <tlsState time="487.00" id="2881" programID="01" phase="0" state="srrryyrrGGG" name="2+6"/>
    <tlsState time="491.00" id="2881" programID="01" phase="1" state="srrrrrrrGGG" name="2+6"/>
    <tlsState time="492.00" id="2881" programID="01" phase="0" state="srrrGGrrGGG" name="2+6"/>
    <tlsState time="524.00" id="2881" programID="01" phase="1" state="srrrGGrryyy" name="2+6"/>
    <tlsState time="528.00" id="2881" programID="01" phase="0" state="srrrGGrrrrr" name="2+6"/>
    <tlsState time="529.00" id="2881" programID="01" phase="1" state="srrrGGGGrrr" name="1+6"/>
    <tlsState time="556.00" id="2881" programID="01" phase="0" state="srrrGGyyrrr" name="1+6"/>
    <tlsState time="560.00" id="2881" programID="01" phase="1" state="srrrGGrrrrr" name="1+6"/>
    <tlsState time="561.00" id="2881" programID="01" phase="0" state="srrrGGrrGGG" name="2+6"/>
    <tlsState time="580.00" id="2881" programID="01" phase="1" state="srrryyrrGGG" name="2+6"/>
    <tlsState time="584.00" id="2881" programID="01" phase="0" state="srrrrrrrGGG" name="2+6"/>
    <tlsState time="585.00" id="2881" programID="01" phase="1" state="srrrGGrrGGG" name="2+6"/>
    <tlsState time="628.00" id="2881" programID="01" phase="0" state="srrrGGrryyy" name="2+6"/>
    <tlsState time="632.00" id="2881" programID="01" phase="1" state="srrrGGrrrrr" name="2+6"/>
    <tlsState time="633.00" id="2881" programID="01" phase="0" state="srrrGGGGrrr" name="1+6"/>
    <tlsState time="656.00" id="2881" programID="01" phase="1" state="srrrGGyyrrr" name="1+6"/>
    <tlsState time="660.00" id="2881" programID="01" phase="0" state="srrrGGrrrrr" name="1+6"/>
    <tlsState time="661.00" id="2881" programID="01" phase="1" state="srrrGGrrGGG" name="2+6"/>
    <tlsState time="673.00" id="2881" programID="01" phase="0" state="srrryyrrGGG" name="2+6"/>
    <tlsState time="677.00" id="2881" programID="01" phase="1" state="srrrrrrrGGG" name="2+6"/>
    <tlsState time="678.00" id="2881" programID="01" phase="0" state="srrrGGrrGGG" name="2+6"/>
    <tlsState time="728.00" id="2881" programID="01" phase="1" state="srrrGGrryyy" name="2+6"/>
    <tlsState time="732.00" id="2881" programID="01" phase="0" state="srrrGGrrrrr" name="2+6"/>
    <tlsState time="733.00" id="2881" programID="01" phase="1" state="srrrGGGGrrr" name="1+6"/>
    <tlsState time="764.00" id="2881" programID="01" phase="0" state="srrrGGyyrrr" name="1+6"/>
    <tlsState time="766.00" id="2881" programID="01" phase="1" state="srrryyyyrrr" name="1+6"/>
    <tlsState time="768.00" id="2881" programID="01" phase="0" state="srrryyrrrrr" name="1+6"/>
    <tlsState time="769.00" id="2881" programID="01" phase="1" state="srrryyrrGGG" name="2+6"/>
    <tlsState time="770.00" id="2881" programID="01" phase="0" state="srrrrrrrGGG" name="2+6"/>
    <tlsState time="771.00" id="2881" programID="01" phase="1" state="srrrGGrrGGG" name="2+6"/>
    <tlsState time="836.00" id="2881" programID="01" phase="0" state="srrrGGrryyy" name="2+6"/>
    <tlsState time="840.00" id="2881" programID="01" phase="1" state="srrrGGrrrrr" name="2+6"/>
    <tlsState time="841.00" id="2881" programID="01" phase="0" state="srrrGGGGrrr" name="1+6"/>
    <tlsState time="848.00" id="2881" programID="01" phase="1" state="srrrGGyyrrr" name="1+6"/>
    <tlsState time="852.00" id="2881" programID="01" phase="0" state="srrrGGrrrrr" name="1+6"/>
    <tlsState time="853.00" id="2881" programID="01" phase="1" state="srrrGGrrGGG" name="2+6"/>
    <tlsState time="859.00" id="2881" programID="01" phase="0" state="srrryyrrGGG" name="2+6"/>
    <tlsState time="863.00" id="2881" programID="01" phase="1" state="srrrrrrrGGG" name="2+6"/>
    <tlsState time="864.00" id="2881" programID="01" phase="0" state="srrrGGrrGGG" name="2+6"/>
    <tlsState time="920.00" id="2881" programID="01" phase="1" state="srrrGGrryyy" name="2+6"/>
    <tlsState time="924.00" id="2881" programID="01" phase="0" state="srrrGGrrrrr" name="2+6"/>
    <tlsState time="925.00" id="2881" programID="01" phase="1" state="srrrGGGGrrr" name="1+6"/>
    <tlsState time="952.00" id="2881" programID="01" phase="0" state="srrryyGGrrr" name="1+6"/>
    <tlsState time="954.00" id="2881" programID="01" phase="1" state="srrryyyyrrr" name="1+6"/>
    <tlsState time="956.00" id="2881" programID="01" phase="0" state="srrrrryyrrr" name="1+6"/>
    <tlsState time="957.00" id="2881" programID="01" phase="1" state="srrrGGyyrrr" name="1+6"/>
    <tlsState time="958.00" id="2881" programID="01" phase="0" state="srrrGGrrrrr" name="1+6"/>
    <tlsState time="959.00" id="2881" programID="01" phase="1" state="srrrGGrrGGG" name="2+6"/>
    <tlsState time="1026.00" id="2881" programID="01" phase="0" state="srrrGGrryyy" name="2+6"/>
    <tlsState time="1030.00" id="2881" programID="01" phase="1" state="srrrGGrrrrr" name="2+6"/>
    <tlsState time="1031.00" id="2881" programID="01" phase="0" state="srrrGGGGrrr" name="1+6"/>
    <tlsState time="1045.00" id="2881" programID="01" phase="1" state="srrryyGGrrr" name="1+6"/>
    <tlsState time="1049.00" id="2881" programID="01" phase="0" state="srrrrrGGrrr" name="1+6"/>
    <tlsState time="1050.00" id="2881" programID="01" phase="1" state="srrrGGGGrrr" name="1+6"/>
    <tlsState time="1058.00" id="2881" programID="01" phase="0" state="srrrGGyyrrr" name="1+6"/>
    <tlsState time="1062.00" id="2881" programID="01" phase="1" state="srrrGGrrrrr" name="1+6"/>
    <tlsState time="1063.00" id="2881" programID="01" phase="0" state="srrrGGrrGGG" name="2+6"/>
    <tlsState time="1130.00" id="2881" programID="01" phase="1" state="srrrGGrryyy" name="2+6"/>
    <tlsState time="1134.00" id="2881" programID="01" phase="0" state="srrrGGrrrrr" name="2+6"/>
    <tlsState time="1135.00" id="2881" programID="01" phase="1" state="srrrGGGGrrr" name="1+6"/>
    <tlsState time="1138.00" id="2881" programID="01" phase="0" state="srrryyGGrrr" name="1+6"/>
    <tlsState time="1142.00" id="2881" programID="01" phase="1" state="srrrrrGGrrr" name="1+6"/>
    <tlsState time="1143.00" id="2881" programID="01" phase="0" state="srrrGGGGrrr" name="1+6"/>
    <tlsState time="1156.00" id="2881" programID="01" phase="1" state="srrrGGyyrrr" name="1+6"/>
    <tlsState time="1160.00" id="2881" programID="01" phase="0" state="srrrGGrrrrr" name="1+6"/>
    <tlsState time="1161.00" id="2881" programID="01" phase="1" state="srrrGGrrGGG" name="2+6"/>
    <tlsState time="1228.00" id="2881" programID="01" phase="0" state="srrrGGrryyy" name="2+6"/>
    <tlsState time="1231.00" id="2881" programID="01" phase="1" state="srrryyrryyy" name="2+6"/>
    <tlsState time="1232.00" id="2881" programID="01" phase="0" state="srrryyrrrrr" name="2+6"/>
    <tlsState time="1233.00" id="2881" programID="01" phase="1" state="GGGGyyrrrrr" name="4+6"/>
    <tlsState time="1235.00" id="2881" programID="01" phase="0" state="GGGGrrrrrrr" name="4+6"/>
    <tlsState time="1257.00" id="2881" programID="01" phase="1" state="yyyyrrrrrrr" name="4+4"/>
    <tlsState time="1262.00" id="2881" programID="01" phase="0" state="rrrrrrrrrrr" name="4+4"/>
    <tlsState time="1263.00" id="2881" programID="01" phase="1" state="srrrGGGGrrr" name="1+6"/>
    <tlsState time="1292.00" id="2881" programID="01" phase="0" state="srrrGGyyrrr" name="1+6"/>
    <tlsState time="1296.00" id="2881" programID="01" phase="1" state="srrrGGrrrrr" name="1+6"/>
    <tlsState time="1297.00" id="2881" programID="01" phase="0" state="srrrGGrrGGG" name="2+6"/>
    <tlsState time="1351.00" id="2881" programID="01" phase="1" state="srrryyrrGGG" name="2+6"/>
    <tlsState time="1355.00" id="2881" programID="01" phase="0" state="srrrrrrrGGG" name="2+6"/>
    <tlsState time="1356.00" id="2881" programID="01" phase="1" state="srrrGGrrGGG" name="2+6"/>
    <tlsState time="1364.00" id="2881" programID="01" phase="0" state="srrrGGrryyy" name="2+6"/>
    <tlsState time="1368.00" id="2881" programID="01" phase="1" state="srrrGGrrrrr" name="2+6"/>
    <tlsState time="1369.00" id="2881" programID="01" phase="0" state="srrrGGGGrrr" name="1+6"/>
    <tlsState time="1396.00" id="2881" programID="01" phase="1" state="srrrGGyyrrr" name="1+6"/>
    <tlsState time="1400.00" id="2881" programID="01" phase="0" state="srrrGGrrrrr" name="1+6"/>
    <tlsState time="1401.00" id="2881" programID="01" phase="1" state="srrrGGrrGGG" name="2+6"/>
    <tlsState time="1444.00" id="2881" programID="01" phase="0" state="srrryyrrGGG" name="2+6"/>
    <tlsState time="1448.00" id="2881" programID="01" phase="1" state="srrrrrrrGGG" name="2+6"/>
    <tlsState time="1449.00" id="2881" programID="01" phase="0" state="srrrGGrrGGG" name="2+6"/>
    <tlsState time="1468.00" id="2881" programID="01" phase="1" state="srrrGGrryyy" name="2+6"/>
    <tlsState time="1472.00" id="2881" programID="01" phase="0" state="srrrGGrrrrr" name="2+6"/>
    <tlsState time="1473.00" id="2881" programID="01" phase="1" state="srrrGGGGrrr" name="1+6"/>
    <tlsState time="1514.00" id="2881" programID="01" phase="0" state="srrrGGyyrrr" name="1+6"/>
    <tlsState time="1518.00" id="2881" programID="01" phase="1" state="srrrGGrrrrr" name="1+6"/>
    <tlsState time="1519.00" id="2881" programID="01" phase="0" state="srrrGGrrGGG" name="2+6"/>
    <tlsState time="1537.00" id="2881" programID="01" phase="1" state="srrryyrrGGG" name="2+6"/>
    <tlsState time="1541.00" id="2881" programID="01" phase="0" state="srrrrrrrGGG" name="2+6"/>
    <tlsState time="1542.00" id="2881" programID="01" phase="1" state="srrrGGrrGGG" name="2+6"/>
    <tlsState time="1586.00" id="2881" programID="01" phase="0" state="srrrGGrryyy" name="2+6"/>
    <tlsState time="1590.00" id="2881" programID="01" phase="1" state="srrrGGrrrrr" name="2+6"/>
    <tlsState time="1591.00" id="2881" programID="01" phase="0" state="srrrGGGGrrr" name="1+6"/>
    <tlsState time="1624.00" id="2881" programID="01" phase="1" state="srrrGGyyrrr" name="1+6"/>
    <tlsState time="1628.00" id="2881" programID="01" phase="0" state="srrrGGrrrrr" name="1+6"/>
    <tlsState time="1629.00" id="2881" programID="01" phase="1" state="srrrGGrrGGG" name="2+6"/>
    <tlsState time="1630.00" id="2881" programID="01" phase="0" state="srrryyrrGGG" name="2+6"/>
    <tlsState time="1634.00" id="2881" programID="01" phase="1" state="srrrrrrrGGG" name="2+6"/>
    <tlsState time="1635.00" id="2881" programID="01" phase="0" state="srrrGGrrGGG" name="2+6"/>
    <tlsState time="1696.00" id="2881" programID="01" phase="1" state="srrrGGrryyy" name="2+6"/>
    <tlsState time="1700.00" id="2881" programID="01" phase="0" state="srrrGGrrrrr" name="2+6"/>
    <tlsState time="1701.00" id="2881" programID="01" phase="1" state="srrrGGGGrrr" name="1+6"/>
    <tlsState time="1723.00" id="2881" programID="01" phase="0" state="srrryyyyrrr" name="1+6"/>
    <tlsState time="1727.00" id="2881" programID="01" phase="1" state="rrrrrrrrrrr" name="1+6"/>
    <tlsState time="1728.00" id="2881" programID="01" phase="0" state="srrrGGrrGGG" name="2+6"/>
    <tlsState time="1795.00" id="2881" programID="01" phase="1" state="srrrGGrryyy" name="2+6"/>
    <tlsState time="1799.00" id="2881" programID="01" phase="0" state="srrrGGrrrrr" name="2+6"/>
    <tlsState time="1800.00" id="2881" programID="01" phase="1" state="srrrGGGGrrr" name="1+6"/>
    <tlsState time="1808.00" id="2881" programID="01" phase="0" state="srrrGGyyrrr" name="1+6"/>
    <tlsState time="1812.00" id="2881" programID="01" phase="1" state="srrrGGrrrrr" name="1+6"/>
    <tlsState time="1813.00" id="2881" programID="01" phase="0" state="srrrGGrrGGG" name="2+6"/>
    <tlsState time="1816.00" id="2881" programID="01" phase="1" state="srrryyrrGGG" name="2+6"/>
    <tlsState time="1820.00" id="2881" programID="01" phase="0" state="srrrrrrrGGG" name="2+6"/>
    <tlsState time="1821.00" id="2881" programID="01" phase="1" state="srrrGGrrGGG" name="2+6"/>
    <tlsState time="1880.00" id="2881" programID="01" phase="0" state="srrrGGrryyy" name="2+6"/>
    <tlsState time="1884.00" id="2881" programID="01" phase="1" state="srrrGGrrrrr" name="2+6"/>
    <tlsState time="1885.00" id="2881" programID="01" phase="0" state="srrrGGGGrrr" name="1+6"/>
    <tlsState time="1909.00" id="2881" programID="01" phase="1" state="srrryyGGrrr" name="1+6"/>
    <tlsState time="1913.00" id="2881" programID="01" phase="0" state="srrrrrGGrrr" name="1+6"/>
    <tlsState time="1914.00" id="2881" programID="01" phase="1" state="srrrGGyyrrr" name="1+6"/>
    <tlsState time="1918.00" id="2881" programID="01" phase="0" state="srrrGGrrrrr" name="1+6"/>
    <tlsState time="1919.00" id="2881" programID="01" phase="1" state="srrrGGrrGGG" name="2+6"/>
    <tlsState time="1986.00" id="2881" programID="01" phase="0" state="srrrGGrryyy" name="2+6"/>
    <tlsState time="1990.00" id="2881" programID="01" phase="1" state="srrrGGrrrrr" name="2+6"/>
    <tlsState time="1991.00" id="2881" programID="01" phase="0" state="srrrGGGGrrr" name="1+6"/>
    <tlsState time="2002.00" id="2881" programID="01" phase="1" state="srrryyGGrrr" name="1+6"/>
    <tlsState time="2006.00" id="2881" programID="01" phase="0" state="srrrrrGGrrr" name="1+6"/>
    <tlsState time="2007.00" id="2881" programID="01" phase="1" state="srrrGGGGrrr" name="1+6"/>
    <tlsState time="2018.00" id="2881" programID="01" phase="0" state="srrrGGyyrrr" name="1+6"/>
    <tlsState time="2022.00" id="2881" programID="01" phase="1" state="srrrGGrrrrr" name="1+6"/>
    <tlsState time="2023.00" id="2881" programID="01" phase="0" state="srrrGGrrGGG" name="2+6"/>
    <tlsState time="2090.00" id="2881" programID="01" phase="1" state="srrrGGrryyy" name="2+6"/>
    <tlsState time="2094.00" id="2881" programID="01" phase="0" state="srrrGGrrrrr" name="2+6"/>
    <tlsState time="2095.00" id="2881" programID="01" phase="1" state="srrryyGGrrr" name="1+6"/>
    <tlsState time="2099.00" id="2881" programID="01" phase="0" state="srrrrrGGrrr" name="1+6"/>
    <tlsState time="2100.00" id="2881" programID="01" phase="1" state="srrrGGGGrrr" name="1+6"/>
    <tlsState time="2123.00" id="2881" programID="01" phase="0" state="srrrGGyyrrr" name="1+6"/>
    <tlsState time="2127.00" id="2881" programID="01" phase="1" state="srrrGGrrrrr" name="1+6"/>
    <tlsState time="2128.00" id="2881" programID="01" phase="0" state="srrrGGrrGGG" name="2+6"/>
    <tlsState time="2188.00" id="2881" programID="01" phase="1" state="srrryyrrGGG" name="2+6"/>
    <tlsState time="2192.00" id="2881" programID="01" phase="0" state="srrrrrrrGGG" name="2+6"/>
    <tlsState time="2193.00" id="2881" programID="01" phase="1" state="srrrGGrrGGG" name="2+6"/>
    <tlsState time="2195.00" id="2881" programID="01" phase="0" state="srrrGGrryyy" name="2+6"/>
    <tlsState time="2199.00" id="2881" programID="01" phase="1" state="srrrGGrrrrr" name="2+6"/>
    <tlsState time="2200.00" id="2881" programID="01" phase="0" state="srrrGGGGrrr" name="1+6"/>
    <tlsState time="2230.00" id="2881" programID="01" phase="1" state="srrrGGyyrrr" name="1+6"/>
    <tlsState time="2234.00" id="2881" programID="01" phase="0" state="srrrGGrrrrr" name="1+6"/>
    <tlsState time="2235.00" id="2881" programID="01" phase="1" state="srrrGGrrGGG" name="2+6"/>
    <tlsState time="2281.00" id="2881" programID="01" phase="0" state="srrryyrrGGG" name="2+6"/>
    <tlsState time="2285.00" id="2881" programID="01" phase="1" state="srrrrrrrGGG" name="2+6"/>
    <tlsState time="2286.00" id="2881" programID="01" phase="0" state="srrrGGrrGGG" name="2+6"/>
    <tlsState time="2302.00" id="2881" programID="01" phase="1" state="srrrGGrryyy" name="2+6"/>
    <tlsState time="2306.00" id="2881" programID="01" phase="0" state="srrrGGrrrrr" name="2+6"/>
    <tlsState time="2307.00" id="2881" programID="01" phase="1" state="srrrGGGGrrr" name="1+6"/>
    <tlsState time="2329.00" id="2881" programID="01" phase="0" state="srrrGGyyrrr" name="1+6"/>
    <tlsState time="2333.00" id="2881" programID="01" phase="1" state="srrrGGrrrrr" name="1+6"/>
    <tlsState time="2334.00" id="2881" programID="01" phase="0" state="srrrGGrrGGG" name="2+6"/>
    <tlsState time="2374.00" id="2881" programID="01" phase="1" state="srrryyrrGGG" name="2+6"/>
    <tlsState time="2378.00" id="2881" programID="01" phase="0" state="srrrrrrrGGG" name="2+6"/>
    <tlsState time="2379.00" id="2881" programID="01" phase="1" state="srrrGGrrGGG" name="2+6"/>
    <tlsState time="2401.00" id="2881" programID="01" phase="0" state="srrrGGrryyy" name="2+6"/>
    <tlsState time="2405.00" id="2881" programID="01" phase="1" state="srrrGGrrrrr" name="2+6"/>
    <tlsState time="2406.00" id="2881" programID="01" phase="0" state="srrrGGGGrrr" name="1+6"/>
    <tlsState time="2408.00" id="2881" programID="01" phase="1" state="srrrGGyyrrr" name="1+6"/>
    <tlsState time="2412.00" id="2881" programID="01" phase="0" state="srrrGGrrrrr" name="1+6"/>
    <tlsState time="2413.00" id="2881" programID="01" phase="1" state="srrrGGrrGGG" name="2+6"/>
    <tlsState time="2467.00" id="2881" programID="01" phase="0" state="srrryyrrGGG" name="2+6"/>
    <tlsState time="2471.00" id="2881" programID="01" phase="1" state="srrrrrrrGGG" name="2+6"/>
    <tlsState time="2472.00" id="2881" programID="01" phase="0" state="srrrGGrrGGG" name="2+6"/>
    <tlsState time="2480.00" id="2881" programID="01" phase="1" state="srrrGGrryyy" name="2+6"/>
    <tlsState time="2484.00" id="2881" programID="01" phase="0" state="srrrGGrrrrr" name="2+6"/>
    <tlsState time="2485.00" id="2881" programID="01" phase="1" state="srrrGGGGrrr" name="1+6"/>
    <tlsState time="2512.00" id="2881" programID="01" phase="0" state="srrrGGyyrrr" name="1+6"/>
    <tlsState time="2516.00" id="2881" programID="01" phase="1" state="srrrGGrrrrr" name="1+6"/>
    <tlsState time="2517.00" id="2881" programID="01" phase="0" state="srrrGGrrGGG" name="2+6"/>
    <tlsState time="2560.00" id="2881" programID="01" phase="1" state="srrryyrrGGG" name="2+6"/>
    <tlsState time="2564.00" id="2881" programID="01" phase="0" state="srrrrrrrGGG" name="2+6"/>
    <tlsState time="2565.00" id="2881" programID="01" phase="1" state="srrrGGrrGGG" name="2+6"/>
    <tlsState time="2584.00" id="2881" programID="01" phase="0" state="srrrGGrryyy" name="2+6"/>
    <tlsState time="2588.00" id="2881" programID="01" phase="1" state="srrrGGrrrrr" name="2+6"/>
    <tlsState time="2589.00" id="2881" programID="01" phase="0" state="srrrGGGGrrr" name="1+6"/>
    <tlsState time="2614.00" id="2881" programID="01" phase="1" state="srrrGGyyrrr" name="1+6"/>
    <tlsState time="2618.00" id="2881" programID="01" phase="0" state="srrrGGrrrrr" name="1+6"/>
    <tlsState time="2619.00" id="2881" programID="01" phase="1" state="srrrGGrrGGG" name="2+6"/>
    <tlsState time="2653.00" id="2881" programID="01" phase="0" state="srrryyrrGGG" name="2+6"/>
    <tlsState time="2657.00" id="2881" programID="01" phase="1" state="srrrrrrrGGG" name="2+6"/>
    <tlsState time="2658.00" id="2881" programID="01" phase="0" state="srrrGGrrGGG" name="2+6"/>
    <tlsState time="2686.00" id="2881" programID="01" phase="1" state="srrrGGrryyy" name="2+6"/>
    <tlsState time="2690.00" id="2881" programID="01" phase="0" state="srrrGGrrrrr" name="2+6"/>
    <tlsState time="2691.00" id="2881" programID="01" phase="1" state="srrrGGGGrrr" name="1+6"/>
    <tlsState time="2720.00" id="2881" programID="01" phase="0" state="srrrGGyyrrr" name="1+6"/>
    <tlsState time="2724.00" id="2881" programID="01" phase="1" state="srrrGGrrrrr" name="1+6"/>
    <tlsState time="2725.00" id="2881" programID="01" phase="0" state="srrrGGrrGGG" name="2+6"/>
    <tlsState time="2746.00" id="2881" programID="01" phase="1" state="srrryyrrGGG" name="2+6"/>
    <tlsState time="2750.00" id="2881" programID="01" phase="0" state="srrrrrrrGGG" name="2+6"/>
    <tlsState time="2751.00" id="2881" programID="01" phase="1" state="srrrGGrrGGG" name="2+6"/>
    <tlsState time="2792.00" id="2881" programID="01" phase="0" state="srrrGGrryyy" name="2+6"/>
    <tlsState time="2796.00" id="2881" programID="01" phase="1" state="srrrGGrrrrr" name="2+6"/>
    <tlsState time="2797.00" id="2881" programID="01" phase="0" state="srrrGGGGrrr" name="1+6"/>
    <tlsState time="2825.00" id="2881" programID="01" phase="1" state="srrrGGyyrrr" name="1+6"/>
    <tlsState time="2829.00" id="2881" programID="01" phase="0" state="srrrGGrrrrr" name="1+6"/>
    <tlsState time="2830.00" id="2881" programID="01" phase="1" state="srrrGGrrGGG" name="2+6"/>
    <tlsState time="2839.00" id="2881" programID="01" phase="0" state="srrryyrrGGG" name="2+6"/>
    <tlsState time="2843.00" id="2881" programID="01" phase="1" state="srrrrrrrGGG" name="2+6"/>
    <tlsState time="2844.00" id="2881" programID="01" phase="0" state="srrrGGrrGGG" name="2+6"/>
    <tlsState time="2897.00" id="2881" programID="01" phase="1" state="srrrGGrryyy" name="2+6"/>
    <tlsState time="2901.00" id="2881" programID="01" phase="0" state="srrrGGrrrrr" name="2+6"/>
    <tlsState time="2902.00" id="2881" programID="01" phase="1" state="srrrGGGGrrr" name="1+6"/>
    <tlsState time="2932.00" id="2881" programID="01" phase="0" state="srrryyGGrrr" name="1+6"/>
    <tlsState time="2933.00" id="2881" programID="01" phase="1" state="srrryyyyrrr" name="1+6"/>
    <tlsState time="2936.00" id="2881" programID="01" phase="0" state="srrrrryyrrr" name="1+6"/>
    <tlsState time="2937.00" id="2881" programID="01" phase="1" state="srrrGGrrrrr" name="1+6"/>
    <tlsState time="2938.00" id="2881" programID="01" phase="0" state="srrrGGrrGGG" name="2+6"/>
    <tlsState time="3005.00" id="2881" programID="01" phase="1" state="srrrGGrryyy" name="2+6"/>
    <tlsState time="3009.00" id="2881" programID="01" phase="0" state="srrrGGrrrrr" name="2+6"/>
    <tlsState time="3010.00" id="2881" programID="01" phase="1" state="srrrGGGGrrr" name="1+6"/>
    <tlsState time="3025.00" id="2881" programID="01" phase="0" state="srrryyGGrrr" name="1+6"/>
    <tlsState time="3029.00" id="2881" programID="01" phase="1" state="srrrrrGGrrr" name="1+6"/>
    <tlsState time="3030.00" id="2881" programID="01" phase="0" state="srrrGGGGrrr" name="1+6"/>
    <tlsState time="3039.00" id="2881" programID="01" phase="1" state="srrrGGyyrrr" name="1+6"/>
    <tlsState time="3043.00" id="2881" programID="01" phase="0" state="srrrGGrrrrr" name="1+6"/>
    <tlsState time="3044.00" id="2881" programID="01" phase="1" state="srrrGGrrGGG" name="2+6"/>
    <tlsState time="3111.00" id="2881" programID="01" phase="0" state="srrrGGrryyy" name="2+6"/>
    <tlsState time="3115.00" id="2881" programID="01" phase="1" state="srrrGGrrrrr" name="2+6"/>
    <tlsState time="3116.00" id="2881" programID="01" phase="0" state="srrrGGGGrrr" name="1+6"/>
    <tlsState time="3118.00" id="2881" programID="01" phase="1" state="srrryyGGrrr" name="1+6"/>
    <tlsState time="3122.00" id="2881" programID="01" phase="0" state="srrrrrGGrrr" name="1+6"/>
    <tlsState time="3123.00" id="2881" programID="01" phase="1" state="srrrGGGGrrr" name="1+6"/>
    <tlsState time="3128.00" id="2881" programID="01" phase="0" state="srrrGGyyrrr" name="1+6"/>
    <tlsState time="3132.00" id="2881" programID="01" phase="1" state="srrrGGrrrrr" name="1+6"/>
    <tlsState time="3133.00" id="2881" programID="01" phase="0" state="srrrGGrrGGG" name="2+6"/>
    <tlsState time="3200.00" id="2881" programID="01" phase="1" state="srrrGGrryyy" name="2+6"/>
    <tlsState time="3204.00" id="2881" programID="01" phase="0" state="srrrGGrrrrr" name="2+6"/>
    <tlsState time="3205.00" id="2881" programID="01" phase="1" state="srrrGGGGrrr" name="1+6"/>
    <tlsState time="3211.00" id="2881" programID="01" phase="0" state="srrryyGGrrr" name="1+6"/>
    <tlsState time="3215.00" id="2881" programID="01" phase="1" state="srrrrrGGrrr" name="1+6"/>
    <tlsState time="3216.00" id="2881" programID="01" phase="0" state="srrrGGGGrrr" name="1+6"/>
    <tlsState time="3228.00" id="2881" programID="01" phase="1" state="srrrGGyyrrr" name="1+6"/>
    <tlsState time="3232.00" id="2881" programID="01" phase="0" state="srrrGGrrrrr" name="1+6"/>
    <tlsState time="3233.00" id="2881" programID="01" phase="1" state="srrrGGrrGGG" name="2+6"/>
    <tlsState time="3300.00" id="2881" programID="01" phase="0" state="srrrGGrryyy" name="2+6"/>
    <tlsState time="3304.00" id="2881" programID="01" phase="1" state="srrryyrrrrr" name="2+6"/>
    <tlsState time="3305.00" id="2881" programID="01" phase="0" state="GGGGyyrrrrr" name="4+6"/>
    <tlsState time="3308.00" id="2881" programID="01" phase="1" state="GGGGrrrrrrr" name="4+6"/>
    <tlsState time="3330.00" id="2881" programID="01" phase="0" state="yyyyrrrrrrr" name="4+4"/>
    <tlsState time="3335.00" id="2881" programID="01" phase="1" state="rrrrrrrrrrr" name="4+4"/>
    <tlsState time="3336.00" id="2881" programID="01" phase="0" state="srrrGGGGrrr" name="1+6"/>
    <tlsState time="3368.00" id="2881" programID="01" phase="1" state="srrrGGyyrrr" name="1+6"/>