<?xml version="1.0" encoding="UTF-8"?>

<!-- generated on Mon Sep 28 14:18:10 2015 by SUMO duarouter Version dev-SVN-r18959I
<?xml version="1.0" encoding="UTF-8"?>

<configuration xmlns:xsi="http://www.w3.org/2001/XMLSchema-instance" xsi:noNamespaceSchemaLocation="http://sumo.dlr.de/xsd/duarouterConfiguration.xsd">

    <input>
        <net-file value="grid5.net.xml"/>
        <route-files value="tmp.rou.xml"/>
    </input>

    <output>
        <output-file value="snake.rou.xml"/>
    </output>

</configuration>
-->

<routes xmlns:xsi="http://www.w3.org/2001/XMLSchema-instance" xsi:noNamespaceSchemaLocation="http://sumo.dlr.de/xsd/routes_file.xsd">
    <vehicle id="snake.0" depart="0.00">
        <route edges="0/0to1/0 1/0to2/0 2/0to3/0 3/0to4/0 4/0to4/1 4/1to3/1 3/1to2/1 2/1to1/1 1/1to0/1 0/1to0/2 0/2to1/2 1/2to2/2 2/2to3/2 3/2to4/2 4/2to4/3 4/3to3/3 3/3to2/3 2/3to1/3 1/3to0/3 0/3to0/4 0/4to1/4 1/4to2/4 2/4to3/4 3/4to4/4"/>
    </vehicle>
    <vehicle id="snake.1" depart="3.00">
        <route edges="0/0to1/0 1/0to2/0 2/0to3/0 3/0to4/0 4/0to4/1 4/1to3/1 3/1to2/1 2/1to1/1 1/1to0/1 0/1to0/2 0/2to1/2 1/2to2/2 2/2to3/2 3/2to4/2 4/2to4/3 4/3to3/3 3/3to2/3 2/3to1/3 1/3to0/3 0/3to0/4 0/4to1/4 1/4to2/4 2/4to3/4 3/4to4/4"/>
    </vehicle>
    <vehicle id="snake.2" depart="6.00">
        <route edges="0/0to1/0 1/0to2/0 2/0to3/0 3/0to4/0 4/0to4/1 4/1to3/1 3/1to2/1 2/1to1/1 1/1to0/1 0/1to0/2 0/2to1/2 1/2to2/2 2/2to3/2 3/2to4/2 4/2to4/3 4/3to3/3 3/3to2/3 2/3to1/3 1/3to0/3 0/3to0/4 0/4to1/4 1/4to2/4 2/4to3/4 3/4to4/4"/>
    </vehicle>
    <vehicle id="snake.3" depart="9.00">
        <route edges="0/0to1/0 1/0to2/0 2/0to3/0 3/0to4/0 4/0to4/1 4/1to3/1 3/1to2/1 2/1to1/1 1/1to0/1 0/1to0/2 0/2to1/2 1/2to2/2 2/2to3/2 3/2to4/2 4/2to4/3 4/3to3/3 3/3to2/3 2/3to1/3 1/3to0/3 0/3to0/4 0/4to1/4 1/4to2/4 2/4to3/4 3/4to4/4"/>
    </vehicle>
    <vehicle id="snake.4" depart="12.00">
        <route edges="0/0to1/0 1/0to2/0 2/0to3/0 3/0to4/0 4/0to4/1 4/1to3/1 3/1to2/1 2/1to1/1 1/1to0/1 0/1to0/2 0/2to1/2 1/2to2/2 2/2to3/2 3/2to4/2 4/2to4/3 4/3to3/3 3/3to2/3 2/3to1/3 1/3to0/3 0/3to0/4 0/4to1/4 1/4to2/4 2/4to3/4 3/4to4/4"/>
    </vehicle>
    <vehicle id="snake.5" depart="15.00">
        <route edges="0/0to1/0 1/0to2/0 2/0to3/0 3/0to4/0 4/0to4/1 4/1to3/1 3/1to2/1 2/1to1/1 1/1to0/1 0/1to0/2 0/2to1/2 1/2to2/2 2/2to3/2 3/2to4/2 4/2to4/3 4/3to3/3 3/3to2/3 2/3to1/3 1/3to0/3 0/3to0/4 0/4to1/4 1/4to2/4 2/4to3/4 3/4to4/4"/>
    </vehicle>
    <vehicle id="snake.6" depart="18.00">
        <route edges="0/0to1/0 1/0to2/0 2/0to3/0 3/0to4/0 4/0to4/1 4/1to3/1 3/1to2/1 2/1to1/1 1/1to0/1 0/1to0/2 0/2to1/2 1/2to2/2 2/2to3/2 3/2to4/2 4/2to4/3 4/3to3/3 3/3to2/3 2/3to1/3 1/3to0/3 0/3to0/4 0/4to1/4 1/4to2/4 2/4to3/4 3/4to4/4"/>
    </vehicle>
    <vehicle id="snake.7" depart="21.00">
        <route edges="0/0to1/0 1/0to2/0 2/0to3/0 3/0to4/0 4/0to4/1 4/1to3/1 3/1to2/1 2/1to1/1 1/1to0/1 0/1to0/2 0/2to1/2 1/2to2/2 2/2to3/2 3/2to4/2 4/2to4/3 4/3to3/3 3/3to2/3 2/3to1/3 1/3to0/3 0/3to0/4 0/4to1/4 1/4to2/4 2/4to3/4 3/4to4/4"/>
    </vehicle>
    <vehicle id="snake.8" depart="24.00">
        <route edges="0/0to1/0 1/0to2/0 2/0to3/0 3/0to4/0 4/0to4/1 4/1to3/1 3/1to2/1 2/1to1/1 1/1to0/1 0/1to0/2 0/2to1/2 1/2to2/2 2/2to3/2 3/2to4/2 4/2to4/3 4/3to3/3 3/3to2/3 2/3to1/3 1/3to0/3 0/3to0/4 0/4to1/4 1/4to2/4 2/4to3/4 3/4to4/4"/>
    </vehicle>
    <vehicle id="snake.9" depart="27.00">
        <route edges="0/0to1/0 1/0to2/0 2/0to3/0 3/0to4/0 4/0to4/1 4/1to3/1 3/1to2/1 2/1to1/1 1/1to0/1 0/1to0/2 0/2to1/2 1/2to2/2 2/2to3/2 3/2to4/2 4/2to4/3 4/3to3/3 3/3to2/3 2/3to1/3 1/3to0/3 0/3to0/4 0/4to1/4 1/4to2/4 2/4to3/4 3/4to4/4"/>
    </vehicle>
    <vehicle id="snake.10" depart="30.00">
        <route edges="0/0to1/0 1/0to2/0 2/0to3/0 3/0to4/0 4/0to4/1 4/1to3/1 3/1to2/1 2/1to1/1 1/1to0/1 0/1to0/2 0/2to1/2 1/2to2/2 2/2to3/2 3/2to4/2 4/2to4/3 4/3to3/3 3/3to2/3 2/3to1/3 1/3to0/3 0/3to0/4 0/4to1/4 1/4to2/4 2/4to3/4 3/4to4/4"/>
    </vehicle>
    <vehicle id="snake.11" depart="33.00">
        <route edges="0/0to1/0 1/0to2/0 2/0to3/0 3/0to4/0 4/0to4/1 4/1to3/1 3/1to2/1 2/1to1/1 1/1to0/1 0/1to0/2 0/2to1/2 1/2to2/2 2/2to3/2 3/2to4/2 4/2to4/3 4/3to3/3 3/3to2/3 2/3to1/3 1/3to0/3 0/3to0/4 0/4to1/4 1/4to2/4 2/4to3/4 3/4to4/4"/>
    </vehicle>
    <vehicle id="snake.12" depart="36.00">
        <route edges="0/0to1/0 1/0to2/0 2/0to3/0 3/0to4/0 4/0to4/1 4/1to3/1 3/1to2/1 2/1to1/1 1/1to0/1 0/1to0/2 0/2to1/2 1/2to2/2 2/2to3/2 3/2to4/2 4/2to4/3 4/3to3/3 3/3to2/3 2/3to1/3 1/3to0/3 0/3to0/4 0/4to1/4 1/4to2/4 2/4to3/4 3/4to4/4"/>
    </vehicle>
    <vehicle id="snake.13" depart="39.00">
        <route edges="0/0to1/0 1/0to2/0 2/0to3/0 3/0to4/0 4/0to4/1 4/1to3/1 3/1to2/1 2/1to1/1 1/1to0/1 0/1to0/2 0/2to1/2 1/2to2/2 2/2to3/2 3/2to4/2 4/2to4/3 4/3to3/3 3/3to2/3 2/3to1/3 1/3to0/3 0/3to0/4 0/4to1/4 1/4to2/4 2/4to3/4 3/4to4/4"/>
    </vehicle>
    <vehicle id="snake.14" depart="42.00">
        <route edges="0/0to1/0 1/0to2/0 2/0to3/0 3/0to4/0 4/0to4/1 4/1to3/1 3/1to2/1 2/1to1/1 1/1to0/1 0/1to0/2 0/2to1/2 1/2to2/2 2/2to3/2 3/2to4/2 4/2to4/3 4/3to3/3 3/3to2/3 2/3to1/3 1/3to0/3 0/3to0/4 0/4to1/4 1/4to2/4 2/4to3/4 3/4to4/4"/>
    </vehicle>
    <vehicle id="snake.15" depart="45.00">
        <route edges="0/0to1/0 1/0to2/0 2/0to3/0 3/0to4/0 4/0to4/1 4/1to3/1 3/1to2/1 2/1to1/1 1/1to0/1 0/1to0/2 0/2to1/2 1/2to2/2 2/2to3/2 3/2to4/2 4/2to4/3 4/3to3/3 3/3to2/3 2/3to1/3 1/3to0/3 0/3to0/4 0/4to1/4 1/4to2/4 2/4to3/4 3/4to4/4"/>
    </vehicle>
    <vehicle id="snake.16" depart="48.00">
        <route edges="0/0to1/0 1/0to2/0 2/0to3/0 3/0to4/0 4/0to4/1 4/1to3/1 3/1to2/1 2/1to1/1 1/1to0/1 0/1to0/2 0/2to1/2 1/2to2/2 2/2to3/2 3/2to4/2 4/2to4/3 4/3to3/3 3/3to2/3 2/3to1/3 1/3to0/3 0/3to0/4 0/4to1/4 1/4to2/4 2/4to3/4 3/4to4/4"/>
    </vehicle>
    <vehicle id="snake.17" depart="51.00">
        <route edges="0/0to1/0 1/0to2/0 2/0to3/0 3/0to4/0 4/0to4/1 4/1to3/1 3/1to2/1 2/1to1/1 1/1to0/1 0/1to0/2 0/2to1/2 1/2to2/2 2/2to3/2 3/2to4/2 4/2to4/3 4/3to3/3 3/3to2/3 2/3to1/3 1/3to0/3 0/3to0/4 0/4to1/4 1/4to2/4 2/4to3/4 3/4to4/4"/>
    </vehicle>
    <vehicle id="snake.18" depart="54.00">
        <route edges="0/0to1/0 1/0to2/0 2/0to3/0 3/0to4/0 4/0to4/1 4/1to3/1 3/1to2/1 2/1to1/1 1/1to0/1 0/1to0/2 0/2to1/2 1/2to2/2 2/2to3/2 3/2to4/2 4/2to4/3 4/3to3/3 3/3to2/3 2/3to1/3 1/3to0/3 0/3to0/4 0/4to1/4 1/4to2/4 2/4to3/4 3/4to4/4"/>
    </vehicle>
    <vehicle id="snake.19" depart="57.00">
        <route edges="0/0to1/0 1/0to2/0 2/0to3/0 3/0to4/0 4/0to4/1 4/1to3/1 3/1to2/1 2/1to1/1 1/1to0/1 0/1to0/2 0/2to1/2 1/2to2/2 2/2to3/2 3/2to4/2 4/2to4/3 4/3to3/3 3/3to2/3 2/3to1/3 1/3to0/3 0/3to0/4 0/4to1/4 1/4to2/4 2/4to3/4 3/4to4/4"/>
    </vehicle>
    <vehicle id="snake.20" depart="60.00">
        <route edges="0/0to1/0 1/0to2/0 2/0to3/0 3/0to4/0 4/0to4/1 4/1to3/1 3/1to2/1 2/1to1/1 1/1to0/1 0/1to0/2 0/2to1/2 1/2to2/2 2/2to3/2 3/2to4/2 4/2to4/3 4/3to3/3 3/3to2/3 2/3to1/3 1/3to0/3 0/3to0/4 0/4to1/4 1/4to2/4 2/4to3/4 3/4to4/4"/>
    </vehicle>
    <vehicle id="snake.21" depart="63.00">
        <route edges="0/0to1/0 1/0to2/0 2/0to3/0 3/0to4/0 4/0to4/1 4/1to3/1 3/1to2/1 2/1to1/1 1/1to0/1 0/1to0/2 0/2to1/2 1/2to2/2 2/2to3/2 3/2to4/2 4/2to4/3 4/3to3/3 3/3to2/3 2/3to1/3 1/3to0/3 0/3to0/4 0/4to1/4 1/4to2/4 2/4to3/4 3/4to4/4"/>
    </vehicle>
    <vehicle id="snake.22" depart="66.00">
        <route edges="0/0to1/0 1/0to2/0 2/0to3/0 3/0to4/0 4/0to4/1 4/1to3/1 3/1to2/1 2/1to1/1 1/1to0/1 0/1to0/2 0/2to1/2 1/2to2/2 2/2to3/2 3/2to4/2 4/2to4/3 4/3to3/3 3/3to2/3 2/3to1/3 1/3to0/3 0/3to0/4 0/4to1/4 1/4to2/4 2/4to3/4 3/4to4/4"/>
    </vehicle>
    <vehicle id="snake.23" depart="69.00">
        <route edges="0/0to1/0 1/0to2/0 2/0to3/0 3/0to4/0 4/0to4/1 4/1to3/1 3/1to2/1 2/1to1/1 1/1to0/1 0/1to0/2 0/2to1/2 1/2to2/2 2/2to3/2 3/2to4/2 4/2to4/3 4/3to3/3 3/3to2/3 2/3to1/3 1/3to0/3 0/3to0/4 0/4to1/4 1/4to2/4 2/4to3/4 3/4to4/4"/>
    </vehicle>
    <vehicle id="snake.24" depart="72.00">
        <route edges="0/0to1/0 1/0to2/0 2/0to3/0 3/0to4/0 4/0to4/1 4/1to3/1 3/1to2/1 2/1to1/1 1/1to0/1 0/1to0/2 0/2to1/2 1/2to2/2 2/2to3/2 3/2to4/2 4/2to4/3 4/3to3/3 3/3to2/3 2/3to1/3 1/3to0/3 0/3to0/4 0/4to1/4 1/4to2/4 2/4to3/4 3/4to4/4"/>
    </vehicle>
    <vehicle id="snake.25" depart="75.00">
        <route edges="0/0to1/0 1/0to2/0 2/0to3/0 3/0to4/0 4/0to4/1 4/1to3/1 3/1to2/1 2/1to1/1 1/1to0/1 0/1to0/2 0/2to1/2 1/2to2/2 2/2to3/2 3/2to4/2 4/2to4/3 4/3to3/3 3/3to2/3 2/3to1/3 1/3to0/3 0/3to0/4 0/4to1/4 1/4to2/4 2/4to3/4 3/4to4/4"/>
    </vehicle>
    <vehicle id="snake.26" depart="78.00">
        <route edges="0/0to1/0 1/0to2/0 2/0to3/0 3/0to4/0 4/0to4/1 4/1to3/1 3/1to2/1 2/1to1/1 1/1to0/1 0/1to0/2 0/2to1/2 1/2to2/2 2/2to3/2 3/2to4/2 4/2to4/3 4/3to3/3 3/3to2/3 2/3to1/3 1/3to0/3 0/3to0/4 0/4to1/4 1/4to2/4 2/4to3/4 3/4to4/4"/>
    </vehicle>
    <vehicle id="snake.27" depart="81.00">
        <route edges="0/0to1/0 1/0to2/0 2/0to3/0 3/0to4/0 4/0to4/1 4/1to3/1 3/1to2/1 2/1to1/1 1/1to0/1 0/1to0/2 0/2to1/2 1/2to2/2 2/2to3/2 3/2to4/2 4/2to4/3 4/3to3/3 3/3to2/3 2/3to1/3 1/3to0/3 0/3to0/4 0/4to1/4 1/4to2/4 2/4to3/4 3/4to4/4"/>
    </vehicle>
    <vehicle id="snake.28" depart="84.00">
        <route edges="0/0to1/0 1/0to2/0 2/0to3/0 3/0to4/0 4/0to4/1 4/1to3/1 3/1to2/1 2/1to1/1 1/1to0/1 0/1to0/2 0/2to1/2 1/2to2/2 2/2to3/2 3/2to4/2 4/2to4/3 4/3to3/3 3/3to2/3 2/3to1/3 1/3to0/3 0/3to0/4 0/4to1/4 1/4to2/4 2/4to3/4 3/4to4/4"/>
    </vehicle>
    <vehicle id="snake.29" depart="87.00">
        <route edges="0/0to1/0 1/0to2/0 2/0to3/0 3/0to4/0 4/0to4/1 4/1to3/1 3/1to2/1 2/1to1/1 1/1to0/1 0/1to0/2 0/2to1/2 1/2to2/2 2/2to3/2 3/2to4/2 4/2to4/3 4/3to3/3 3/3to2/3 2/3to1/3 1/3to0/3 0/3to0/4 0/4to1/4 1/4to2/4 2/4to3/4 3/4to4/4"/>
    </vehicle>
    <vehicle id="snake.30" depart="90.00">
        <route edges="0/0to1/0 1/0to2/0 2/0to3/0 3/0to4/0 4/0to4/1 4/1to3/1 3/1to2/1 2/1to1/1 1/1to0/1 0/1to0/2 0/2to1/2 1/2to2/2 2/2to3/2 3/2to4/2 4/2to4/3 4/3to3/3 3/3to2/3 2/3to1/3 1/3to0/3 0/3to0/4 0/4to1/4 1/4to2/4 2/4to3/4 3/4to4/4"/>
    </vehicle>
    <vehicle id="snake.31" depart="93.00">
        <route edges="0/0to1/0 1/0to2/0 2/0to3/0 3/0to4/0 4/0to4/1 4/1to3/1 3/1to2/1 2/1to1/1 1/1to0/1 0/1to0/2 0/2to1/2 1/2to2/2 2/2to3/2 3/2to4/2 4/2to4/3 4/3to3/3 3/3to2/3 2/3to1/3 1/3to0/3 0/3to0/4 0/4to1/4 1/4to2/4 2/4to3/4 3/4to4/4"/>
    </vehicle>
    <vehicle id="snake.32" depart="96.00">
        <route edges="0/0to1/0 1/0to2/0 2/0to3/0 3/0to4/0 4/0to4/1 4/1to3/1 3/1to2/1 2/1to1/1 1/1to0/1 0/1to0/2 0/2to1/2 1/2to2/2 2/2to3/2 3/2to4/2 4/2to4/3 4/3to3/3 3/3to2/3 2/3to1/3 1/3to0/3 0/3to0/4 0/4to1/4 1/4to2/4 2/4to3/4 3/4to4/4"/>
    </vehicle>
</routes>
