<?xml version="1.0" encoding="UTF-8"?>

<!-- generated on 2025-11-05T09:12:43.947370+01:00 by Eclipse SUMO netedit v1_24_0+1769-94d86611aef
This data file and the accompanying materials
are made available under the terms of the Eclipse Public License v2.0
which accompanies this distribution, and is available at
http://www.eclipse.org/legal/epl-v20.html
This file may also be made available under the following Secondary
Licenses when the conditions for such availability set forth in the Eclipse
Public License 2.0 are satisfied: GNU General Public License, version 2
or later which is available at
https://www.gnu.org/licenses/old-licenses/gpl-2.0-standalone.html
SPDX-License-Identifier: EPL-2.0 OR GPL-2.0-or-later
-->

<routes xmlns:xsi="http://www.w3.org/2001/XMLSchema-instance" xsi:noNamespaceSchemaLocation="http://sumo.dlr.de/xsd/routes_file.xsd">
    <!-- VTypes -->
    <vType id="v1" probability="2.00" sigma="0"/>
    <vType id="v2" probability="1.00" sigma="0"/>
    <vTypeDistribution id="vt1">
        <vType refId="v1"/>
        <vType refId="v2"/>
    </vTypeDistribution>
    <!-- Vehicles, persons and containers (sorted by depart) -->
    <flow id="1" type="vt1" begin="0.00" number="10" period="2">
        <route edges="Edge0 Edge1 Edge2"/>
    </flow>
</routes>
