<?xml version="1.0" encoding="UTF-8"?>

<!-- generated on Mon Feb 17 15:30:50 2020 by Eclipse SUMO netconvert Version v1_5_0+0130-ceb0a01
This data file and the accompanying materials
are made available under the terms of the Eclipse Public License v2.0
which accompanies this distribution, and is available at
http://www.eclipse.org/legal/epl-v20.html
SPDX-License-Identifier: EPL-2.0
<configuration xmlns:xsi="http://www.w3.org/2001/XMLSchema-instance" xsi:noNamespaceSchemaLocation="http://sumo.dlr.de/xsd/netconvertConfiguration.xsd">

    <input>
        <node-files value="input_nodes.nod.xml"/>
        <edge-files value="input_edges.edg.xml,input_edges2.edg.xml"/>
    </input>

    <output>
        <write-license value="true"/>
        <output-file value="net.net.xml"/>
    </output>

    <report>
        <xml-validation value="never"/>
        <aggregate-warnings value="5"/>
    </report>

</configuration>
-->

<net version="1.6" junctionCornerDetail="5" limitTurnSpeed="5.50" xmlns:xsi="http://www.w3.org/2001/XMLSchema-instance" xsi:noNamespaceSchemaLocation="http://sumo.dlr.de/xsd/net_file.xsd">

    <location netOffset="500.00,500.00" convBoundary="0.00,0.00,1000.00,1000.00" origBoundary="-500.00,-500.00,500.00,500.00" projParameter="!"/>

    <edge id=":0_0" function="internal">
        <lane id=":0_0_0" index="0" speed="7.33" length="11.73" shape="495.20,510.40 494.85,506.55 493.80,503.80 492.05,502.15 489.60,501.60"/>
    </edge>
    <edge id=":0_1" function="internal">
        <lane id=":0_1_0" index="0" speed="16.00" length="22.83" shape="495.20,510.40 495.70,503.36 496.80,497.24 497.90,492.06 498.40,487.83"/>
    </edge>
    <edge id=":0_2" function="internal">
        <lane id=":0_2_0" index="0" speed="9.26" length="9.78" shape="498.40,510.40 499.15,505.15 501.40,501.40 501.49,501.35"/>
    </edge>
    <edge id=":0_3" function="internal">
        <lane id=":0_3_0" index="0" speed="3.65" length="2.52" shape="498.40,510.40 499.20,509.20 500.00,508.80 500.17,508.88"/>
    </edge>
    <edge id=":0_16" function="internal">
        <lane id=":0_16_0" index="0" speed="9.26" length="9.57" shape="501.49,501.35 505.15,499.15 510.40,498.40"/>
    </edge>
    <edge id=":0_17" function="internal">
        <lane id=":0_17_0" index="0" speed="3.65" length="2.15" shape="500.17,508.88 500.80,509.20 501.60,510.40"/>
    </edge>
    <edge id=":0_4" function="internal">
        <lane id=":0_4_0" index="0" speed="7.33" length="11.73" shape="510.40,504.80 506.55,505.15 503.80,506.20 502.15,507.95 501.60,510.40"/>
    </edge>
    <edge id=":0_5" function="internal">
        <lane id=":0_5_0" index="0" speed="16.00" length="20.80" shape="510.40,501.60 489.60,501.60"/>
    </edge>
    <edge id=":0_6" function="internal">
        <lane id=":0_6_0" index="0" speed="9.58" length="20.80" shape="510.40,501.60 505.15,500.74 501.40,498.16 499.15,493.85 498.40,487.83"/>
    </edge>
    <edge id=":0_7" function="internal">
        <lane id=":0_7_0" index="0" speed="3.65" length="4.67" shape="510.40,501.60 509.20,500.80 508.80,500.00 509.20,499.20 510.40,498.40"/>
    </edge>
    <edge id=":0_8" function="internal">
        <lane id=":0_8_0" index="0" speed="7.76" length="13.29" shape="504.80,487.83 505.15,492.45 506.20,495.76 507.95,497.74 510.40,498.40"/>
    </edge>
    <edge id=":0_9" function="internal">
        <lane id=":0_9_0" index="0" speed="16.00" length="22.83" shape="504.80,487.83 504.30,494.87 503.20,500.99 502.10,506.17 501.60,510.40"/>
    </edge>
    <edge id=":0_10" function="internal">
        <lane id=":0_10_0" index="0" speed="9.58" length="11.40" shape="501.60,487.83 500.85,493.85 498.60,498.16 498.21,498.42"/>
    </edge>
    <edge id=":0_11" function="internal">
        <lane id=":0_11_0" index="0" speed="3.65" length="2.52" shape="501.60,487.83 500.80,489.03 500.00,489.43 499.83,489.34"/>
    </edge>
    <edge id=":0_18" function="internal">
        <lane id=":0_18_0" index="0" speed="9.58" length="9.40" shape="498.21,498.42 494.85,500.74 489.60,501.60"/>
    </edge>
    <edge id=":0_19" function="internal">
        <lane id=":0_19_0" index="0" speed="3.65" length="2.15" shape="499.83,489.34 499.20,489.03 498.40,487.83"/>
    </edge>
    <edge id=":0_12" function="internal">
        <lane id=":0_12_0" index="0" speed="5.84" length="9.13" shape="492.49,491.83 495.08,492.46 496.92,492.01 498.03,490.46 498.40,487.83"/>
    </edge>
    <edge id=":0_13" function="internal">
        <lane id=":0_13_0" index="0" speed="16.00" length="19.58" shape="491.30,494.80 497.39,496.88 502.36,497.95 506.58,498.34 510.40,498.40"/>
    </edge>
    <edge id=":0_14" function="internal">
        <lane id=":0_14_0" index="0" speed="11.07" length="19.96" shape="491.30,494.80 495.81,497.32 499.03,500.76 500.96,505.12 501.60,510.40"/>
    </edge>
    <edge id=":0_15" function="internal">
        <lane id=":0_15_0" index="0" speed="5.19" length="10.24" shape="491.30,494.80 493.43,497.14 493.85,499.05 492.58,500.54 489.60,501.60"/>
    </edge>
    <edge id=":1_0" function="internal">
        <lane id=":1_0_0" index="0" speed="3.81" length="4.59" shape="0.00,501.60 -1.31,501.05 -1.84,500.35 -1.60,499.51 -0.59,498.51"/>
    </edge>
    <edge id=":2_0" function="internal">
        <lane id=":2_0_0" index="0" speed="3.65" length="4.67" shape="1000.00,498.40 1001.20,499.20 1001.60,500.00 1001.20,500.80 1000.00,501.60"/>
    </edge>
    <edge id=":3_0" function="internal">
        <lane id=":3_0_0" index="0" speed="3.65" length="4.67" shape="498.40,0.00 499.20,-1.20 500.00,-1.60 500.80,-1.20 501.60,0.00"/>
    </edge>
    <edge id=":4_0" function="internal">
        <lane id=":4_0_0" index="0" speed="3.65" length="4.67" shape="501.60,1000.00 500.80,1001.20 500.00,1001.60 499.20,1001.20 498.40,1000.00"/>
    </edge>

    <edge id="1fi" from="1" to="0" priority="-1" shape="0.00,500.00 250.00,400.00 500.00,500.00">
        <lane id="1fi_0" index="0" speed="16.00" length="531.07" shape="-1.78,495.54 250.00,394.83 492.49,491.83"/>
        <lane id="1fi_1" index="1" speed="16.00" length="531.07" shape="-0.59,498.51 250.00,398.28 491.30,494.80"/>
    </edge>
    <edge id="1o" from="0" to="1" priority="-1">
        <lane id="1o_0" index="0" speed="16.00" length="489.60" shape="489.60,501.60 0.00,501.60"/>
    </edge>
    <edge id="2fi" from="2" to="0" priority="-1">
        <lane id="2fi_0" index="0" speed="16.00" length="489.60" shape="1000.00,504.80 510.40,504.80"/>
        <lane id="2fi_1" index="1" speed="16.00" length="489.60" shape="1000.00,501.60 510.40,501.60"/>
    </edge>
    <edge id="2o" from="0" to="2" priority="-1">
        <lane id="2o_0" index="0" speed="16.00" length="489.60" shape="510.40,498.40 1000.00,498.40"/>
    </edge>
    <edge id="3fi" from="3" to="0" priority="-1">
        <lane id="3fi_0" index="0" speed="16.00" length="487.83" shape="504.80,0.00 504.80,487.83"/>
        <lane id="3fi_1" index="1" speed="16.00" length="487.83" shape="501.60,0.00 501.60,487.83"/>
    </edge>
    <edge id="3o" from="0" to="3" priority="-1">
        <lane id="3o_0" index="0" speed="16.00" length="487.83" shape="498.40,487.83 498.40,0.00"/>
    </edge>
    <edge id="4fi" from="4" to="0" priority="-1">
        <lane id="4fi_0" index="0" speed="16.00" length="489.60" shape="495.20,1000.00 495.20,510.40"/>
        <lane id="4fi_1" index="1" speed="16.00" length="489.60" shape="498.40,1000.00 498.40,510.40"/>
    </edge>
    <edge id="4o" from="0" to="4" priority="-1">
        <lane id="4o_0" index="0" speed="16.00" length="489.60" shape="501.60,510.40 501.60,1000.00"/>
    </edge>

    <junction id="0" type="priority" x="500.00" y="500.00" incLanes="4fi_0 4fi_1 2fi_0 2fi_1 3fi_0 3fi_1 1fi_0 1fi_1" intLanes=":0_0_0 :0_1_0 :0_16_0 :0_17_0 :0_4_0 :0_5_0 :0_6_0 :0_7_0 :0_8_0 :0_9_0 :0_18_0 :0_19_0 :0_12_0 :0_13_0 :0_14_0 :0_15_0" shape="493.60,510.40 503.20,510.40 504.00,508.18 505.00,507.40 506.40,506.84 508.20,506.51 510.40,506.40 510.40,496.80 508.18,495.80 507.40,494.56 506.84,492.81 506.51,490.57 506.40,487.83 496.80,487.83 496.39,489.88 495.87,490.46 495.15,490.72 494.22,490.68 493.09,490.34 490.71,496.28 489.60,500.00 489.60,503.20 491.82,504.00 492.60,505.00 493.16,506.40 493.49,508.20">
        <request index="0"  response="0000000000000000" foes="1000010000100000" cont="0"/>
        <request index="1"  response="0000000000000000" foes="0111110001100000" cont="0"/>
        <request index="2"  response="0000001100000000" foes="0110001111100000" cont="1"/>
        <request index="3"  response="0100001000010000" foes="0100001000010000" cont="1"/>
        <request index="4"  response="0000001000000000" foes="0100001000001000" cont="0"/>
        <request index="5"  response="0000011000000111" foes="1100011000000111" cont="0"/>
        <request index="6"  response="0011011000000110" foes="0011111000000110" cont="0"/>
        <request index="7"  response="0010000100000100" foes="0010000100000100" cont="0"/>
        <request index="8"  response="0000000000000000" foes="0010000010000100" cont="0"/>
        <request index="9"  response="0000000000000000" foes="0110000001111100" cont="0"/>
        <request index="10" response="0000000000000011" foes="1110000001100011" cont="1"/>
        <request index="11" response="0001000001000010" foes="0001000001000010" cont="1"/>
        <request index="12" response="0000000000000010" foes="0000100001000010" cont="0"/>
        <request index="13" response="0000011100000110" foes="0000011111000110" cont="0"/>
        <request index="14" response="0000011000110110" foes="0000011000111110" cont="0"/>
        <request index="15" response="0000010000100001" foes="0000010000100001" cont="0"/>
    </junction>
    <junction id="1" type="priority" x="0.00" y="500.00" incLanes="1o_0" intLanes=":1_0_0" shape="0.00,500.00 -2.38,494.06 0.00,503.20">
        <request index="0" response="0" foes="0" cont="0"/>
    </junction>
    <junction id="2" type="priority" x="1000.00" y="500.00" incLanes="2o_0" intLanes=":2_0_0" shape="1000.00,500.00 1000.00,496.80 1000.00,500.00">
        <request index="0" response="0" foes="0" cont="0"/>
    </junction>
    <junction id="3" type="priority" x="500.00" y="0.00" incLanes="3o_0" intLanes=":3_0_0" shape="500.00,0.00 496.80,0.00 500.00,0.00">
        <request index="0" response="0" foes="0" cont="0"/>
    </junction>
    <junction id="4" type="priority" x="500.00" y="1000.00" incLanes="4o_0" intLanes=":4_0_0" shape="500.00,1000.00 503.20,1000.00 500.00,1000.00">
        <request index="0" response="0" foes="0" cont="0"/>
    </junction>

    <junction id=":0_16_0" type="internal" x="501.49" y="501.35" incLanes=":0_2_0 3fi_0" intLanes=":0_5_0 :0_6_0 :0_7_0 :0_8_0 :0_9_0 :0_13_0 :0_14_0"/>
    <junction id=":0_17_0" type="internal" x="500.17" y="508.88" incLanes=":0_3_0 1fi_1 2fi_0 3fi_0" intLanes=":0_4_0 :0_9_0 :0_14_0"/>
    <junction id=":0_18_0" type="internal" x="498.21" y="498.42" incLanes=":0_10_0 4fi_0" intLanes=":0_0_0 :0_1_0 :0_5_0 :0_6_0 :0_13_0 :0_14_0 :0_15_0"/>
    <junction id=":0_19_0" type="internal" x="499.83" y="489.34" incLanes=":0_11_0 1fi_0 2fi_1 4fi_0" intLanes=":0_1_0 :0_6_0 :0_12_0"/>

    <connection from="1fi" to="3o" fromLane="0" toLane="0" via=":0_12_0" dir="r" state="m"/>
    <connection from="1fi" to="2o" fromLane="1" toLane="0" via=":0_13_0" dir="s" state="m"/>
    <connection from="1fi" to="4o" fromLane="1" toLane="0" via=":0_14_0" dir="l" state="m"/>
    <connection from="1fi" to="1o" fromLane="1" toLane="0" via=":0_15_0" dir="t" state="m"/>
    <connection from="1o" to="1fi" fromLane="0" toLane="1" via=":1_0_0" dir="t" state="M"/>
    <connection from="2fi" to="4o" fromLane="0" toLane="0" via=":0_4_0" dir="r" state="m"/>
    <connection from="2fi" to="1o" fromLane="1" toLane="0" via=":0_5_0" dir="s" state="m"/>
    <connection from="2fi" to="3o" fromLane="1" toLane="0" via=":0_6_0" dir="l" state="m"/>
    <connection from="2fi" to="2o" fromLane="1" toLane="0" via=":0_7_0" dir="t" state="m"/>
    <connection from="2o" to="2fi" fromLane="0" toLane="1" via=":2_0_0" dir="t" state="M"/>
    <connection from="3fi" to="2o" fromLane="0" toLane="0" via=":0_8_0" dir="r" state="M"/>
    <connection from="3fi" to="4o" fromLane="0" toLane="0" via=":0_9_0" dir="s" state="M"/>
    <connection from="3fi" to="1o" fromLane="1" toLane="0" via=":0_10_0" dir="l" state="m"/>
    <connection from="3fi" to="3o" fromLane="1" toLane="0" via=":0_11_0" dir="t" state="m"/>
    <connection from="3o" to="3fi" fromLane="0" toLane="1" via=":3_0_0" dir="t" state="M"/>
    <connection from="4fi" to="1o" fromLane="0" toLane="0" via=":0_0_0" dir="r" state="M"/>
    <connection from="4fi" to="3o" fromLane="0" toLane="0" via=":0_1_0" dir="s" state="M"/>
    <connection from="4fi" to="2o" fromLane="1" toLane="0" via=":0_2_0" dir="l" state="m"/>
    <connection from="4fi" to="4o" fromLane="1" toLane="0" via=":0_3_0" dir="t" state="m"/>
    <connection from="4o" to="4fi" fromLane="0" toLane="1" via=":4_0_0" dir="t" state="M"/>

    <connection from=":0_0" to="1o" fromLane="0" toLane="0" dir="r" state="M"/>
    <connection from=":0_1" to="3o" fromLane="0" toLane="0" dir="s" state="M"/>
    <connection from=":0_2" to="2o" fromLane="0" toLane="0" via=":0_16_0" dir="l" state="m"/>
    <connection from=":0_16" to="2o" fromLane="0" toLane="0" dir="l" state="M"/>
    <connection from=":0_3" to="4o" fromLane="0" toLane="0" via=":0_17_0" dir="t" state="m"/>
    <connection from=":0_17" to="4o" fromLane="0" toLane="0" dir="t" state="M"/>
    <connection from=":0_4" to="4o" fromLane="0" toLane="0" dir="r" state="M"/>
    <connection from=":0_5" to="1o" fromLane="0" toLane="0" dir="s" state="M"/>
    <connection from=":0_6" to="3o" fromLane="0" toLane="0" dir="l" state="M"/>
    <connection from=":0_7" to="2o" fromLane="0" toLane="0" dir="t" state="M"/>
    <connection from=":0_8" to="2o" fromLane="0" toLane="0" dir="r" state="M"/>
    <connection from=":0_9" to="4o" fromLane="0" toLane="0" dir="s" state="M"/>
    <connection from=":0_10" to="1o" fromLane="0" toLane="0" via=":0_18_0" dir="l" state="m"/>
    <connection from=":0_18" to="1o" fromLane="0" toLane="0" dir="l" state="M"/>
    <connection from=":0_11" to="3o" fromLane="0" toLane="0" via=":0_19_0" dir="t" state="m"/>
    <connection from=":0_19" to="3o" fromLane="0" toLane="0" dir="t" state="M"/>
    <connection from=":0_12" to="3o" fromLane="0" toLane="0" dir="r" state="M"/>
    <connection from=":0_13" to="2o" fromLane="0" toLane="0" dir="s" state="M"/>
    <connection from=":0_14" to="4o" fromLane="0" toLane="0" dir="l" state="M"/>
    <connection from=":0_15" to="1o" fromLane="0" toLane="0" dir="t" state="M"/>
    <connection from=":1_0" to="1fi" fromLane="0" toLane="1" dir="t" state="M"/>
    <connection from=":2_0" to="2fi" fromLane="0" toLane="1" dir="t" state="M"/>
    <connection from=":3_0" to="3fi" fromLane="0" toLane="1" dir="t" state="M"/>
    <connection from=":4_0" to="4fi" fromLane="0" toLane="1" dir="t" state="M"/>

</net>
