<?xml version="1.0" encoding="UTF-8"?>

<!-- generated on 2026-04-23T14:31:14.815076+01:00 by Eclipse SUMO sumo v1_26_0+1357-4cb6fe19152
<sumoConfiguration xmlns:xsi="http://www.w3.org/2001/XMLSchema-instance" xsi:noNamespaceSchemaLocation="http://sumo.dlr.de/xsd/sumoConfiguration.xsd">

    <input>
        <net-file value="net.net.xml"/>
        <route-files value="input_routes2.rou.xml,input_routes.rou.xml"/>
    </input>

    <output>
        <tripinfo-output value="tripinfos.xml"/>
        <tripinfo-output.write-unfinished value="true"/>
        <statistic-output value="stats.xml"/>
    </output>

    <processing>
        <default.departspeed value="0"/>
    </processing>

    <report>
        <no-step-log value="true"/>
    </report>

    <taxi_device>
        <device.taxi.dispatch-algorithm value="traci"/>
    </taxi_device>

    <traci_server>
        <remote-port value="44999"/>
    </traci_server>

</sumoConfiguration>
-->

<statistics xmlns:xsi="http://www.w3.org/2001/XMLSchema-instance" xsi:noNamespaceSchemaLocation="http://sumo.dlr.de/xsd/statistic_file.xsd">
    <performance clockBegin="1776947474.82" clockEnd="1776947474.87" clockDuration="0.06" traciDuration="0.04" realTimeFactor="11454.55" vehicleUpdatesPerSecond="11454.55" personUpdatesPerSecond="4363.64" begin="0.00" end="630.00" duration="630.00"/>
    <vehicles loaded="1" inserted="1" running="1" waiting="0"/>
    <teleports total="0" jam="0" yield="0" wrongLane="0"/>
    <safety collisions="0" emergencyStops="0" emergencyBraking="0"/>
    <persons loaded="2" running="0" jammed="0"/>
    <personTeleports total="0" abortWait="0" wrongDest="0"/>
    <vehicleTripStatistics count="1" routeLength="782.29" speed="1.24" duration="630.00" waitingTime="4.00" timeLoss="12.50" departDelay="0.00" departDelayWaiting="0.00" totalTravelTime="630.00" totalDepartDelay="0.00"/>
    <pedestrianStatistics number="0" routeLength="0.00" duration="0.00" timeLoss="0.00"/>
    <rideStatistics number="2" waitingTime="60.50" routeLength="239.72" duration="104.50" bus="0" train="0" taxi="1" bike="0" aborted="0"/>
    <transportStatistics number="0"/>
</statistics>
