<?xml version="1.0" encoding="UTF-8"?>

<!-- generated on 2021-11-17 10:46:39 by Eclipse SUMO netedit Version v1_10_0+2357-12b6546a02d
<configuration xmlns:xsi="http://www.w3.org/2001/XMLSchema-instance" xsi:noNamespaceSchemaLocation="http://sumo.dlr.de/xsd/netconvertConfiguration.xsd">

    <input>
        <sumo-net-file value="C:\Users\alva_pa\.texttest\tmp\netedit.gui.17Nov104619.32112\netedit.gui\additionalElements\variablespeedsign\load\default\input_net.net.xml"/>
    </input>

    <output>
        <output-file value="C:\Users\alva_pa\.texttest\tmp\netedit.gui.17Nov104619.32112\netedit.gui\additionalElements\variablespeedsign\load\default\net.net.xml"/>
    </output>

    <processing>
        <geometry.min-radius.fix.railways value="false"/>
        <geometry.max-grade.fix value="false"/>
        <offset.disable-normalization value="true"/>
        <lefthand value="false"/>
    </processing>

    <junctions>
        <no-turnarounds value="true"/>
        <junctions.corner-detail value="5"/>
        <junctions.limit-turn-speed value="5.5"/>
        <rectangular-lane-cut value="false"/>
    </junctions>

    <pedestrian>
        <walkingareas value="false"/>
    </pedestrian>

    <netedit>
        <additional-files value="C:\Users\alva_pa\.texttest\tmp\netedit.gui.17Nov104619.32112\netedit.gui\additionalElements\variablespeedsign\load\default\additionals.xml"/>
        <additionals-output value="C:\Users\alva_pa\.texttest\tmp\netedit.gui.17Nov104619.32112\netedit.gui\additionalElements\variablespeedsign\load\default\additionals.xml"/>
        <route-files value="C:\Users\alva_pa\.texttest\tmp\netedit.gui.17Nov104619.32112\netedit.gui\additionalElements\variablespeedsign\load\default\routes.xml"/>
        <demandelements-output value="C:\Users\alva_pa\.texttest\tmp\netedit.gui.17Nov104619.32112\netedit.gui\additionalElements\variablespeedsign\load\default\routes.xml"/>
        <data-files value="C:\Users\alva_pa\.texttest\tmp\netedit.gui.17Nov104619.32112\netedit.gui\additionalElements\variablespeedsign\load\default\datas.xml"/>
        <dataelements-output value="C:\Users\alva_pa\.texttest\tmp\netedit.gui.17Nov104619.32112\netedit.gui\additionalElements\variablespeedsign\load\default\datas.xml"/>
    </netedit>

    <visualisation>
        <gui-settings-file value="C:\Users\alva_pa\.texttest\tmp\netedit.gui.17Nov104619.32112\netedit.gui\additionalElements\variablespeedsign\load\default\gui-settings.xml"/>
        <window-size value="936,697"/>
        <window-pos value="50,50"/>
        <gui-testing value="true"/>
        <gui-testing-debug value="true"/>
        <gui-testing-debug-gl value="true"/>
        <gui-testing.setting-output value="C:\Users\alva_pa\.texttest\tmp\netedit.gui.17Nov104619.32112\netedit.gui\additionalElements\variablespeedsign\load\default\guisettingsoutput.xml"/>
    </visualisation>

    <report>
        <no-warnings value="true"/>
        <aggregate-warnings value="5"/>
        <error-log value="C:\Users\alva_pa\.texttest\tmp\netedit.gui.17Nov104619.32112\netedit.gui\additionalElements\variablespeedsign\load\default\log.txt"/>
    </report>

</configuration>
-->

<additional xmlns:xsi="http://www.w3.org/2001/XMLSchema-instance" xsi:noNamespaceSchemaLocation="http://sumo.dlr.de/xsd/additional_file.xsd">
    <variableSpeedSign id="variableSpeedSign_0" lanes="gneE0_0 gneE1_0" pos="0.00,0.00"/>
</additional>
