<routes>
    <vType id="slow" maxSpeed="2"/>
    <vType id="fast"/>
    <route id="r0" edges="SC CW"/>
    <route id="r1" edges="SC CE"/>
    <vehicle id="leader" type="slow" route="r0" depart="0"/>
    <vehicle id="follower" type="fast" route="r1" depart="1"/>
</routes>
