<?xml version="1.0"?>

<!-- generated on 04/02/10 11:41:22 by SUMO sumo Version dev-SVN-r8487
<configuration>

    <input>
        <net-file value="net.net.xml"/>
        <additional-files value="input_routes.rou.xml,input_additional.add.xml"/>
    </input>

    <time>
        <begin value="0"/>
        <end value="150"/>
    </time>

    <report>
        <no-duration-log value="true"/>
        <no-step-log value="true"/>
    </report>

</configuration>
-->

<netstats>
    <interval begin="0.00" end="15.00" id="dump_15">
        <edge id="beg">
            <lane id="beg_0" sampledSeconds="14.00" traveltime="37.92" density="1.87" occupancy="1.40" waitingTime="0.00" speed="13.15" departed="1" arrived="0" entered="0" left="0" laneChangedFrom="0" laneChangedTo="0"/>
        </edge>
    </interval>
    <interval begin="0.00" end="15.00" id="dump_15_internal">
        <edge id="beg">
            <lane id="beg_0" sampledSeconds="14.00" traveltime="37.92" density="1.87" occupancy="1.40" waitingTime="0.00" speed="13.15" departed="1" arrived="0" entered="0" left="0" laneChangedFrom="0" laneChangedTo="0"/>
        </edge>
    </interval>
    <interval begin="15.00" end="30.00" id="dump_15">
        <edge id="beg">
            <lane id="beg_0" sampledSeconds="12.63" traveltime="20.03" density="1.69" occupancy="1.27" waitingTime="0.00" speed="24.89" departed="0" arrived="0" entered="0" left="1" laneChangedFrom="0" laneChangedTo="0"/>
        </edge>
        <edge id="middle">
            <lane id="middle_0" sampledSeconds="1.90" traveltime="73.89" density="0.13" occupancy="0.10" waitingTime="0.00" speed="13.41" departed="0" arrived="0" entered="1" left="0" laneChangedFrom="0" laneChangedTo="0"/>
        </edge>
    </interval>
    <interval begin="15.00" end="30.00" id="dump_15_internal">
        <edge id=":beg_0">
            <lane id=":beg_0_0" sampledSeconds="0.47" traveltime="0.47" density="5.05" occupancy="3.78" waitingTime="0.00" speed="13.21" departed="0" arrived="0" entered="1" left="1" laneChangedFrom="0" laneChangedTo="0"/>
        </edge>
        <edge id="beg">
            <lane id="beg_0" sampledSeconds="12.63" traveltime="20.03" density="1.69" occupancy="1.27" waitingTime="0.00" speed="24.89" departed="0" arrived="0" entered="0" left="1" laneChangedFrom="0" laneChangedTo="0"/>
        </edge>
        <edge id="middle">
            <lane id="middle_0" sampledSeconds="1.90" traveltime="73.89" density="0.13" occupancy="0.10" waitingTime="0.00" speed="13.41" departed="0" arrived="0" entered="1" left="0" laneChangedFrom="0" laneChangedTo="0"/>
        </edge>
    </interval>
    <interval begin="30.00" end="45.00" id="dump_15">
        <edge id="middle">
            <lane id="middle_0" sampledSeconds="15.00" traveltime="73.32" density="1.01" occupancy="0.76" waitingTime="0.00" speed="13.51" departed="0" arrived="0" entered="0" left="0" laneChangedFrom="0" laneChangedTo="0"/>
        </edge>
    </interval>
    <interval begin="30.00" end="45.00" id="dump_15_internal">
        <edge id="middle">
            <lane id="middle_0" sampledSeconds="15.00" traveltime="73.32" density="1.01" occupancy="0.76" waitingTime="0.00" speed="13.51" departed="0" arrived="0" entered="0" left="0" laneChangedFrom="0" laneChangedTo="0"/>
        </edge>
    </interval>
    <interval begin="45.00" end="60.00" id="dump_15">
        <edge id="middle">
            <lane id="middle_0" sampledSeconds="15.00" traveltime="74.23" density="1.01" occupancy="0.76" waitingTime="0.00" speed="13.34" departed="0" arrived="0" entered="0" left="0" laneChangedFrom="0" laneChangedTo="0"/>
        </edge>
    </interval>
    <interval begin="45.00" end="60.00" id="dump_15_internal">
        <edge id="middle">
            <lane id="middle_0" sampledSeconds="15.00" traveltime="74.23" density="1.01" occupancy="0.76" waitingTime="0.00" speed="13.34" departed="0" arrived="0" entered="0" left="0" laneChangedFrom="0" laneChangedTo="0"/>
        </edge>
    </interval>
    <interval begin="60.00" end="75.00" id="dump_15">
        <edge id="middle">
            <lane id="middle_0" sampledSeconds="15.00" traveltime="73.56" density="1.01" occupancy="0.76" waitingTime="0.00" speed="13.47" departed="0" arrived="0" entered="0" left="0" laneChangedFrom="0" laneChangedTo="0"/>
        </edge>
    </interval>
    <interval begin="60.00" end="75.00" id="dump_15_internal">
        <edge id="middle">
            <lane id="middle_0" sampledSeconds="15.00" traveltime="73.56" density="1.01" occupancy="0.76" waitingTime="0.00" speed="13.47" departed="0" arrived="0" entered="0" left="0" laneChangedFrom="0" laneChangedTo="0"/>
        </edge>
    </interval>
    <interval begin="75.00" end="90.00" id="dump_15">
        <edge id="middle">
            <lane id="middle_0" sampledSeconds="15.00" traveltime="73.51" density="1.01" occupancy="0.76" waitingTime="0.00" speed="13.47" departed="0" arrived="0" entered="0" left="0" laneChangedFrom="0" laneChangedTo="0"/>
        </edge>
    </interval>
    <interval begin="75.00" end="90.00" id="dump_15_internal">
        <edge id="middle">
            <lane id="middle_0" sampledSeconds="15.00" traveltime="73.51" density="1.01" occupancy="0.76" waitingTime="0.00" speed="13.47" departed="0" arrived="0" entered="0" left="0" laneChangedFrom="0" laneChangedTo="0"/>
        </edge>
    </interval>
    <interval begin="90.00" end="105.00" id="dump_15">
        <edge id="middle">
            <lane id="middle_0" sampledSeconds="13.88" traveltime="86.93" density="0.93" occupancy="0.70" waitingTime="0.00" speed="11.39" departed="0" arrived="0" entered="0" left="1" laneChangedFrom="0" laneChangedTo="0"/>
        </edge>
    </interval>
    <interval begin="90.00" end="105.00" id="dump_15_internal">
        <edge id=":end_1">
            <lane id=":end_1_0" sampledSeconds="1.12" traveltime="1.23" density="12.04" occupancy="9.03" waitingTime="0.00" speed="5.04" departed="0" arrived="0" entered="1" left="0" laneChangedFrom="0" laneChangedTo="0"/>
        </edge>
        <edge id="middle">
            <lane id="middle_0" sampledSeconds="13.88" traveltime="86.93" density="0.93" occupancy="0.70" waitingTime="0.00" speed="11.39" departed="0" arrived="0" entered="0" left="1" laneChangedFrom="0" laneChangedTo="0"/>
        </edge>
    </interval>
    <interval begin="105.00" end="120.00" id="dump_15">
        <edge id="end">
            <lane id="end_0" sampledSeconds="14.91" traveltime="27.64" density="1.99" occupancy="1.50" waitingTime="0.00" speed="18.04" departed="0" arrived="0" entered="1" left="0" laneChangedFrom="0" laneChangedTo="0"/>
        </edge>
    </interval>
    <interval begin="105.00" end="120.00" id="dump_15_internal">
        <edge id=":end_1">
            <lane id=":end_1_0" sampledSeconds="0.09" traveltime="0.95" density="0.93" occupancy="0.70" waitingTime="0.00" speed="6.51" departed="0" arrived="0" entered="0" left="1" laneChangedFrom="0" laneChangedTo="0"/>
        </edge>
        <edge id="end">
            <lane id="end_0" sampledSeconds="14.91" traveltime="27.64" density="1.99" occupancy="1.50" waitingTime="0.00" speed="18.04" departed="0" arrived="0" entered="1" left="0" laneChangedFrom="0" laneChangedTo="0"/>
        </edge>
    </interval>
    <interval begin="120.00" end="135.00" id="dump_15">
        <edge id="end">
            <lane id="end_0" sampledSeconds="8.38" traveltime="18.20" density="1.12" occupancy="0.84" waitingTime="0.00" speed="27.40" departed="0" arrived="0" entered="0" left="1" laneChangedFrom="0" laneChangedTo="0"/>
        </edge>
        <edge id="rend">
            <lane id="rend_0" sampledSeconds="0.62" traveltime="18.46" density="0.08" occupancy="0.06" waitingTime="0.00" speed="27.09" departed="0" arrived="1" entered="1" left="0" laneChangedFrom="0" laneChangedTo="0"/>
        </edge>
    </interval>
    <interval begin="120.00" end="135.00" id="dump_15_internal">
        <edge id=":absEnd_0">
            <lane id=":absEnd_0_0" sampledSeconds="0.00" traveltime="0.00" density="2.46" occupancy="1.85" waitingTime="0.00" speed="27.09" departed="0" arrived="0" entered="1" left="1" laneChangedFrom="0" laneChangedTo="0"/>
        </edge>
        <edge id="end">
            <lane id="end_0" sampledSeconds="8.38" traveltime="18.20" density="1.12" occupancy="0.84" waitingTime="0.00" speed="27.40" departed="0" arrived="0" entered="0" left="1" laneChangedFrom="0" laneChangedTo="0"/>
        </edge>
        <edge id="rend">
            <lane id="rend_0" sampledSeconds="0.62" traveltime="18.46" density="0.08" occupancy="0.06" waitingTime="0.00" speed="27.09" departed="0" arrived="1" entered="1" left="0" laneChangedFrom="0" laneChangedTo="0"/>
        </edge>
    </interval>
    <interval begin="135.00" end="150.00" id="dump_15">
    </interval>
    <interval begin="135.00" end="150.00" id="dump_15_internal">
    </interval>
</netstats>
