<?xml version="1.0"?>

<!-- generated on Fri Nov  9 17:02:47 2012 by SUMO sumo Version dev-SVN-r12945
<?xml version="1.0" encoding="UTF-8"?>

<configuration xmlns:xsi="http://www.w3.org/2001/XMLSchema-instance" xsi:noNamespaceSchemaLocation="http://sumo.sf.net/xsd/sumoConfiguration.xsd">

    <input>
        <net-file value="net.net.xml"/>
        <additional-files value="input_routes.rou.xml,input_additional.add.xml"/>
    </input>

    <time>
        <begin value="0"/>
        <end value="150"/>
    </time>

    <report>
        <no-duration-log value="true"/>
        <no-step-log value="true"/>
    </report>

</configuration>
-->

<netstats>
    <interval begin="0.00" end="15.00" id="dump_15">
        <edge id="beg">
            <lane id="beg_0" sampledSeconds="14.00" traveltime="34.09" density="1.87" occupancy="0.94" waitingTime="0.00" speed="14.63" departed="1" arrived="0" entered="0" left="0" laneChangedFrom="0" laneChangedTo="0"/>
        </edge>
    </interval>
    <interval begin="0.00" end="15.00" id="dump_15_internal">
        <edge id="beg">
            <lane id="beg_0" sampledSeconds="14.00" traveltime="34.09" density="1.87" occupancy="0.94" waitingTime="0.00" speed="14.63" departed="1" arrived="0" entered="0" left="0" laneChangedFrom="0" laneChangedTo="0"/>
        </edge>
    </interval>
    <interval begin="15.00" end="30.00" id="dump_15">
        <edge id="beg">
            <lane id="beg_0" sampledSeconds="11.25" traveltime="19.10" density="1.50" occupancy="0.75" waitingTime="0.00" speed="26.11" departed="0" arrived="0" entered="0" left="1" laneChangedFrom="0" laneChangedTo="0"/>
        </edge>
        <edge id="middle">
            <lane id="middle_0" sampledSeconds="3.67" traveltime="73.19" density="0.25" occupancy="0.12" waitingTime="0.00" speed="13.53" departed="0" arrived="0" entered="1" left="0" laneChangedFrom="0" laneChangedTo="0"/>
        </edge>
    </interval>
    <interval begin="15.00" end="30.00" id="dump_15_internal">
        <edge id=":beg_0">
            <lane id=":beg_0_0" sampledSeconds="0.71" traveltime="0.39" density="7.62" occupancy="3.81" waitingTime="0.00" speed="15.80" departed="0" arrived="0" entered="1" left="1" laneChangedFrom="0" laneChangedTo="0"/>
        </edge>
        <edge id="beg">
            <lane id="beg_0" sampledSeconds="11.25" traveltime="19.10" density="1.50" occupancy="0.75" waitingTime="0.00" speed="26.11" departed="0" arrived="0" entered="0" left="1" laneChangedFrom="0" laneChangedTo="0"/>
        </edge>
        <edge id="middle">
            <lane id="middle_0" sampledSeconds="3.67" traveltime="73.19" density="0.25" occupancy="0.12" waitingTime="0.00" speed="13.53" departed="0" arrived="0" entered="1" left="0" laneChangedFrom="0" laneChangedTo="0"/>
        </edge>
    </interval>
    <interval begin="30.00" end="45.00" id="dump_15">
        <edge id="middle">
            <lane id="middle_0" sampledSeconds="15.00" traveltime="73.84" density="1.01" occupancy="0.50" waitingTime="0.00" speed="13.41" departed="0" arrived="0" entered="0" left="0" laneChangedFrom="0" laneChangedTo="0"/>
        </edge>
    </interval>
    <interval begin="30.00" end="45.00" id="dump_15_internal">
        <edge id="middle">
            <lane id="middle_0" sampledSeconds="15.00" traveltime="73.84" density="1.01" occupancy="0.50" waitingTime="0.00" speed="13.41" departed="0" arrived="0" entered="0" left="0" laneChangedFrom="0" laneChangedTo="0"/>
        </edge>
    </interval>
    <interval begin="45.00" end="60.00" id="dump_15">
        <edge id="middle">
            <lane id="middle_0" sampledSeconds="15.00" traveltime="75.00" density="1.01" occupancy="0.50" waitingTime="0.00" speed="13.21" departed="0" arrived="0" entered="0" left="0" laneChangedFrom="0" laneChangedTo="0"/>
        </edge>
    </interval>
    <interval begin="45.00" end="60.00" id="dump_15_internal">
        <edge id="middle">
            <lane id="middle_0" sampledSeconds="15.00" traveltime="75.00" density="1.01" occupancy="0.50" waitingTime="0.00" speed="13.21" departed="0" arrived="0" entered="0" left="0" laneChangedFrom="0" laneChangedTo="0"/>
        </edge>
    </interval>
    <interval begin="60.00" end="75.00" id="dump_15">
        <edge id="middle">
            <lane id="middle_0" sampledSeconds="15.00" traveltime="74.15" density="1.01" occupancy="0.50" waitingTime="0.00" speed="13.36" departed="0" arrived="0" entered="0" left="0" laneChangedFrom="0" laneChangedTo="0"/>
        </edge>
    </interval>
    <interval begin="60.00" end="75.00" id="dump_15_internal">
        <edge id="middle">
            <lane id="middle_0" sampledSeconds="15.00" traveltime="74.15" density="1.01" occupancy="0.50" waitingTime="0.00" speed="13.36" departed="0" arrived="0" entered="0" left="0" laneChangedFrom="0" laneChangedTo="0"/>
        </edge>
    </interval>
    <interval begin="75.00" end="90.00" id="dump_15">
        <edge id="middle">
            <lane id="middle_0" sampledSeconds="15.00" traveltime="74.09" density="1.01" occupancy="0.50" waitingTime="0.00" speed="13.37" departed="0" arrived="0" entered="0" left="0" laneChangedFrom="0" laneChangedTo="0"/>
        </edge>
    </interval>
    <interval begin="75.00" end="90.00" id="dump_15_internal">
        <edge id="middle">
            <lane id="middle_0" sampledSeconds="15.00" traveltime="74.09" density="1.01" occupancy="0.50" waitingTime="0.00" speed="13.37" departed="0" arrived="0" entered="0" left="0" laneChangedFrom="0" laneChangedTo="0"/>
        </edge>
    </interval>
    <interval begin="90.00" end="105.00" id="dump_15">
        <edge id="end">
            <lane id="end_0" sampledSeconds="0.98" traveltime="62.09" density="0.13" occupancy="0.07" waitingTime="0.00" speed="8.03" departed="0" arrived="0" entered="1" left="0" laneChangedFrom="0" laneChangedTo="0"/>
        </edge>
        <edge id="middle">
            <lane id="middle_0" sampledSeconds="13.84" traveltime="94.15" density="0.93" occupancy="0.47" waitingTime="0.00" speed="10.52" departed="0" arrived="0" entered="0" left="1" laneChangedFrom="0" laneChangedTo="0"/>
        </edge>
    </interval>
    <interval begin="90.00" end="105.00" id="dump_15_internal">
        <edge id=":end_1">
            <lane id=":end_1_0" sampledSeconds="1.62" traveltime="0.90" density="17.41" occupancy="8.71" waitingTime="0.00" speed="6.92" departed="0" arrived="0" entered="1" left="1" laneChangedFrom="0" laneChangedTo="0"/>
        </edge>
        <edge id="end">
            <lane id="end_0" sampledSeconds="0.98" traveltime="62.09" density="0.13" occupancy="0.07" waitingTime="0.00" speed="8.03" departed="0" arrived="0" entered="1" left="0" laneChangedFrom="0" laneChangedTo="0"/>
        </edge>
        <edge id="middle">
            <lane id="middle_0" sampledSeconds="13.84" traveltime="94.15" density="0.93" occupancy="0.47" waitingTime="0.00" speed="10.52" departed="0" arrived="0" entered="0" left="1" laneChangedFrom="0" laneChangedTo="0"/>
        </edge>
    </interval>
    <interval begin="105.00" end="120.00" id="dump_15">
        <edge id="end">
            <lane id="end_0" sampledSeconds="15.00" traveltime="23.23" density="2.01" occupancy="1.00" waitingTime="0.00" speed="21.46" departed="0" arrived="0" entered="0" left="0" laneChangedFrom="0" laneChangedTo="0"/>
        </edge>
    </interval>
    <interval begin="105.00" end="120.00" id="dump_15_internal">
        <edge id="end">
            <lane id="end_0" sampledSeconds="15.00" traveltime="23.23" density="2.01" occupancy="1.00" waitingTime="0.00" speed="21.46" departed="0" arrived="0" entered="0" left="0" laneChangedFrom="0" laneChangedTo="0"/>
        </edge>
    </interval>
    <interval begin="120.00" end="135.00" id="dump_15">
        <edge id="end">
            <lane id="end_0" sampledSeconds="6.41" traveltime="18.37" density="0.86" occupancy="0.43" waitingTime="0.00" speed="27.13" departed="0" arrived="0" entered="0" left="1" laneChangedFrom="0" laneChangedTo="0"/>
        </edge>
        <edge id="rend">
            <lane id="rend_0" sampledSeconds="8.78" traveltime="18.42" density="1.17" occupancy="0.59" waitingTime="0.00" speed="27.15" departed="0" arrived="0" entered="1" left="0" laneChangedFrom="0" laneChangedTo="0"/>
        </edge>
    </interval>
    <interval begin="120.00" end="135.00" id="dump_15_internal">
        <edge id=":absEnd_0">
            <lane id=":absEnd_0_0" sampledSeconds="0.19" traveltime="0.00" density="127.34" occupancy="63.67" waitingTime="0.00" speed="26.70" departed="0" arrived="0" entered="1" left="1" laneChangedFrom="0" laneChangedTo="0"/>
        </edge>
        <edge id="end">
            <lane id="end_0" sampledSeconds="6.41" traveltime="18.37" density="0.86" occupancy="0.43" waitingTime="0.00" speed="27.13" departed="0" arrived="0" entered="0" left="1" laneChangedFrom="0" laneChangedTo="0"/>
        </edge>
        <edge id="rend">
            <lane id="rend_0" sampledSeconds="8.78" traveltime="18.42" density="1.17" occupancy="0.59" waitingTime="0.00" speed="27.15" departed="0" arrived="0" entered="1" left="0" laneChangedFrom="0" laneChangedTo="0"/>
        </edge>
    </interval>
    <interval begin="135.00" end="150.00" id="dump_15">
        <edge id="rend">
            <lane id="rend_0" sampledSeconds="9.87" traveltime="18.49" density="1.32" occupancy="0.66" waitingTime="0.00" speed="27.04" departed="0" arrived="1" entered="0" left="0" laneChangedFrom="0" laneChangedTo="0"/>
        </edge>
    </interval>
    <interval begin="135.00" end="150.00" id="dump_15_internal">
        <edge id="rend">
            <lane id="rend_0" sampledSeconds="9.87" traveltime="18.49" density="1.32" occupancy="0.66" waitingTime="0.00" speed="27.04" departed="0" arrived="1" entered="0" left="0" laneChangedFrom="0" laneChangedTo="0"/>
        </edge>
    </interval>
</netstats>
