<?xml version="1.0" encoding="UTF-8"?>

<!-- generated on Tue Mar 24 16:15:52 2020 by Eclipse SUMO netconvert Version v1_5_0+0921-3790a6fe8c
This data file and the accompanying materials
are made available under the terms of the Eclipse Public License v2.0
which accompanies this distribution, and is available at
http://www.eclipse.org/legal/epl-v20.html
SPDX-License-Identifier: EPL-2.0
<configuration xmlns:xsi="http://www.w3.org/2001/XMLSchema-instance" xsi:noNamespaceSchemaLocation="http://sumo.dlr.de/xsd/netconvertConfiguration.xsd">

    <input>
        <node-files value="input_plain.nod.xml"/>
        <edge-files value="input_plain.edg.xml"/>
    </input>

    <output>
        <write-license value="true"/>
    </output>

    <report>
        <xml-validation value="never"/>
        <aggregate-warnings value="5"/>
    </report>

</configuration>
-->

<net version="1.6" junctionCornerDetail="5" limitTurnSpeed="5.50" xmlns:xsi="http://www.w3.org/2001/XMLSchema-instance" xsi:noNamespaceSchemaLocation="http://sumo.dlr.de/xsd/net_file.xsd">

    <location netOffset="1000.00,100.00" convBoundary="0.00,0.00,2000.00,200.00" origBoundary="-1000.00,-100.00,1000.00,100.00" projParameter="!"/>

    <edge id=":C_0" function="internal">
        <lane id=":C_0_0" index="0" allow="rail" speed="13.89" length="6.20" shape="998.40,101.50 998.40,95.30"/>
    </edge>
    <edge id=":C_1" function="internal">
        <lane id=":C_1_0" index="0" allow="rail" speed="5.75" length="5.00" shape="998.40,101.50 998.59,100.14 999.17,99.18 1000.14,98.59 1001.50,98.40"/>
    </edge>
    <edge id=":C_2" function="internal">
        <lane id=":C_2_0" index="0" allow="rail" speed="5.75" length="5.00" shape="995.30,98.40 996.66,98.21 997.62,97.63 998.21,96.66 998.40,95.30"/>
    </edge>
    <edge id=":C_3" function="internal">
        <lane id=":C_3_0" index="0" allow="rail" speed="33.33" length="6.20" shape="995.30,98.40 1001.50,98.40"/>
    </edge>

    <edge id="CE" from="C" to="E" priority="2">
        <lane id="CE_0" index="0" allow="rail" speed="33.33" length="998.50" shape="1001.50,98.40 2000.00,98.40"/>
    </edge>
    <edge id="CS" from="C" to="S" priority="3">
        <lane id="CS_0" index="0" allow="rail" speed="13.89" length="95.30" shape="998.40,95.30 998.40,0.00"/>
    </edge>
    <edge id="NC" from="N" to="C" priority="3">
        <lane id="NC_0" index="0" allow="rail" speed="13.89" length="98.50" shape="998.40,200.00 998.40,101.50"/>
    </edge>
    <edge id="WC" from="W" to="C" priority="2">
        <lane id="WC_0" index="0" allow="rail" speed="33.33" length="995.30" shape="0.00,98.40 995.30,98.40"/>
    </edge>

    <junction id="C" type="priority" x="1000.00" y="100.00" incLanes="NC_0 WC_0" intLanes=":C_0_0 :C_1_0 :C_2_0 :C_3_0" shape="996.80,101.50 1000.00,101.50 1000.17,100.67 1000.38,100.38 1000.67,100.17 1001.04,100.04 1001.50,100.00 1001.50,96.80 1000.67,96.63 1000.38,96.43 1000.17,96.13 1000.04,95.76 1000.00,95.30 996.80,95.30 996.63,96.13 996.42,96.43 996.13,96.63 995.76,96.76 995.30,96.80 995.30,100.00 996.13,100.17 996.42,100.38 996.63,100.67 996.76,101.04">
        <request index="0" response="0000" foes="1100" cont="0"/>
        <request index="1" response="0000" foes="1000" cont="0"/>
        <request index="2" response="0001" foes="0001" cont="0"/>
        <request index="3" response="0011" foes="0011" cont="0"/>
    </junction>
    <junction id="E" type="dead_end" x="2000.00" y="100.00" incLanes="CE_0" intLanes="" shape="2000.00,96.80 2000.00,100.00"/>
    <junction id="N" type="dead_end" x="1000.00" y="200.00" incLanes="" intLanes="" shape="1000.00,200.00 996.80,200.00"/>
    <junction id="S" type="dead_end" x="1000.00" y="0.00" incLanes="CS_0" intLanes="" shape="996.80,0.00 1000.00,0.00"/>
    <junction id="W" type="dead_end" x="0.00" y="100.00" incLanes="" intLanes="" shape="0.00,100.00 0.00,96.80"/>

    <connection from="NC" to="CS" fromLane="0" toLane="0" via=":C_0_0" dir="s" state="M"/>
    <connection from="NC" to="CE" fromLane="0" toLane="0" via=":C_1_0" dir="l" state="M"/>
    <connection from="WC" to="CS" fromLane="0" toLane="0" via=":C_2_0" dir="r" state="M"/>
    <connection from="WC" to="CE" fromLane="0" toLane="0" via=":C_3_0" dir="s" state="M"/>

    <connection from=":C_0" to="CS" fromLane="0" toLane="0" dir="s" state="M"/>
    <connection from=":C_1" to="CE" fromLane="0" toLane="0" dir="l" state="M"/>
    <connection from=":C_2" to="CS" fromLane="0" toLane="0" dir="r" state="M"/>
    <connection from=":C_3" to="CE" fromLane="0" toLane="0" dir="s" state="M"/>

</net>
