<?xml version="1.0" encoding="UTF-8"?>

<!-- generated on 2024-03-15 11:03:55 by Eclipse SUMO netconvert Version v1_19_0+1307-c3315d84abc
This data file and the accompanying materials
are made available under the terms of the Eclipse Public License v2.0
which accompanies this distribution, and is available at
http://www.eclipse.org/legal/epl-v20.html
This file may also be made available under the following Secondary
Licenses when the conditions for such availability set forth in the Eclipse
Public License 2.0 are satisfied: GNU General Public License, version 2
or later which is available at
https://www.gnu.org/licenses/old-licenses/gpl-2.0-standalone.html
SPDX-License-Identifier: EPL-2.0 OR GPL-2.0-or-later
<configuration xmlns:xsi="http://www.w3.org/2001/XMLSchema-instance" xsi:noNamespaceSchemaLocation="http://sumo.dlr.de/xsd/netconvertConfiguration.xsd">

    <input>
        <osm-files value="data/osm_bbox.osm.xml.gz"/>
    </input>

    <output>
        <write-license value="true"/>
        <output-file value="net.net.xml"/>
        <output.street-names value="true"/>
        <output.original-names value="true"/>
    </output>

    <projection>
        <proj.utm value="true"/>
    </projection>

    <processing>
        <geometry.remove value="true"/>
        <roundabouts.guess value="true"/>
    </processing>

    <tls_building>
        <tls.discard-simple value="true"/>
        <tls.join value="true"/>
        <tls.guess-signals value="true"/>
        <tls.default-type value="actuated"/>
    </tls_building>

    <ramp_guessing>
        <ramps.guess value="true"/>
    </ramp_guessing>

    <junctions>
        <junctions.join value="true"/>
        <junctions.corner-detail value="5"/>
    </junctions>

    <report>
        <verbose value="true"/>
        <xml-validation value="never"/>
    </report>

</configuration>
-->

<net version="1.20" junctionCornerDetail="5" limitTurnSpeed="5.50" xmlns:xsi="http://www.w3.org/2001/XMLSchema-instance" xsi:noNamespaceSchemaLocation="http://sumo.dlr.de/xsd/net_file.xsd">

    <location netOffset="-605011.17,-5790381.46" convBoundary="0.00,0.00,145.39,312.65" origBoundary="10.538418,52.253784,10.540562,52.256578" projParameter="+proj=utm +zone=32 +ellps=WGS84 +datum=WGS84 +units=m +no_defs"/>

    <type id="highway.cycleway" priority="1" numLanes="1" speed="5.56" allow="bicycle" oneway="0" width="2.00"/>
    <type id="highway.footway" priority="1" numLanes="1" speed="2.78" allow="pedestrian" oneway="1" width="2.00"/>
    <type id="highway.path" priority="1" numLanes="1" speed="5.56" allow="pedestrian bicycle" oneway="0" width="2.00"/>
    <type id="highway.primary" priority="12" numLanes="2" speed="27.78" disallow="tram rail_urban rail rail_electric rail_fast ship" oneway="0"/>
    <type id="highway.residential" priority="3" numLanes="1" speed="13.89" disallow="tram rail_urban rail rail_electric rail_fast ship" oneway="0"/>
    <type id="highway.service" priority="1" numLanes="1" speed="5.56" allow="pedestrian delivery bicycle" oneway="0"/>
    <type id="railway.tram" priority="17" numLanes="1" speed="13.89" allow="tram" oneway="1"/>

    <edge id=":28449354_0" function="internal">
        <lane id=":28449354_0_0" index="0" allow="delivery bicycle" speed="9.72" length="7.40" shape="91.42,62.69 92.09,64.66 93.07,65.77 94.42,66.66 96.21,67.97"/>
    </edge>
    <edge id=":28449354_1" function="internal">
        <lane id=":28449354_1_0" index="0" disallow="pedestrian tram rail_urban rail rail_electric rail_fast ship" speed="13.89" length="7.35" shape="91.42,62.69 92.72,69.97"/>
        <lane id=":28449354_1_1" index="1" disallow="pedestrian tram rail_urban rail rail_electric rail_fast ship" speed="13.89" length="7.35" shape="88.29,63.36 89.57,70.54"/>
    </edge>
    <edge id=":4041975619_0" function="internal">
        <lane id=":4041975619_0_0" index="0" allow="pedestrian bicycle" speed="2.89" length="2.92" width="2.00" shape="145.54,76.65 146.20,77.26 146.37,77.80 146.05,78.25 145.23,78.63"/>
    </edge>
    <edge id=":4926352843_0" function="internal">
        <lane id=":4926352843_0_0" index="0" allow="bicycle" speed="2.89" length="2.92" width="2.00" shape="121.27,231.38 120.86,232.18 120.39,232.49 119.87,232.30 119.28,231.61"/>
    </edge>
    <edge id=":5416202321_0" function="internal">
        <lane id=":5416202321_0_0" index="0" allow="pedestrian bicycle" speed="2.89" length="2.92" width="2.00" shape="106.80,73.00 106.13,72.40 105.95,71.87 106.27,71.41 107.09,71.02"/>
    </edge>
    <edge id=":5416202345_0" function="internal">
        <lane id=":5416202345_0_0" index="0" allow="bicycle" speed="2.89" length="2.92" width="2.00" shape="82.01,2.98 82.24,2.11 82.64,1.72 83.19,1.80 83.90,2.35"/>
    </edge>
    <edge id=":57749919_0" function="internal">
        <lane id=":57749919_0_0" index="0" allow="pedestrian delivery bicycle" speed="3.82" length="4.52" shape="117.62,47.25 118.85,47.92 119.30,48.66 118.98,49.46 117.89,50.34"/>
    </edge>
    <edge id=":57749950_0" function="internal">
        <lane id=":57749950_0_0" index="0" allow="delivery bicycle" speed="9.72" length="9.90" shape="98.96,83.71 97.98,86.50 97.20,88.43 96.81,90.39 96.97,93.25"/>
    </edge>
    <edge id=":57749950_1" function="internal">
        <lane id=":57749950_1_0" index="0" disallow="pedestrian tram rail_urban rail rail_electric rail_fast ship" speed="13.89" length="9.84" shape="95.16,83.51 96.97,93.25"/>
        <lane id=":57749950_1_1" index="1" disallow="pedestrian tram rail_urban rail rail_electric rail_fast ship" speed="13.89" length="9.84" shape="92.01,84.07 93.80,93.69"/>
    </edge>
    <edge id=":8149932746_0" function="internal">
        <lane id=":8149932746_0_0" index="0" allow="tram" speed="13.89" length="0.10" shape="26.14,14.17 26.14,14.17"/>
    </edge>
    <edge id=":8149932748_0" function="internal">
        <lane id=":8149932748_0_0" index="0" allow="tram" speed="13.89" length="0.30" shape="54.99,78.25 54.89,77.97"/>
    </edge>
    <edge id=":cluster_251025052_282514172_286726504_3287948381_#2more_0" function="internal">
        <lane id=":cluster_251025052_282514172_286726504_3287948381_#2more_0_0" index="0" allow="bicycle" speed="3.66" length="5.49" width="2.00" shape="97.41,61.75 91.96,62.37"/>
    </edge>
    <edge id=":cluster_251025052_282514172_286726504_3287948381_#2more_1" function="internal">
        <lane id=":cluster_251025052_282514172_286726504_3287948381_#2more_1_0" index="0" allow="bicycle" speed="7.66" length="13.98" width="2.00" shape="97.41,61.75 96.28,60.53 93.71,60.22 89.69,60.81 84.23,62.32"/>
    </edge>
    <edge id=":cluster_251025052_282514172_286726504_3287948381_#2more_2" function="internal">
        <lane id=":cluster_251025052_282514172_286726504_3287948381_#2more_2_0" index="0" allow="bicycle" speed="5.56" length="19.77" width="2.00" shape="97.41,61.75 92.68,42.56"/>
    </edge>
    <edge id=":cluster_251025052_282514172_286726504_3287948381_#2more_3" function="internal">
        <lane id=":cluster_251025052_282514172_286726504_3287948381_#2more_3_0" index="0" allow="bicycle" speed="5.56" length="7.87" width="2.00" shape="97.41,61.75 96.38,54.53 96.45,53.96"/>
    </edge>
    <edge id=":cluster_251025052_282514172_286726504_3287948381_#2more_4" function="internal">
        <lane id=":cluster_251025052_282514172_286726504_3287948381_#2more_4_0" index="0" allow="bicycle" speed="5.56" length="8.63" width="2.00" shape="97.41,61.75 96.19,53.78 96.28,53.22"/>
    </edge>
    <edge id=":cluster_251025052_282514172_286726504_3287948381_#2more_5" function="internal">
        <lane id=":cluster_251025052_282514172_286726504_3287948381_#2more_5_0" index="0" allow="bicycle" speed="2.89" length="1.23" width="2.00" shape="97.41,61.75 97.74,60.91 98.00,60.70"/>
    </edge>
    <edge id=":cluster_251025052_282514172_286726504_3287948381_#2more_31" function="internal">
        <lane id=":cluster_251025052_282514172_286726504_3287948381_#2more_31_0" index="0" allow="bicycle" speed="5.56" length="15.92" width="2.00" shape="96.45,53.96 97.17,48.68 99.79,44.23 104.25,41.15"/>
    </edge>
    <edge id=":cluster_251025052_282514172_286726504_3287948381_#2more_32" function="internal">
        <lane id=":cluster_251025052_282514172_286726504_3287948381_#2more_32_0" index="0" allow="bicycle" speed="5.56" length="14.24" width="2.00" shape="96.28,53.22 97.06,48.33 100.04,45.39 105.13,44.96"/>
    </edge>
    <edge id=":cluster_251025052_282514172_286726504_3287948381_#2more_33" function="internal">
        <lane id=":cluster_251025052_282514172_286726504_3287948381_#2more_33_0" index="0" allow="bicycle" speed="2.89" length="1.69" width="2.00" shape="98.00,60.70 98.17,60.56 98.72,60.69 99.37,61.31"/>
    </edge>
    <edge id=":cluster_251025052_282514172_286726504_3287948381_#2more_6" function="internal">
        <lane id=":cluster_251025052_282514172_286726504_3287948381_#2more_6_0" index="0" allow="bicycle" speed="5.56" length="7.79" width="2.00" shape="103.04,55.56 101.01,56.36 99.72,57.58 99.17,59.23 99.37,61.31"/>
    </edge>
    <edge id=":cluster_251025052_282514172_286726504_3287948381_#2more_7" function="internal">
        <lane id=":cluster_251025052_282514172_286726504_3287948381_#2more_7_0" index="0" allow="delivery bicycle" speed="8.24" length="14.79" shape="102.90,54.98 97.50,56.57 93.78,58.35 91.74,60.33 91.38,62.49"/>
    </edge>
    <edge id=":cluster_251025052_282514172_286726504_3287948381_#2more_8" function="internal">
        <lane id=":cluster_251025052_282514172_286726504_3287948381_#2more_8_0" index="0" allow="delivery bicycle" speed="9.72" length="20.10" shape="102.90,54.98 99.24,56.11 95.23,57.67 90.33,59.58 84.05,61.75"/>
        <lane id=":cluster_251025052_282514172_286726504_3287948381_#2more_8_1" index="1" allow="delivery bicycle" speed="9.72" length="20.10" shape="102.90,54.98 83.08,58.69"/>
    </edge>
    <edge id=":cluster_251025052_282514172_286726504_3287948381_#2more_10" function="internal">
        <lane id=":cluster_251025052_282514172_286726504_3287948381_#2more_10_0" index="0" allow="bicycle" speed="5.56" length="8.95" width="2.00" shape="102.76,54.40 99.59,54.26 96.86,52.25 95.65,50.20"/>
    </edge>
    <edge id=":cluster_251025052_282514172_286726504_3287948381_#2more_11" function="internal">
        <lane id=":cluster_251025052_282514172_286726504_3287948381_#2more_11_0" index="0" allow="bicycle" speed="5.56" length="9.21" shape="102.90,54.98 99.15,54.06 98.44,50.12 98.94,48.87"/>
    </edge>
    <edge id=":cluster_251025052_282514172_286726504_3287948381_#2more_12" function="internal">
        <lane id=":cluster_251025052_282514172_286726504_3287948381_#2more_12_0" index="0" allow="bicycle" speed="5.56" length="9.19" shape="102.90,54.98 99.90,51.82 99.26,49.19 100.62,47.54"/>
    </edge>
    <edge id=":cluster_251025052_282514172_286726504_3287948381_#2more_34" function="internal">
        <lane id=":cluster_251025052_282514172_286726504_3287948381_#2more_34_0" index="0" allow="bicycle" speed="5.56" length="8.24" width="2.00" shape="95.65,50.20 94.55,48.34 92.68,42.56"/>
    </edge>
    <edge id=":cluster_251025052_282514172_286726504_3287948381_#2more_35" function="internal">
        <lane id=":cluster_251025052_282514172_286726504_3287948381_#2more_35_0" index="0" allow="bicycle" speed="5.56" length="9.33" shape="98.94,48.87 100.36,45.29 104.50,41.70"/>
    </edge>
    <edge id=":cluster_251025052_282514172_286726504_3287948381_#2more_36" function="internal">
        <lane id=":cluster_251025052_282514172_286726504_3287948381_#2more_36_0" index="0" allow="bicycle" speed="5.56" length="4.92" shape="100.62,47.54 100.98,47.11 105.05,45.56"/>
    </edge>
    <edge id=":cluster_251025052_282514172_286726504_3287948381_#2more_13" function="internal">
        <lane id=":cluster_251025052_282514172_286726504_3287948381_#2more_13_0" index="0" allow="bicycle" speed="5.56" length="10.52" width="2.00" shape="94.62,42.06 95.50,43.14 97.40,43.35 100.32,42.69 104.25,41.15"/>
    </edge>
    <edge id=":cluster_251025052_282514172_286726504_3287948381_#2more_14" function="internal">
        <lane id=":cluster_251025052_282514172_286726504_3287948381_#2more_14_0" index="0" allow="bicycle" speed="5.56" length="11.07" width="2.00" shape="94.62,42.06 95.42,42.82 97.43,43.55 100.67,44.27 105.13,44.96"/>
    </edge>
    <edge id=":cluster_251025052_282514172_286726504_3287948381_#2more_15" function="internal">
        <lane id=":cluster_251025052_282514172_286726504_3287948381_#2more_15_0" index="0" allow="bicycle" speed="5.56" length="19.83" width="2.00" shape="94.62,42.06 99.37,61.31"/>
    </edge>
    <edge id=":cluster_251025052_282514172_286726504_3287948381_#2more_16" function="internal">
        <lane id=":cluster_251025052_282514172_286726504_3287948381_#2more_16_0" index="0" allow="bicycle" speed="9.72" length="22.16" width="2.00" shape="94.62,42.06 93.93,46.01 91.41,50.70 89.04,56.32 88.83,63.05"/>
    </edge>
    <edge id=":cluster_251025052_282514172_286726504_3287948381_#2more_17" function="internal">
        <lane id=":cluster_251025052_282514172_286726504_3287948381_#2more_17_0" index="0" allow="bicycle" speed="9.72" length="5.46" width="2.00" shape="94.62,42.06 95.05,47.50"/>
    </edge>
    <edge id=":cluster_251025052_282514172_286726504_3287948381_#2more_18" function="internal">
        <lane id=":cluster_251025052_282514172_286726504_3287948381_#2more_18_0" index="0" allow="bicycle" speed="2.89" length="1.29" width="2.00" shape="94.62,42.06 94.32,42.91 94.03,43.16"/>
    </edge>
    <edge id=":cluster_251025052_282514172_286726504_3287948381_#2more_37" function="internal">
        <lane id=":cluster_251025052_282514172_286726504_3287948381_#2more_37_0" index="0" allow="bicycle" speed="9.72" length="17.69" width="2.00" shape="95.05,47.50 95.08,47.87 93.34,52.67 89.40,56.47 83.26,59.27"/>
    </edge>
    <edge id=":cluster_251025052_282514172_286726504_3287948381_#2more_38" function="internal">
        <lane id=":cluster_251025052_282514172_286726504_3287948381_#2more_38_0" index="0" allow="bicycle" speed="2.89" length="1.63" width="2.00" shape="94.03,43.16 93.90,43.28 93.35,43.16 92.68,42.56"/>
    </edge>
    <edge id=":cluster_251025052_282514172_286726504_3287948381_#2more_19" function="internal">
        <lane id=":cluster_251025052_282514172_286726504_3287948381_#2more_19_0" index="0" allow="bicycle" speed="3.43" length="3.83" width="2.00" shape="88.97,43.51 92.68,42.56"/>
    </edge>
    <edge id=":cluster_251025052_282514172_286726504_3287948381_#2more_20" function="internal">
        <lane id=":cluster_251025052_282514172_286726504_3287948381_#2more_20_0" index="0" allow="delivery bicycle" speed="8.34" length="17.48" shape="88.39,43.66 89.85,45.28 93.01,45.49 97.90,44.30 104.50,41.70"/>
    </edge>
    <edge id=":cluster_251025052_282514172_286726504_3287948381_#2more_21" function="internal">
        <lane id=":cluster_251025052_282514172_286726504_3287948381_#2more_21_0" index="0" allow="delivery bicycle" speed="9.72" length="16.80" shape="88.39,43.66 90.96,44.34 96.44,44.92 102.06,45.34 105.05,45.56"/>
    </edge>
    <edge id=":cluster_251025052_282514172_286726504_3287948381_#2more_22" function="internal">
        <lane id=":cluster_251025052_282514172_286726504_3287948381_#2more_22_0" index="0" allow="bicycle" speed="9.72" length="22.06" width="2.00" shape="85.87,44.30 88.96,50.71 93.19,54.93 97.13,58.09 99.37,61.31"/>
    </edge>
    <edge id=":cluster_251025052_282514172_286726504_3287948381_#2more_23" function="internal">
        <lane id=":cluster_251025052_282514172_286726504_3287948381_#2more_23_0" index="0" disallow="pedestrian tram rail_urban rail rail_electric rail_fast ship" speed="13.89" length="18.91" shape="82.19,45.25 88.25,63.17"/>
    </edge>
    <edge id=":cluster_251025052_282514172_286726504_3287948381_#2more_24" function="internal">
        <lane id=":cluster_251025052_282514172_286726504_3287948381_#2more_24_0" index="0" disallow="pedestrian tram rail_urban rail rail_electric rail_fast ship" speed="8.09" length="13.91" shape="82.19,45.25 83.47,50.85 84.04,54.96 83.92,57.57 83.08,58.69"/>
    </edge>
    <edge id=":cluster_251025052_282514172_286726504_3287948381_#2more_25" function="internal">
        <lane id=":cluster_251025052_282514172_286726504_3287948381_#2more_25_0" index="0" allow="bicycle" speed="8.36" length="14.52" width="2.00" shape="80.01,49.03 85.73,46.92 89.75,45.14 92.07,43.69 92.68,42.56"/>
    </edge>
    <edge id=":cluster_251025052_282514172_286726504_3287948381_#2more_26" function="internal">
        <lane id=":cluster_251025052_282514172_286726504_3287948381_#2more_26_0" index="0" allow="delivery bicycle" speed="9.72" length="25.54" shape="80.20,49.59 104.50,41.70"/>
    </edge>
    <edge id=":cluster_251025052_282514172_286726504_3287948381_#2more_27" function="internal">
        <lane id=":cluster_251025052_282514172_286726504_3287948381_#2more_27_0" index="0" allow="delivery bicycle" speed="9.72" length="25.04" shape="81.17,52.65 88.19,50.07 94.79,47.63 100.55,45.92 105.05,45.56"/>
    </edge>
    <edge id=":cluster_251025052_282514172_286726504_3287948381_#2more_28" function="internal">
        <lane id=":cluster_251025052_282514172_286726504_3287948381_#2more_28_0" index="0" allow="bicycle" speed="9.72" length="13.66" width="2.00" shape="81.36,53.21 88.02,51.81 93.24,52.70 94.44,53.70"/>
    </edge>
    <edge id=":cluster_251025052_282514172_286726504_3287948381_#2more_29" function="internal">
        <lane id=":cluster_251025052_282514172_286726504_3287948381_#2more_29_0" index="0" disallow="pedestrian tram rail_urban rail rail_electric rail_fast ship" speed="7.61" length="5.70" shape="81.17,52.65 83.32,52.72 85.21,54.49 85.62,55.35"/>
    </edge>
    <edge id=":cluster_251025052_282514172_286726504_3287948381_#2more_30" function="internal">
        <lane id=":cluster_251025052_282514172_286726504_3287948381_#2more_30_0" index="0" disallow="pedestrian tram rail_urban rail rail_electric rail_fast ship" speed="4.72" length="6.00" shape="81.17,52.65 83.92,53.44 85.15,54.71 84.94,56.06"/>
    </edge>
    <edge id=":cluster_251025052_282514172_286726504_3287948381_#2more_39" function="internal">
        <lane id=":cluster_251025052_282514172_286726504_3287948381_#2more_39_0" index="0" allow="bicycle" speed="9.72" length="9.30" width="2.00" shape="94.44,53.70 97.02,55.86 99.37,61.31"/>
    </edge>
    <edge id=":cluster_251025052_282514172_286726504_3287948381_#2more_40" function="internal">
        <lane id=":cluster_251025052_282514172_286726504_3287948381_#2more_40_0" index="0" disallow="pedestrian tram rail_urban rail rail_electric rail_fast ship" speed="7.61" length="8.27" shape="85.62,55.35 86.86,57.98 88.25,63.17"/>
    </edge>
    <edge id=":cluster_251025052_282514172_286726504_3287948381_#2more_41" function="internal">
        <lane id=":cluster_251025052_282514172_286726504_3287948381_#2more_41_0" index="0" disallow="pedestrian tram rail_urban rail rail_electric rail_fast ship" speed="4.72" length="3.26" shape="84.94,56.06 84.87,56.46 83.08,58.69"/>
    </edge>
    <edge id=":cluster_28114806_286726503_2952513732_2952513733_#2more_0" function="internal">
        <lane id=":cluster_28114806_286726503_2952513732_2952513733_#2more_0_0" index="0" allow="tram" speed="13.89" length="18.10" shape="53.73,74.85 46.83,58.12"/>
    </edge>
    <edge id=":cluster_28114806_286726503_2952513732_2952513733_#2more_1" function="internal">
        <lane id=":cluster_28114806_286726503_2952513732_2952513733_#2more_1_0" index="0" disallow="pedestrian tram rail_urban rail rail_electric rail_fast ship" speed="11.12" length="26.71" shape="58.90,69.71 50.86,71.35 44.39,70.68 39.47,67.72 36.10,62.45"/>
        <lane id=":cluster_28114806_286726503_2952513732_2952513733_#2more_1_1" index="1" disallow="pedestrian tram rail_urban rail rail_electric rail_fast ship" speed="10.08" length="21.78" shape="57.85,66.68 51.16,68.09 45.80,67.65 41.77,65.37 39.07,61.25"/>
    </edge>
    <edge id=":cluster_28114806_286726503_2952513732_2952513733_#2more_3" function="internal">
        <lane id=":cluster_28114806_286726503_2952513732_2952513733_#2more_3_0" index="0" disallow="pedestrian tram rail_urban rail rail_electric rail_fast ship" speed="4.51" length="8.28" shape="57.85,66.68 55.38,66.04 54.25,64.93 54.46,63.36 56.00,61.33"/>
    </edge>
    <edge id=":cluster_28114806_286726503_2952513732_2952513733_#2more_4" function="internal">
        <lane id=":cluster_28114806_286726503_2952513732_2952513733_#2more_4_0" index="0" allow="tram" speed="13.89" length="18.19" shape="50.33,56.71 57.00,73.64"/>
    </edge>
    <edge id=":cluster_28114806_286726503_2952513732_2952513733_#2more_5" function="internal">
        <lane id=":cluster_28114806_286726503_2952513732_2952513733_#2more_5_0" index="0" disallow="pedestrian tram rail_urban rail rail_electric rail_fast ship" speed="13.89" length="17.78" shape="35.12,81.77 33.44,76.81 32.66,73.30 31.87,69.78 30.16,64.84"/>
        <lane id=":cluster_28114806_286726503_2952513732_2952513733_#2more_5_1" index="1" disallow="pedestrian tram rail_urban rail rail_electric rail_fast ship" speed="13.89" length="17.78" shape="38.12,80.66 36.43,75.68 35.65,72.14 34.85,68.61 33.13,63.64"/>
        <lane id=":cluster_28114806_286726503_2952513732_2952513733_#2more_5_2" index="2" disallow="pedestrian tram rail_urban rail rail_electric rail_fast ship" speed="13.89" length="17.78" shape="41.12,79.54 39.42,74.54 38.63,70.98 37.83,67.44 36.10,62.45"/>
        <lane id=":cluster_28114806_286726503_2952513732_2952513733_#2more_5_3" index="3" disallow="pedestrian tram rail_urban rail rail_electric rail_fast ship" speed="13.89" length="17.78" shape="44.09,78.35 42.39,73.35 41.60,69.79 40.80,66.24 39.07,61.25"/>
    </edge>
    <edge id=":cluster_28114806_286726503_2952513732_2952513733_#2more_9" function="internal">
        <lane id=":cluster_28114806_286726503_2952513732_2952513733_#2more_9_0" index="0" disallow="pedestrian tram rail_urban rail rail_electric rail_fast ship" speed="10.03" length="16.96" shape="47.10,77.26 45.47,70.71 46.24,65.37 49.17,61.54"/>
        <lane id=":cluster_28114806_286726503_2952513732_2952513733_#2more_9_1" index="1" disallow="pedestrian tram rail_urban rail rail_electric rail_fast ship" speed="9.47" length="14.50" shape="47.10,77.26 45.98,72.02 47.09,67.62 50.24,64.26"/>
    </edge>
    <edge id=":cluster_28114806_286726503_2952513732_2952513733_#2more_11" function="internal">
        <lane id=":cluster_28114806_286726503_2952513732_2952513733_#2more_11_0" index="0" disallow="pedestrian tram rail_urban rail rail_electric rail_fast ship" speed="10.03" length="6.67" shape="49.17,61.54 49.41,61.23 54.96,58.30"/>
    </edge>
    <edge id=":cluster_28114806_286726503_2952513732_2952513733_#2more_12" function="internal">
        <lane id=":cluster_28114806_286726503_2952513732_2952513733_#2more_12_0" index="0" disallow="pedestrian tram rail_urban rail rail_electric rail_fast ship" speed="9.47" length="6.49" shape="50.24,64.26 50.43,64.05 56.00,61.33"/>
    </edge>

    <edge id="-401793922" from="5416202321" to="4041975619" priority="1" type="highway.path" shape="103.92,71.58 136.10,76.19 145.39,77.64">
        <lane id="-401793922_0" index="0" allow="pedestrian bicycle" speed="5.56" length="38.87" width="2.00" shape="107.09,71.02 136.25,75.20 145.54,76.65">
            <param key="origId" value="401793922"/>
        </lane>
    </edge>
    <edge id="-561742173" from="4926352843" to="cluster_251025052_282514172_286726504_3287948381_#2more" priority="1" type="highway.cycleway" shape="120.28,231.49 113.87,177.20 105.48,109.53 103.42,92.23 102.36,81.75 100.39,71.23 98.81,63.22 97.12,56.38">
        <lane id="-561742173_0" index="0" allow="bicycle" speed="5.56" length="171.32" width="2.00" shape="119.28,231.61 112.88,177.32 104.49,109.65 102.43,92.34 101.37,81.89 99.41,71.42 97.83,63.44 97.41,61.75">
            <param key="origId" value="561742173 916807057"/>
        </lane>
        <param key="origTo" value="251025052"/>
    </edge>
    <edge id="-916807057#0" from="cluster_251025052_282514172_286726504_3287948381_#2more" to="5416202345" priority="1" type="highway.cycleway" shape="94.56,46.00 91.77,34.67 87.86,20.73 83.28,3.63 82.96,2.67">
        <lane id="-916807057#0_0" index="0" allow="bicycle" speed="5.56" length="40.99" width="2.00" shape="92.68,42.56 90.80,34.92 86.89,20.99 82.31,3.89 82.01,2.98">
            <param key="origId" value="916807057 384732623"/>
        </lane>
        <param key="origFrom" value="3287948381"/>
    </edge>
    <edge id="1056718384#0" from="286406690" to="cluster_251025052_282514172_286726504_3287948381_#2more" name="Willy-Brandt-Platz" priority="12" type="highway.primary" spreadType="center" shape="74.02,9.43 85.10,43.69 86.49,49.12">
        <lane id="1056718384#0_0" index="0" disallow="pedestrian tram rail_urban rail rail_electric rail_fast ship" speed="13.89" length="36.79" shape="77.07,8.45 88.17,42.80 88.39,43.66">
            <param key="origId" value="1056718384"/>
        </lane>
        <lane id="1056718384#0_1" index="1" disallow="pedestrian tram rail_urban rail rail_electric rail_fast ship" speed="13.89" length="36.79" shape="74.02,9.43 85.10,43.69 85.29,44.45">
            <param key="origId" value="1056718384"/>
        </lane>
        <lane id="1056718384#0_2" index="2" disallow="pedestrian tram rail_urban rail rail_electric rail_fast ship" speed="13.89" length="36.79" shape="70.98,10.42 82.02,44.58 82.19,45.25">
            <param key="origId" value="1056718384"/>
        </lane>
        <param key="origTo" value="286726504"/>
        <param key="ref" value="L 295"/>
    </edge>
    <edge id="25076207#0" from="cluster_251025052_282514172_286726504_3287948381_#2more" to="28449354" name="Willy-Brandt-Platz" priority="12" type="highway.primary" spreadType="center" shape="88.91,58.53 89.73,62.44">
        <lane id="25076207#0_0" index="0" disallow="pedestrian tram rail_urban rail rail_electric rail_fast ship" speed="13.89" length="0.20" shape="91.38,62.49 91.42,62.69">
            <param key="origId" value="25076207"/>
        </lane>
        <lane id="25076207#0_1" index="1" disallow="pedestrian tram rail_urban rail rail_electric rail_fast ship" speed="13.89" length="0.20" shape="88.25,63.17 88.29,63.36">
            <param key="origId" value="25076207"/>
        </lane>
        <param key="origFrom" value="282514172"/>
        <param key="ref" value="L 295"/>
    </edge>
    <edge id="25076207#1" from="28449354" to="57749950" name="Willy-Brandt-Platz" priority="12" type="highway.primary" spreadType="center" shape="89.73,62.44 92.69,78.74 95.62,95.20">
        <lane id="25076207#1_0" index="0" disallow="pedestrian tram rail_urban rail rail_electric rail_fast ship" speed="13.89" length="13.75" shape="92.72,69.97 94.26,78.45 95.16,83.51">
            <param key="origId" value="25076207"/>
        </lane>
        <lane id="25076207#1_1" index="1" disallow="pedestrian tram rail_urban rail rail_electric rail_fast ship" speed="13.89" length="13.75" shape="89.57,70.54 91.11,79.02 92.01,84.07">
            <param key="origId" value="25076207"/>
        </lane>
        <param key="ref" value="L 295"/>
    </edge>
    <edge id="25076207#2" from="57749950" to="28007021" name="Willy-Brandt-Platz" priority="12" type="highway.primary" spreadType="center" shape="95.62,95.20 98.77,117.99 102.49,146.62 109.24,202.70 111.97,224.96">
        <lane id="25076207#2_0" index="0" disallow="pedestrian tram rail_urban rail rail_electric rail_fast ship" speed="13.89" length="132.53" shape="96.97,93.25 100.36,117.77 104.08,146.42 110.83,202.50 113.56,224.77">
            <param key="origId" value="25076207"/>
        </lane>
        <lane id="25076207#2_1" index="1" disallow="pedestrian tram rail_urban rail rail_electric rail_fast ship" speed="13.89" length="132.53" shape="93.80,93.69 97.19,118.20 100.90,146.82 107.65,202.89 110.38,225.16">
            <param key="origId" value="25076207"/>
        </lane>
        <param key="ref" value="L 295"/>
    </edge>
    <edge id="26184171" from="cluster_251025052_282514172_286726504_3287948381_#2more" to="57749919" priority="1" type="highway.service" spreadType="center" shape="97.95,44.60 117.75,47.27">
        <lane id="26184171_0" index="0" allow="pedestrian delivery bicycle" speed="5.56" length="12.69" shape="105.05,45.56 117.62,47.25">
            <param key="origId" value="26184171"/>
        </lane>
        <param key="origFrom" value="57749942"/>
    </edge>
    <edge id="26186987#2" from="cluster_28114806_286726503_2952513732_2952513733_#2more" to="cluster_251025052_282514172_286726504_3287948381_#2more" name="Willy-Brandt-Platz" priority="3" type="highway.residential" spreadType="center" shape="52.18,60.95 86.49,49.12">
        <lane id="26186987#2_0" index="0" disallow="pedestrian tram rail_urban rail rail_electric rail_fast ship" speed="13.89" length="26.66" shape="54.96,58.30 80.20,49.59">
            <param key="origId" value="26186987"/>
        </lane>
        <lane id="26186987#2_1" index="1" disallow="pedestrian tram rail_urban rail rail_electric rail_fast ship" speed="13.89" length="26.66" shape="56.00,61.33 81.17,52.65">
            <param key="origId" value="26186987"/>
        </lane>
        <param key="origFrom" value="318617385"/>
        <param key="origTo" value="286726504"/>
    </edge>
    <edge id="26203794#2" from="cluster_251025052_282514172_286726504_3287948381_#2more" to="287557524" priority="1" type="highway.service" spreadType="center" shape="97.95,44.60 112.22,38.27 121.47,35.05 130.63,29.14 132.61,23.85">
        <lane id="26203794#2_0" index="0" allow="pedestrian delivery bicycle" speed="5.56" length="34.79" shape="104.50,41.70 112.22,38.27 121.47,35.05 130.63,29.14 132.61,23.85">
            <param key="origId" value="26203794"/>
        </lane>
        <param key="origFrom" value="57749942"/>
    </edge>