<edges>
	<edge id="1" from="0" to="1" numLanes="3" speed="28." length="42"/>
</edges>
