<?xml version="1.0" encoding="UTF-8"?>

<!-- generated on Fri Nov 11 12:09:12 2011 by SUMO netconvert Version dev-SVN-r11490
<?xml version="1.0" encoding="iso-8859-1"?>

<configuration xmlns:xsi="http://www.w3.org/2001/XMLSchema-instance" xsi:noNamespaceSchemaLocation="http://sumo.dlr.de/xsd/netconvertConfiguration.xsd">

    <input>
        <node-files value="input_nodes.nod.xml"/>
        <edge-files value="input_edges.edg.xml"/>
    </input>

    <output>
        <plain-output-prefix value="plain"/>
    </output>

</configuration>
-->

<connections version="0.13" xmlns:xsi="http://www.w3.org/2001/XMLSchema-instance" xsi:noNamespaceSchemaLocation="http://sumo.dlr.de/xsd/connections_file.xsd">
</connections>
