<?xml version="1.0" encoding="UTF-8"?>

<!-- generated on 2026-03-25T13:25:28.150616+01:00 by Eclipse SUMO netedit v1_26_0+0815-4ffea59fd5c
<neteditConfiguration xmlns:xsi="http://www.w3.org/2001/XMLSchema-instance" xsi:noNamespaceSchemaLocation="http://sumo.dlr.de/xsd/neteditConfiguration.xsd">

    <input>
        <additional-files value="input_ptstops.xml"/>
        <sumo-net-file value="net2.net.xml"/>
    </input>

    <processing>
        <geometry.min-radius.fix.railways value="false"/>
        <geometry.avoid-overlap value="false"/>
        <geometry.max-grade.fix value="false"/>
        <offset.disable-normalization value="true"/>
    </processing>

    <junctions>
        <no-internal-links value="true"/>
        <no-turnarounds value="true"/>
    </junctions>

</neteditConfiguration>
-->

<edges version="1.20" xmlns:xsi="http://www.w3.org/2001/XMLSchema-instance" xsi:noNamespaceSchemaLocation="http://sumo.dlr.de/xsd/edges_file.xsd">
    <edge id="E4" from="J4" to="J5" priority="-1" numLanes="1" speed="13.89" spreadType="center" allow="rail" bidi="-E4"/>
</edges>
