<edges xmlns:xsi="http://www.w3.org/2001/XMLSchema-instance" xsi:noNamespaceSchemaLocation="http://sumo.dlr.de/xsd/edges_file.xsd">

	<edge id="1" from="dl" to="dr" spreadType="center" />
	<edge id="3" from="tr" to="tl" spreadType="center" />
	<edge id="5" from="dl" to="broken id" spreadType="center" />

</edges>




