<?xml version="1.0" encoding="UTF-8"?>

<!-- generated on 16.10.2020 11:28:38 by Eclipse SUMO netedit Version v1_7_0+0629-16c73f8974
-->

<additional xmlns:xsi="http://www.w3.org/2001/XMLSchema-instance" xsi:noNamespaceSchemaLocation="http://sumo.dlr.de/xsd/additional_file.xsd">
    <poi id="poi_0" color="red" layer="202.00" x="12.00" y="18.00" width="2.50"/>
</additional>
