<?xml version="1.0" encoding="UTF-8"?>

<!-- generated on 2024-02-29 13:56:11 by Eclipse SUMO netconvert Version v1_19_0+1092-a49a04372af
This data file and the accompanying materials
are made available under the terms of the Eclipse Public License v2.0
which accompanies this distribution, and is available at
http://www.eclipse.org/legal/epl-v20.html
This file may also be made available under the following Secondary
Licenses when the conditions for such availability set forth in the Eclipse
Public License 2.0 are satisfied: GNU General Public License, version 2
or later which is available at
https://www.gnu.org/licenses/old-licenses/gpl-2.0-standalone.html
SPDX-License-Identifier: EPL-2.0 OR GPL-2.0-or-later
<configuration xmlns:xsi="http://www.w3.org/2001/XMLSchema-instance" xsi:noNamespaceSchemaLocation="http://sumo.dlr.de/xsd/netconvertConfiguration.xsd">

    <input>
        <node-files value="input_plain.nod.xml"/>
        <edge-files value="input_plain.edg.xml"/>
        <connection-files value="input_plain.con.xml"/>
    </input>

    <output>
        <write-license value="true"/>
        <output-file value="net.net.xml"/>
        <plain-output-prefix value="plain"/>
    </output>

    <processing>
        <offset.x value="100"/>
        <offset.y value="20"/>
    </processing>

    <junctions>
        <no-turnarounds value="true"/>
    </junctions>

    <report>
        <xml-validation value="never"/>
    </report>

</configuration>
-->

<nodes version="1.20" xmlns:xsi="http://www.w3.org/2001/XMLSchema-instance" xsi:noNamespaceSchemaLocation="http://sumo.dlr.de/xsd/nodes_file.xsd">
    <location netOffset="300.00,140.00" convBoundary="200.00,40.00,400.00,240.00" origBoundary="-10000000000.00,-10000000000.00,10000000000.00,10000000000.00" projParameter="!"/>

    <node id="C" x="300.00" y="140.00" type="traffic_light" tl="C" shape="284.16,165.68 318.80,158.59 318.80,157.77 319.55,157.16 319.95,124.22 318.90,123.61 318.54,122.85 318.29,121.78 318.14,120.41 318.11,118.73 307.33,118.68 301.13,121.55 294.73,118.87 284.06,118.86 283.33,120.06 282.40,120.81 281.11,121.67 279.45,122.62 277.41,123.68 282.28,133.43 282.75,144.99 278.69,155.10 280.77,156.87 281.71,158.41 282.59,160.39 283.41,162.82 284.16,165.68"/>
    <node id="E" x="400.00" y="140.00" type="dead_end"/>
    <node id="N" x="300.00" y="240.00" type="dead_end"/>
    <node id="S" x="300.00" y="40.00" type="dead_end"/>
    <node id="W" x="200.00" y="140.00" type="dead_end"/>
</nodes>
