<?xml version="1.0" encoding="UTF-8"?>

<!-- generated on 2022-01-19 22:13:55 by Eclipse SUMO sumo Version v1_11_0+1299-0d4808d
This data file and the accompanying materials
are made available under the terms of the Eclipse Public License v2.0
which accompanies this distribution, and is available at
http://www.eclipse.org/legal/epl-v20.html
SPDX-License-Identifier: EPL-2.0
<configuration xmlns:xsi="http://www.w3.org/2001/XMLSchema-instance" xsi:noNamespaceSchemaLocation="http://sumo.dlr.de/xsd/sumoConfiguration.xsd">

    <input>
        <net-file value="net.net.xml"/>
        <route-files value="input_routes.rou.xml"/>
        <additional-files value="input_additional.add.xml,input_additional2.add.xml"/>
    </input>

    <output>
        <write-license value="true"/>
    </output>

    <time>
        <end value="500"/>
    </time>

    <processing>
        <default.speeddev value="0"/>
    </processing>

    <report>
        <verbose value="true"/>
        <xml-validation value="never"/>
        <xml-validation.routes value="never"/>
        <duration-log.statistics value="true"/>
        <no-step-log value="true"/>
    </report>

</configuration>
-->

<additional xmlns:xsi="http://www.w3.org/2001/XMLSchema-instance" xsi:noNamespaceSchemaLocation="http://sumo.dlr.de/xsd/additional_file.xsd">
    <tlLogic id="2881" type="static" programID="NEMA">
        <phase duration="10.00" state="GGGGGGGrrrrr" name="4+6"/>
        <phase duration="4.00"  state="gyyyyGGrrrrr" name="4+6"/>
        <phase duration="2.00"  state="grrrrGGrrrrr" name="4+6"/>
        <phase duration="109.00" state="grrrrGGrrGGG" name="2+6"/>
        <phase duration="4.00"  state="yrrrryyrryyy" name="2+6"/>
        <phase duration="1.00"  state="rrrrrrrrrrrr" name="2+6"/>
        <phase duration="21.00" state="GGGGGrrrrrrr" name="4+4"/>
        <phase duration="4.00"  state="yyyyyrrrrrrr" name="4+4"/>
        <phase duration="2.00"  state="rrrrrrrrrrrr" name="4+4"/>
        <phase duration="16.00" state="grrrrGGGGrrr" name="1+6"/>
        <phase duration="4.00"  state="grrrrGGyyrrr" name="1+6"/>
        <phase duration="1.00"  state="grrrrGGrrrrr" name="1+6"/>
        <phase duration="67.00" state="grrrrGGrrGGG" name="2+6"/>
        <phase duration="4.00"  state="yrrrryyrryyy" name="2+6"/>
        <phase duration="1.00"  state="rrrrrrrrrrrr" name="2+6"/>
        <phase duration="21.00" state="GGGGGrrrrrrr" name="4+4"/>
        <phase duration="4.00"  state="yyyyyrrrrrrr" name="4+4"/>
        <phase duration="2.00"  state="rrrrrrrrrrrr" name="4+4"/>
        <phase duration="16.00" state="grrrrGGGGrrr" name="1+6"/>
        <phase duration="4.00"  state="grrrrGGyyrrr" name="1+6"/>
        <phase duration="1.00"  state="grrrrGGrrrrr" name="1+6"/>
        <phase duration="67.00" state="grrrrGGrrGGG" name="2+6"/>
        <phase duration="4.00"  state="yrrrryyrryyy" name="2+6"/>
        <phase duration="1.00"  state="rrrrrrrrrrrr" name="2+6"/>
        <phase duration="21.00" state="GGGGGrrrrrrr" name="4+4"/>
        <phase duration="4.00"  state="yyyyyrrrrrrr" name="4+4"/>
        <phase duration="2.00"  state="rrrrrrrrrrrr" name="4+4"/>
        <phase duration="16.00" state="grrrrGGGGrrr" name="1+6"/>
        <phase duration="4.00"  state="grrrrGGyyrrr" name="1+6"/>
        <phase duration="1.00"  state="grrrrGGrrrrr" name="1+6"/>
        <phase duration="67.00" state="grrrrGGrrGGG" name="2+6"/>
        <phase duration="4.00"  state="yrrrryyrryyy" name="2+6"/>
        <phase duration="1.00"  state="rrrrrrrrrrrr" name="2+6"/>
        <phase duration="10.00" state="GGGGGrrrrrrr" name="4+4"/>
    </tlLogic>
</additional>
