<?xml version="1.0" encoding="UTF-8"?>

<!-- generated on Mon Feb 17 15:30:49 2020 by Eclipse SUMO netconvert Version v1_5_0+0130-ceb0a01
This data file and the accompanying materials
are made available under the terms of the Eclipse Public License v2.0
which accompanies this distribution, and is available at
http://www.eclipse.org/legal/epl-v20.html
SPDX-License-Identifier: EPL-2.0
<configuration xmlns:xsi="http://www.w3.org/2001/XMLSchema-instance" xsi:noNamespaceSchemaLocation="http://sumo.dlr.de/xsd/netconvertConfiguration.xsd">

    <input>
        <sumo-net-file value="input_net.net.xml"/>
        <edge-files value="input_plain.edg.xml"/>
    </input>

    <output>
        <write-license value="true"/>
        <output-file value="net.net.xml"/>
    </output>

    <processing>
        <geometry.min-radius.fix.railways value="false"/>
        <geometry.max-grade.fix value="false"/>
        <offset.disable-normalization value="true"/>
        <lefthand value="false"/>
    </processing>

    <junctions>
        <no-internal-links value="true"/>
        <no-turnarounds value="true"/>
        <junctions.corner-detail value="0"/>
        <junctions.limit-turn-speed value="-1"/>
        <rectangular-lane-cut value="false"/>
    </junctions>

    <pedestrian>
        <walkingareas value="false"/>
    </pedestrian>

    <report>
        <xml-validation value="never"/>
        <aggregate-warnings value="5"/>
    </report>

</configuration>
-->

<net version="1.6" xmlns:xsi="http://www.w3.org/2001/XMLSchema-instance" xsi:noNamespaceSchemaLocation="http://sumo.dlr.de/xsd/net_file.xsd">

    <location netOffset="0.00,0.00" convBoundary="0.00,0.00,200.00,100.00" origBoundary="-10000000000.00,-10000000000.00,10000000000.00,10000000000.00" projParameter="!"/>

    <edge id="-beg" from="gneJ1" to="A" priority="1">
        <lane id="-beg_0" index="0" speed="13.89" length="100.00" shape="200.00,4.80 102.13,4.80"/>
        <lane id="-beg_1" index="1" speed="13.89" length="100.00" shape="200.00,1.60 102.13,1.60"/>
    </edge>
    <edge id="-beg.-100" from="A" to="gneJ0" priority="1">
        <lane id="-beg.-100_0" index="0" speed="13.89" length="100.00" shape="85.07,4.80 0.00,4.80"/>
        <lane id="-beg.-100_1" index="1" speed="13.89" length="100.00" shape="85.07,1.60 0.00,1.60"/>
    </edge>
    <edge id="-gneE0" from="A" to="gneJ2" priority="1">
        <lane id="-gneE0_0" index="0" speed="13.89" length="141.42" shape="89.64,12.62 1.13,101.13"/>
    </edge>
    <edge id="beg" from="gneJ0" to="A" priority="1">
        <lane id="beg_0" index="0" speed="13.89" length="100.00" shape="0.00,-4.80 85.07,-4.80"/>
        <lane id="beg_1" index="1" speed="13.89" length="100.00" shape="0.00,-1.60 85.07,-1.60"/>
    </edge>
    <edge id="beg.100" from="A" to="gneJ1" priority="1">
        <lane id="beg.100_0" index="0" speed="13.89" length="100.00" shape="102.13,-4.80 200.00,-4.80"/>
        <lane id="beg.100_1" index="1" speed="13.89" length="100.00" shape="102.13,-1.60 200.00,-1.60"/>
    </edge>
    <edge id="gneE0" from="gneJ2" to="A" priority="1">
        <lane id="gneE0_0" index="0" speed="13.89" length="141.42" shape="-1.13,98.87 87.38,10.36"/>
    </edge>

    <junction id="A" type="priority" x="100.00" y="0.00" incLanes="-beg_0 -beg_1 beg_0 beg_1 gneE0_0" intLanes="" shape="102.13,6.40 102.13,-6.40 85.07,-6.40 85.07,6.40 86.25,9.23 90.77,13.75">
        <request index="0" response="00000000" foes="00100000"/>
        <request index="1" response="00000000" foes="11100000"/>
        <request index="2" response="00000000" foes="11100000"/>
        <request index="3" response="00000000" foes="10000000"/>
        <request index="4" response="00000000" foes="10000000"/>
        <request index="5" response="00000111" foes="10000111"/>
        <request index="6" response="00000110" foes="00000110"/>
        <request index="7" response="00111110" foes="00111110"/>
    </junction>
    <junction id="gneJ0" type="unregulated" x="0.00" y="0.00" incLanes="-beg.-100_0 -beg.-100_1" intLanes="" shape="0.00,0.00 0.00,6.40 0.00,0.00"/>
    <junction id="gneJ1" type="dead_end" x="200.00" y="0.00" incLanes="beg.100_0 beg.100_1" intLanes="" shape="200.00,0.00 200.00,-6.40 200.00,0.00"/>
    <junction id="gneJ2" type="dead_end" x="0.00" y="100.00" incLanes="-gneE0_0" intLanes="" shape="0.00,100.00 2.26,102.26 0.00,100.00"/>

    <connection from="-beg" to="-gneE0" fromLane="0" toLane="0" dir="r" state="M"/>
    <connection from="-beg" to="-beg.-100" fromLane="0" toLane="0" dir="s" state="M"/>
    <connection from="-beg" to="-beg.-100" fromLane="1" toLane="1" dir="s" state="M"/>
    <connection from="beg" to="beg.100" fromLane="0" toLane="0" dir="s" state="M"/>
    <connection from="beg" to="beg.100" fromLane="1" toLane="1" dir="s" state="M"/>
    <connection from="beg" to="-gneE0" fromLane="1" toLane="0" dir="l" state="m"/>
    <connection from="gneE0" to="-beg.-100" fromLane="0" toLane="0" dir="r" state="m"/>
    <connection from="gneE0" to="beg.100" fromLane="0" toLane="1" dir="l" state="m"/>

</net>
