<?xml version="1.0" encoding="UTF-8"?>

<!-- generated on Wed Sep 28 13:48:45 2016 by SUMO netconvert Version dev-SVN-r21560
<?xml version="1.0" encoding="UTF-8"?>

<configuration xmlns:xsi="http://www.w3.org/2001/XMLSchema-instance" xsi:noNamespaceSchemaLocation="http://sumo.dlr.de/xsd/netconvertConfiguration.xsd">

    <input>
        <node-files value="input_plain.nod.xml"/>
        <edge-files value="input_plain.edg.xml"/>
        <connection-files value="input_plain.con.xml"/>
    </input>

    <output>
        <output-file value="net.net.xml"/>
    </output>

    <processing>
        <no-turnarounds value="true"/>
    </processing>

    <report>
        <xml-validation value="never"/>
    </report>

</configuration>
-->

<net version="0.27" xmlns:xsi="http://www.w3.org/2001/XMLSchema-instance" xsi:noNamespaceSchemaLocation="http://sumo.dlr.de/xsd/net_file.xsd">

    <location netOffset="100.00,100.00" convBoundary="0.00,0.00,200.00,200.00" origBoundary="-10000000000.00,-10000000000.00,10000000000.00,10000000000.00" projParameter="!"/>

    <edge id=":C_0" function="internal">
        <lane id=":C_0_0" index="0" allow="passenger" speed="13.89" length="25.40" shape="104.38,119.84 100.09,113.32 94.64,108.67 88.04,105.88 84.80,105.49"/>
    </edge>
    <edge id=":C_1" function="internal">
        <lane id=":C_1_0" index="0" allow="passenger" speed="13.89" length="39.41" shape="104.38,119.84 86.76,84.59"/>
        <lane id=":C_1_1" index="1" allow="passenger" speed="13.89" length="39.41" shape="107.34,118.36 89.71,83.12"/>
    </edge>
    <edge id=":C_3" function="internal">
        <lane id=":C_3_0" index="0" allow="passenger" speed="13.89" length="10.01" shape="107.34,118.36 104.36,109.61 104.48,108.86"/>
    </edge>
    <edge id=":C_16" function="internal">
        <lane id=":C_16_0" index="0" speed="13.89" length="4.53" shape="84.80,105.49 80.30,104.95"/>
    </edge>
    <edge id=":C_17" function="internal">
        <lane id=":C_17_0" index="0" speed="13.89" length="21.18" shape="104.48,108.86 105.42,103.35 110.54,99.60 119.70,98.35"/>
    </edge>
    <edge id=":C_4" function="internal">
        <lane id=":C_4_0" index="0" allow="passenger" speed="13.89" length="11.76" shape="119.70,104.95 114.91,105.60 112.24,107.56 111.68,110.83 111.78,111.11"/>
    </edge>
    <edge id=":C_5" function="internal">
        <lane id=":C_5_0" index="0" allow="passenger" speed="13.89" length="39.41" shape="119.70,104.95 80.30,104.95"/>
        <lane id=":C_5_1" index="1" allow="passenger" speed="13.89" length="39.41" shape="119.70,101.65 80.30,101.65"/>
    </edge>
    <edge id=":C_7" function="internal">
        <lane id=":C_7_0" index="0" allow="passenger" speed="13.89" length="11.10" shape="119.70,101.65 110.06,100.49 108.78,99.95"/>
    </edge>
    <edge id=":C_18" function="internal">
        <lane id=":C_18_0" index="0" speed="13.89" length="4.54" shape="111.78,111.11 113.24,115.41"/>
    </edge>
    <edge id=":C_19" function="internal">
        <lane id=":C_19_0" index="0" speed="13.89" length="26.16" shape="108.78,99.95 101.84,97.02 95.06,91.22 89.71,83.12"/>
    </edge>
    <edge id=":C_8" function="internal">
        <lane id=":C_8_0" index="0" allow="passenger" speed="13.89" length="25.40" shape="95.62,80.16 99.91,86.68 105.36,91.33 111.96,94.12 115.20,94.51"/>
    </edge>
    <edge id=":C_9" function="internal">
        <lane id=":C_9_0" index="0" allow="passenger" speed="13.89" length="39.41" shape="95.62,80.16 113.24,115.41"/>
        <lane id=":C_9_1" index="1" allow="passenger" speed="13.89" length="39.41" shape="92.66,81.64 110.29,116.88"/>
    </edge>
    <edge id=":C_11" function="internal">
        <lane id=":C_11_0" index="0" allow="passenger" speed="13.89" length="10.01" shape="92.66,81.64 95.64,90.39 95.52,91.14"/>
    </edge>
    <edge id=":C_20" function="internal">
        <lane id=":C_20_0" index="0" speed="13.89" length="4.53" shape="115.20,94.51 119.70,95.05"/>
    </edge>
    <edge id=":C_21" function="internal">
        <lane id=":C_21_0" index="0" speed="13.89" length="21.18" shape="95.52,91.14 94.58,96.65 89.46,100.40 80.30,101.65"/>
    </edge>
    <edge id=":C_12" function="internal">
        <lane id=":C_12_0" index="0" allow="passenger" speed="13.89" length="11.76" shape="80.30,95.05 85.09,94.40 87.76,92.44 88.32,89.17 88.22,88.89"/>
    </edge>
    <edge id=":C_13" function="internal">
        <lane id=":C_13_0" index="0" allow="passenger" speed="13.89" length="39.41" shape="80.30,95.05 119.70,95.05"/>
        <lane id=":C_13_1" index="1" allow="passenger" speed="13.89" length="39.41" shape="80.30,98.35 119.70,98.35"/>
    </edge>
    <edge id=":C_15" function="internal">
        <lane id=":C_15_0" index="0" allow="passenger" speed="13.89" length="11.10" shape="80.30,98.35 89.94,99.51 91.22,100.05"/>
    </edge>
    <edge id=":C_22" function="internal">
        <lane id=":C_22_0" index="0" speed="13.89" length="4.54" shape="88.22,88.89 86.76,84.59"/>
    </edge>
    <edge id=":C_23" function="internal">
        <lane id=":C_23_0" index="0" speed="13.89" length="26.16" shape="91.22,100.05 98.16,102.98 104.94,108.78 110.29,116.88"/>
    </edge>
    <edge id=":C_c0" function="crossing" crossingEdges="CN NC">
        <lane id=":C_c0_0" index="0" allow="pedestrian" speed="1.00" length="13.10" width="4.50" shape="113.66,112.68 101.95,118.54"/>
    </edge>
    <edge id=":C_c1" function="crossing" crossingEdges="CE EC">
        <lane id=":C_c1_0" index="0" allow="pedestrian" speed="1.00" length="13.10" width="4.50" shape="117.45,93.45 117.45,106.55"/>
    </edge>
    <edge id=":C_c2" function="crossing" crossingEdges="CS SC">
        <lane id=":C_c2_0" index="0" allow="pedestrian" speed="1.00" length="13.10" width="4.50" shape="86.34,87.32 98.05,81.46"/>
    </edge>
    <edge id=":C_c3" function="crossing" crossingEdges="CW WC">
        <lane id=":C_c3_0" index="0" allow="pedestrian" speed="1.00" length="13.10" width="4.50" shape="82.55,106.55 82.55,93.45"/>
    </edge>
    <edge id=":C_w0" function="walkingarea">
        <lane id=":C_w0_0" index="0" allow="pedestrian" speed="1.00" length="16.77" width="4.50" shape="84.80,106.55 80.30,106.55 80.30,108.25 80.30,111.25 98.75,122.65 101.43,121.31 102.95,120.55 100.94,116.53"/>
    </edge>
    <edge id=":C_w1" function="walkingarea">
        <lane id=":C_w1_0" index="0" allow="pedestrian" speed="1.00" length="5.43" width="4.50" shape="112.66,110.67 114.67,114.69 116.19,113.93 118.87,112.59 119.70,111.25 119.70,108.25 119.70,106.55 115.20,106.55"/>
    </edge>
    <edge id=":C_w2" function="walkingarea">
        <lane id=":C_w2_0" index="0" allow="pedestrian" speed="1.00" length="16.77" width="4.50" shape="115.20,93.45 119.70,93.45 119.70,91.75 119.70,88.75 101.25,77.35 98.57,78.69 97.05,79.45 99.06,83.47"/>
    </edge>
    <edge id=":C_w3" function="walkingarea">
        <lane id=":C_w3_0" index="0" allow="pedestrian" speed="1.00" length="5.43" width="4.50" shape="87.34,89.33 85.33,85.31 83.81,86.07 81.13,87.41 80.30,88.75 80.30,91.75 80.30,93.45 84.80,93.45"/>
    </edge>
    <edge id=":E_w0" function="walkingarea">
        <lane id=":E_w0_0" index="0" allow="pedestrian" speed="1.00" length="19.50" width="3.00" shape="200.00,108.25 200.00,111.25 200.00,88.75 200.00,91.75"/>
    </edge>
    <edge id=":N_w0" function="walkingarea">
        <lane id=":N_w0_0" index="0" allow="pedestrian" speed="1.00" length="19.50" width="3.00" shape="142.62,203.69 139.94,205.03 160.06,194.97 157.38,196.31"/>
    </edge>
    <edge id=":S_w0" function="walkingarea">
        <lane id=":S_w0_0" index="0" allow="pedestrian" speed="1.00" length="19.50" width="3.00" shape="57.38,-3.69 60.06,-5.03 39.94,5.03 42.62,3.69"/>
    </edge>
    <edge id=":W_w0" function="walkingarea">
        <lane id=":W_w0_0" index="0" allow="pedestrian" speed="1.00" length="19.50" width="3.00" shape="0.00,91.75 0.00,88.75 0.00,111.25 0.00,108.25"/>
    </edge>

    <edge id="CE" from="C" to="E" priority="2">
        <lane id="CE_0" index="0" allow="pedestrian" speed="13.89" length="80.30" width="3.00" shape="119.70,90.25 200.00,90.25"/>
        <lane id="CE_1" index="1" disallow="all" speed="13.89" length="80.30" width="1.50" shape="119.70,92.60 200.00,92.60"/>
        <lane id="CE_2" index="2" allow="passenger" speed="13.89" length="80.30" shape="119.70,95.05 200.00,95.05"/>
        <lane id="CE_3" index="3" allow="passenger" speed="13.89" length="80.30" shape="119.70,98.35 200.00,98.35"/>
    </edge>
    <edge id="CN" from="C" to="N" priority="2">
        <lane id="CN_0" index="0" allow="pedestrian" speed="13.89" length="92.10" width="3.00" shape="117.53,113.26 158.72,195.64"/>
        <lane id="CN_1" index="1" disallow="all" speed="13.89" length="92.10" width="1.50" shape="115.43,114.31 156.62,196.69"/>
        <lane id="CN_2" index="2" allow="passenger" speed="13.89" length="92.10" shape="113.24,115.41 154.43,197.79"/>
        <lane id="CN_3" index="3" allow="passenger" speed="13.89" length="92.10" shape="110.29,116.88 151.48,199.26"/>
    </edge>
    <edge id="CS" from="C" to="S" priority="2">
        <lane id="CS_0" index="0" allow="pedestrian" speed="13.89" length="92.10" width="3.00" shape="82.47,86.74 41.28,4.36"/>
        <lane id="CS_1" index="1" disallow="all" speed="13.89" length="92.10" width="1.50" shape="84.57,85.69 43.38,3.31"/>
        <lane id="CS_2" index="2" allow="passenger" speed="13.89" length="92.10" shape="86.76,84.59 45.57,2.21"/>
        <lane id="CS_3" index="3" allow="passenger" speed="13.89" length="92.10" shape="89.71,83.12 48.52,0.74"/>
    </edge>
    <edge id="CW" from="C" to="W" priority="2">
        <lane id="CW_0" index="0" allow="pedestrian" speed="13.89" length="80.30" width="3.00" shape="80.30,109.75 0.00,109.75"/>
        <lane id="CW_1" index="1" disallow="all" speed="13.89" length="80.30" width="1.50" shape="80.30,107.40 0.00,107.40"/>
        <lane id="CW_2" index="2" allow="passenger" speed="13.89" length="80.30" shape="80.30,104.95 0.00,104.95"/>
        <lane id="CW_3" index="3" allow="passenger" speed="13.89" length="80.30" shape="80.30,101.65 0.00,101.65"/>
    </edge>
    <edge id="EC" from="E" to="C" priority="2">
        <lane id="EC_0" index="0" allow="pedestrian" speed="13.89" length="80.30" width="3.00" shape="200.00,109.75 119.70,109.75"/>
        <lane id="EC_1" index="1" disallow="all" speed="13.89" length="80.30" width="1.50" shape="200.00,107.40 119.70,107.40"/>
        <lane id="EC_2" index="2" allow="passenger" speed="13.89" length="80.30" shape="200.00,104.95 119.70,104.95"/>
        <lane id="EC_3" index="3" allow="passenger" speed="13.89" length="80.30" shape="200.00,101.65 119.70,101.65"/>
    </edge>
    <edge id="NC" from="N" to="C" priority="2">
        <lane id="NC_0" index="0" allow="pedestrian" speed="13.89" length="92.10" width="3.00" shape="141.28,204.36 100.09,121.98"/>
        <lane id="NC_1" index="1" disallow="all" speed="13.89" length="92.10" width="1.50" shape="143.38,203.31 102.19,120.93"/>
        <lane id="NC_2" index="2" allow="passenger" speed="13.89" length="92.10" shape="145.57,202.21 104.38,119.84"/>
        <lane id="NC_3" index="3" allow="passenger" speed="13.89" length="92.10" shape="148.52,200.74 107.34,118.36"/>
    </edge>
    <edge id="SC" from="S" to="C" priority="2">
        <lane id="SC_0" index="0" allow="pedestrian" speed="13.89" length="92.10" width="3.00" shape="58.72,-4.36 99.91,78.02"/>
        <lane id="SC_1" index="1" disallow="all" speed="13.89" length="92.10" width="1.50" shape="56.62,-3.31 97.81,79.07"/>
        <lane id="SC_2" index="2" allow="passenger" speed="13.89" length="92.10" shape="54.43,-2.21 95.62,80.16"/>
        <lane id="SC_3" index="3" allow="passenger" speed="13.89" length="92.10" shape="51.48,-0.74 92.66,81.64"/>
    </edge>
    <edge id="WC" from="W" to="C" priority="2">
        <lane id="WC_0" index="0" allow="pedestrian" speed="13.89" length="80.30" width="3.00" shape="0.00,90.25 80.30,90.25"/>
        <lane id="WC_1" index="1" disallow="all" speed="13.89" length="80.30" width="1.50" shape="0.00,92.60 80.30,92.60"/>
        <lane id="WC_2" index="2" allow="passenger" speed="13.89" length="80.30" shape="0.00,95.05 80.30,95.05"/>
        <lane id="WC_3" index="3" allow="passenger" speed="13.89" length="80.30" shape="0.00,98.35 80.30,98.35"/>
    </edge>

    <tlLogic id="C" type="static" programID="0" offset="0">
        <phase duration="26" state="gGGgrrrrgGGgrrrrrGrG"/>
        <phase duration="5" state="gGGgrrrrgGGgrrrrrrrr"/>
        <phase duration="4" state="yyygrrrryyygrrrrrrrr"/>
        <phase duration="6" state="rrrGrrrrrrrGrrrrrrrr"/>
        <phase duration="4" state="rrryrrrrrrryrrrrrrrr"/>
        <phase duration="26" state="rrrrgGGgrrrrgGGgGrGr"/>
        <phase duration="5" state="rrrrgGGgrrrrgGGgrrrr"/>
        <phase duration="4" state="rrrryyygrrrryyygrrrr"/>
        <phase duration="6" state="rrrrrrrGrrrrrrrGrrrr"/>
        <phase duration="4" state="rrrrrrryrrrrrrryrrrr"/>
    </tlLogic>

    <junction id="C" type="traffic_light" x="100.00" y="100.00" incLanes="NC_0 NC_1 NC_2 NC_3 EC_0 EC_1 EC_2 EC_3 SC_0 SC_1 SC_2 SC_3 WC_0 WC_1 WC_2 WC_3 :C_w1_0 :C_w2_0 :C_w3_0 :C_w0_0" intLanes=":C_16_0 :C_1_0 :C_1_1 :C_17_0 :C_18_0 :C_5_0 :C_5_1 :C_19_0 :C_20_0 :C_9_0 :C_9_1 :C_21_0 :C_22_0 :C_13_0 :C_13_1 :C_23_0 :C_c0_0 :C_c1_0 :C_c2_0 :C_c3_0" shape="98.75,122.65 118.87,112.59 119.70,111.25 119.70,88.75 101.25,77.35 81.13,87.41 80.30,88.75 80.30,111.25">
        <request index="0" response="10010000000000000000" foes="10010000100001100000" cont="1"/>
        <request index="1" response="01010000000000000000" foes="01011111100011100000" cont="0"/>
        <request index="2" response="01010000000000000000" foes="01011111100011100000" cont="0"/>
        <request index="3" response="00110000011100000000" foes="00111110011111100000" cont="1"/>
        <request index="4" response="00110000011000000000" foes="00111000011000000000" cont="1"/>
        <request index="5" response="10100000111000001111" foes="10101000111000001111" cont="0"/>
        <request index="6" response="10100000111000001111" foes="10101000111000001111" cont="0"/>
        <request index="7" response="01100111111000001110" foes="01100111111000001110" cont="1"/>
        <request index="8" response="01100000000000000000" foes="01100110000000001000" cont="1"/>
        <request index="9" response="01010000000000000000" foes="01011110000011111000" cont="0"/>
        <request index="10" response="01010000000000000000" foes="01011110000011111000" cont="0"/>
        <request index="11" response="11000000000000000111" foes="11001110000011100111" cont="1"/>
        <request index="12" response="11000000000000000110" foes="11000000000010000110" cont="1"/>
        <request index="13" response="10100000111100001110" foes="10100000111110001110" cont="0"/>
        <request index="14" response="10100000111100001110" foes="10100000111110001110" cont="0"/>
        <request index="15" response="10010000111001111110" foes="10010000111001111110" cont="1"/>
        <request index="16" response="00000000000000000000" foes="00001000011000011111" cont="0"/>
        <request index="17" response="00000000000000000000" foes="00000110000111111000" cont="0"/>
        <request index="18" response="00000000000000000000" foes="00000001111110000110" cont="0"/>
        <request index="19" response="00000000000000000000" foes="00001111100001100001" cont="0"/>
    </junction>
    <junction id="E" type="dead_end" x="200.00" y="100.00" incLanes="CE_0 CE_1 CE_2 CE_3" intLanes="" shape="200.00,100.05 200.00,88.75 200.00,99.95"/>
    <junction id="N" type="dead_end" x="150.00" y="200.00" incLanes="CN_0 CN_1 CN_2 CN_3" intLanes="" shape="149.96,200.02 160.06,194.97 150.04,199.98"/>
    <junction id="S" type="dead_end" x="50.00" y="0.00" incLanes="CS_0 CS_1 CS_2 CS_3" intLanes="" shape="50.04,-0.02 39.94,5.03 49.96,0.02"/>
    <junction id="W" type="dead_end" x="0.00" y="100.00" incLanes="CW_0 CW_1 CW_2 CW_3" intLanes="" shape="0.00,99.95 0.00,111.25 0.00,100.05"/>

    <junction id=":C_16_0" type="internal" x="84.80" y="105.49" incLanes=":C_0_0" intLanes=":C_5_0 :C_5_1 :C_11_0 :C_c0_0 :C_c3_0"/>
    <junction id=":C_17_0" type="internal" x="104.48" y="108.86" incLanes=":C_3_0 SC_2 SC_3" intLanes=":C_5_0 :C_5_1 :C_7_0 :C_8_0 :C_9_0 :C_9_1 :C_13_0 :C_13_1 :C_15_0 :C_c0_0 :C_c1_0"/>
    <junction id=":C_18_0" type="internal" x="111.78" y="111.11" incLanes=":C_4_0" intLanes=":C_9_0 :C_9_1 :C_15_0 :C_c0_0 :C_c1_0"/>
    <junction id=":C_19_0" type="internal" x="108.78" y="99.95" incLanes=":C_7_0 WC_2 WC_3" intLanes=":C_1_0 :C_1_1 :C_3_0 :C_9_0 :C_9_1 :C_11_0 :C_12_0 :C_13_0 :C_13_1 :C_c1_0 :C_c2_0"/>
    <junction id=":C_20_0" type="internal" x="115.20" y="94.51" incLanes=":C_8_0" intLanes=":C_3_0 :C_13_0 :C_13_1 :C_c1_0 :C_c2_0"/>
    <junction id=":C_21_0" type="internal" x="95.52" y="91.14" incLanes=":C_11_0 NC_2 NC_3" intLanes=":C_0_0 :C_1_0 :C_1_1 :C_5_0 :C_5_1 :C_7_0 :C_13_0 :C_13_1 :C_15_0 :C_c2_0 :C_c3_0"/>
    <junction id=":C_22_0" type="internal" x="88.22" y="88.89" incLanes=":C_12_0" intLanes=":C_1_0 :C_1_1 :C_7_0 :C_c2_0 :C_c3_0"/>
    <junction id=":C_23_0" type="internal" x="91.22" y="100.05" incLanes=":C_15_0 EC_2 EC_3" intLanes=":C_1_0 :C_1_1 :C_3_0 :C_4_0 :C_5_0 :C_5_1 :C_9_0 :C_9_1 :C_11_0 :C_c0_0 :C_c3_0"/>

    <connection from="EC" to="CN" fromLane="2" toLane="2" via=":C_4_0" tl="C" linkIndex="4" dir="r" state="o"/>
    <connection from="EC" to="CW" fromLane="2" toLane="2" via=":C_5_0" tl="C" linkIndex="5" dir="s" state="o"/>
    <connection from="EC" to="CW" fromLane="3" toLane="3" via=":C_5_1" tl="C" linkIndex="6" dir="s" state="o"/>
    <connection from="EC" to="CS" fromLane="3" toLane="3" via=":C_7_0" tl="C" linkIndex="7" dir="l" state="o"/>
    <connection from="NC" to="CW" fromLane="2" toLane="2" via=":C_0_0" tl="C" linkIndex="0" dir="r" state="o"/>
    <connection from="NC" to="CS" fromLane="2" toLane="2" via=":C_1_0" tl="C" linkIndex="1" dir="s" state="o"/>
    <connection from="NC" to="CS" fromLane="3" toLane="3" via=":C_1_1" tl="C" linkIndex="2" dir="s" state="o"/>
    <connection from="NC" to="CE" fromLane="3" toLane="3" via=":C_3_0" tl="C" linkIndex="3" dir="l" state="o"/>
    <connection from="SC" to="CE" fromLane="2" toLane="2" via=":C_8_0" tl="C" linkIndex="8" dir="r" state="o"/>
    <connection from="SC" to="CN" fromLane="2" toLane="2" via=":C_9_0" tl="C" linkIndex="9" dir="s" state="o"/>
    <connection from="SC" to="CN" fromLane="3" toLane="3" via=":C_9_1" tl="C" linkIndex="10" dir="s" state="o"/>
    <connection from="SC" to="CW" fromLane="3" toLane="3" via=":C_11_0" tl="C" linkIndex="11" dir="l" state="o"/>
    <connection from="WC" to="CS" fromLane="2" toLane="2" via=":C_12_0" tl="C" linkIndex="12" dir="r" state="o"/>
    <connection from="WC" to="CE" fromLane="2" toLane="2" via=":C_13_0" tl="C" linkIndex="13" dir="s" state="o"/>
    <connection from="WC" to="CE" fromLane="3" toLane="3" via=":C_13_1" tl="C" linkIndex="14" dir="s" state="o"/>
    <connection from="WC" to="CN" fromLane="3" toLane="3" via=":C_15_0" tl="C" linkIndex="15" dir="l" state="o"/>

    <connection from=":C_0" to="CW" fromLane="0" toLane="2" via=":C_16_0" dir="s" state="m"/>
    <connection from=":C_16" to="CW" fromLane="0" toLane="2" dir="s" state="M"/>
    <connection from=":C_1" to="CS" fromLane="0" toLane="2" dir="s" state="M"/>
    <connection from=":C_1" to="CS" fromLane="1" toLane="3" dir="s" state="M"/>
    <connection from=":C_3" to="CE" fromLane="0" toLane="3" via=":C_17_0" dir="s" state="m"/>
    <connection from=":C_17" to="CE" fromLane="0" toLane="3" dir="s" state="M"/>
    <connection from=":C_4" to="CN" fromLane="0" toLane="2" via=":C_18_0" dir="s" state="m"/>
    <connection from=":C_18" to="CN" fromLane="0" toLane="2" dir="s" state="M"/>
    <connection from=":C_5" to="CW" fromLane="0" toLane="2" dir="s" state="M"/>
    <connection from=":C_5" to="CW" fromLane="1" toLane="3" dir="s" state="M"/>
    <connection from=":C_7" to="CS" fromLane="0" toLane="3" via=":C_19_0" dir="s" state="m"/>
    <connection from=":C_19" to="CS" fromLane="0" toLane="3" dir="s" state="M"/>
    <connection from=":C_8" to="CE" fromLane="0" toLane="2" via=":C_20_0" dir="s" state="m"/>
    <connection from=":C_20" to="CE" fromLane="0" toLane="2" dir="s" state="M"/>
    <connection from=":C_9" to="CN" fromLane="0" toLane="2" dir="s" state="M"/>
    <connection from=":C_9" to="CN" fromLane="1" toLane="3" dir="s" state="M"/>
    <connection from=":C_11" to="CW" fromLane="0" toLane="3" via=":C_21_0" dir="s" state="m"/>
    <connection from=":C_21" to="CW" fromLane="0" toLane="3" dir="s" state="M"/>
    <connection from=":C_12" to="CS" fromLane="0" toLane="2" via=":C_22_0" dir="s" state="m"/>
    <connection from=":C_22" to="CS" fromLane="0" toLane="2" dir="s" state="M"/>
    <connection from=":C_13" to="CE" fromLane="0" toLane="2" dir="s" state="M"/>
    <connection from=":C_13" to="CE" fromLane="1" toLane="3" dir="s" state="M"/>
    <connection from=":C_15" to="CN" fromLane="0" toLane="3" via=":C_23_0" dir="s" state="m"/>
    <connection from=":C_23" to="CN" fromLane="0" toLane="3" dir="s" state="M"/>

    <connection from=":C_c0" to=":C_w0" fromLane="0" toLane="0" dir="s" state="M"/>
    <connection from=":C_c1" to=":C_w1" fromLane="0" toLane="0" dir="s" state="M"/>
    <connection from=":C_c2" to=":C_w2" fromLane="0" toLane="0" dir="s" state="M"/>
    <connection from=":C_c3" to=":C_w3" fromLane="0" toLane="0" dir="s" state="M"/>
    <connection from=":C_w0" to=":C_c3" fromLane="0" toLane="0" tl="C" linkIndex="19" dir="s" state="M"/>
    <connection from=":C_w0" to="CW" fromLane="0" toLane="0" dir="s" state="M"/>
    <connection from="NC" to=":C_w0" fromLane="0" toLane="0" dir="s" state="M"/>
    <connection from=":C_w1" to=":C_c0" fromLane="0" toLane="0" tl="C" linkIndex="16" dir="s" state="M"/>
    <connection from=":C_w1" to="CN" fromLane="0" toLane="0" dir="s" state="M"/>
    <connection from="EC" to=":C_w1" fromLane="0" toLane="0" dir="s" state="M"/>
    <connection from=":C_w2" to=":C_c1" fromLane="0" toLane="0" tl="C" linkIndex="17" dir="s" state="M"/>
    <connection from=":C_w2" to="CE" fromLane="0" toLane="0" dir="s" state="M"/>
    <connection from="SC" to=":C_w2" fromLane="0" toLane="0" dir="s" state="M"/>
    <connection from=":C_w3" to=":C_c2" fromLane="0" toLane="0" tl="C" linkIndex="18" dir="s" state="M"/>
    <connection from=":C_w3" to="CS" fromLane="0" toLane="0" dir="s" state="M"/>
    <connection from="WC" to=":C_w3" fromLane="0" toLane="0" dir="s" state="M"/>
    <connection from=":E_w0" to="EC" fromLane="0" toLane="0" dir="s" state="M"/>
    <connection from="CE" to=":E_w0" fromLane="0" toLane="0" dir="s" state="M"/>
    <connection from=":N_w0" to="NC" fromLane="0" toLane="0" dir="s" state="M"/>
    <connection from="CN" to=":N_w0" fromLane="0" toLane="0" dir="s" state="M"/>
    <connection from=":S_w0" to="SC" fromLane="0" toLane="0" dir="s" state="M"/>
    <connection from="CS" to=":S_w0" fromLane="0" toLane="0" dir="s" state="M"/>
    <connection from=":W_w0" to="WC" fromLane="0" toLane="0" dir="s" state="M"/>
    <connection from="CW" to=":W_w0" fromLane="0" toLane="0" dir="s" state="M"/>
</net>
