<?xml version="1.0" encoding="UTF-8"?>

<!-- generated on 16.08.2019 10:59:56 by Eclipse SUMO netedit Version v1_2_0+1619-6885be3785
-->

<additional xmlns:xsi="http://www.w3.org/2001/XMLSchema-instance" xsi:noNamespaceSchemaLocation="http://sumo.dlr.de/xsd/additional_file.xsd">
    <busStop id="busStop" lane="gneE5_0" startPos="20" endPos="30"/>
</additional>
