<?xml version="1.0" encoding="UTF-8"?>

<!-- generated on Wed Aug 15 14:52:35 2018 by Eclipse SUMO netconvert Version feccab3
-->

<configuration xmlns:xsi="http://www.w3.org/2001/XMLSchema-instance" xsi:noNamespaceSchemaLocation="http://sumo.dlr.de/xsd/netconvertConfiguration.xsd">

    <input>
        <node-files value="input_nodes.nod.xml"/>
        <edge-files value="input_edges.edg.xml"/>
        <connection-files value="input_connections.con.xml"/>
    </input>

    <output>
        <output-file value="net.net.xml"/>
    </output>

    <processing>
        <speed-in-kmh value="true"/>
    </processing>

    <junctions>
        <no-internal-links value="true"/>
    </junctions>

</configuration>
