<?xml version="1.0" encoding="UTF-8"?>

<!-- generated on 2022-12-04 16:29:39 by Eclipse SUMO sumo Version v1_15_0+0751-db72905
This data file and the accompanying materials
are made available under the terms of the Eclipse Public License v2.0
which accompanies this distribution, and is available at
http://www.eclipse.org/legal/epl-v20.html
This file may also be made available under the following Secondary
Licenses when the conditions for such availability set forth in the Eclipse
Public License 2.0 are satisfied: GNU General Public License, version 2
or later which is available at
https://www.gnu.org/licenses/old-licenses/gpl-2.0-standalone.html
SPDX-License-Identifier: EPL-2.0 OR GPL-2.0-or-later
<configuration xmlns:xsi="http://www.w3.org/2001/XMLSchema-instance" xsi:noNamespaceSchemaLocation="http://sumo.dlr.de/xsd/sumoConfiguration.xsd">

    <input>
        <net-file value="net.net.xml"/>
        <route-files value="input_routes.rou.xml"/>
    </input>

    <output>
        <write-license value="true"/>
        <tripinfo-output value="tripinfos.xml"/>
        <lanechange-output value="lanechanges.xml"/>
    </output>

    <processing>
        <lateral-resolution value="0.4"/>
        <default.speeddev value="0"/>
    </processing>

    <report>
        <xml-validation value="never"/>
        <no-step-log value="true"/>
    </report>

</configuration>
-->

<lanechanges>
    <change id="merge.18" type="t0" time="42.00" from="beg_0" to="beg_1" dir="1" speed="0.10" pos="60.29" reason="speedGain" leaderGap="2.60" leaderSecureGap="0.10" leaderSpeed="0.10" followerGap="2.60" followerSecureGap="0.10" followerSpeed="0.10" origLeaderGap="17.80" origLeaderSecureGap="0.10" origLeaderSpeed="0.10" latGap="None"/>
    <change id="merge.19" type="t0" time="42.00" from="beg_0" to="beg_1" dir="1" speed="0.10" pos="52.69" reason="speedGain" leaderGap="2.60" leaderSecureGap="0.10" leaderSpeed="0.10" followerGap="None" followerSecureGap="None" followerSpeed="None" origLeaderGap="25.40" origLeaderSecureGap="0.10" origLeaderSpeed="0.10" latGap="None"/>
    <change id="merge.2" type="t0" time="43.00" from="beg_0" to="beg_1" dir="1" speed="0.00" pos="181.00" reason="strategic|urgent" leaderGap="2.50" leaderSecureGap="0.00" leaderSpeed="0.00" followerGap="2.50" followerSecureGap="0.00" followerSpeed="0.00" origLeaderGap="None" origLeaderSecureGap="None" origLeaderSpeed="None" latGap="None"/>
    <change id="merge.3" type="t0" time="43.00" from="beg_0" to="beg_1" dir="1" speed="0.00" pos="173.50" reason="strategic|urgent" leaderGap="2.50" leaderSecureGap="0.00" leaderSpeed="0.00" followerGap="2.50" followerSecureGap="0.00" followerSpeed="0.00" origLeaderGap="None" origLeaderSecureGap="None" origLeaderSpeed="None" latGap="None"/>
    <change id="merge.4" type="t0" time="43.00" from="beg_0" to="beg_1" dir="1" speed="0.00" pos="165.99" reason="strategic|urgent" leaderGap="2.50" leaderSecureGap="0.00" leaderSpeed="0.00" followerGap="2.50" followerSecureGap="0.00" followerSpeed="0.00" origLeaderGap="None" origLeaderSecureGap="None" origLeaderSpeed="None" latGap="None"/>
    <change id="merge.16" type="t0" time="43.00" from="beg_0" to="beg_1" dir="1" speed="0.10" pos="75.59" reason="cooperative|urgent" leaderGap="2.60" leaderSecureGap="0.10" leaderSpeed="0.10" followerGap="2.60" followerSecureGap="0.10" followerSpeed="0.10" origLeaderGap="17.80" origLeaderSecureGap="0.10" origLeaderSpeed="0.10" latGap="None"/>
    <change id="merge.17" type="t0" time="43.00" from="beg_0" to="beg_1" dir="1" speed="0.10" pos="67.99" reason="speedGain" leaderGap="2.60" leaderSecureGap="0.10" leaderSpeed="0.10" followerGap="2.60" followerSecureGap="0.10" followerSpeed="0.10" origLeaderGap="25.40" origLeaderSecureGap="0.10" origLeaderSpeed="0.10" latGap="None"/>
    <change id="merge.0" type="t0" time="44.00" from="beg_0" to="beg_1" dir="1" speed="0.00" pos="196.00" reason="strategic|urgent" leaderGap="19.74" leaderSecureGap="0.00" leaderSpeed="13.89" followerGap="2.50" followerSecureGap="0.00" followerSpeed="0.00" origLeaderGap="None" origLeaderSecureGap="None" origLeaderSpeed="None" latGap="None"/>
    <change id="merge.1" type="t0" time="44.00" from="beg_0" to="beg_1" dir="1" speed="0.00" pos="188.50" reason="strategic|urgent" leaderGap="2.50" leaderSecureGap="0.00" leaderSpeed="0.00" followerGap="2.50" followerSecureGap="0.00" followerSpeed="0.00" origLeaderGap="None" origLeaderSecureGap="None" origLeaderSpeed="None" latGap="None"/>
    <change id="merge.14" type="t0" time="44.00" from="beg_0" to="beg_1" dir="1" speed="0.10" pos="90.89" reason="strategic|urgent" leaderGap="2.60" leaderSecureGap="0.10" leaderSpeed="0.10" followerGap="2.60" followerSecureGap="0.10" followerSpeed="0.10" origLeaderGap="10.10" origLeaderSecureGap="0.10" origLeaderSpeed="0.00" latGap="None"/>
    <change id="merge.15" type="t0" time="44.00" from="beg_0" to="beg_1" dir="1" speed="0.10" pos="83.29" reason="strategic|urgent" leaderGap="2.60" leaderSecureGap="0.10" leaderSpeed="0.10" followerGap="2.60" followerSecureGap="0.10" followerSpeed="0.10" origLeaderGap="17.70" origLeaderSecureGap="0.10" origLeaderSpeed="0.00" latGap="None"/>
    <change id="merge.13" type="t0" time="45.00" from="beg_0" to="beg_1" dir="1" speed="0.00" pos="98.49" reason="strategic|urgent" leaderGap="2.50" leaderSecureGap="0.00" leaderSpeed="0.00" followerGap="2.55" followerSecureGap="0.00" followerSpeed="0.05" origLeaderGap="10.00" origLeaderSecureGap="0.00" origLeaderSpeed="0.00" latGap="None"/>
    <change id="merge.12" type="t0" time="46.00" from="beg_0" to="beg_1" dir="1" speed="0.00" pos="105.99" reason="strategic|urgent" leaderGap="2.50" leaderSecureGap="0.00" leaderSpeed="0.00" followerGap="2.50" followerSecureGap="0.00" followerSpeed="0.00" origLeaderGap="10.00" origLeaderSecureGap="0.00" origLeaderSpeed="0.00" latGap="None"/>
    <change id="merge.10" type="t0" time="47.00" from="beg_0" to="beg_1" dir="1" speed="0.00" pos="120.99" reason="strategic|urgent" leaderGap="2.50" leaderSecureGap="0.00" leaderSpeed="0.00" followerGap="2.50" followerSecureGap="0.00" followerSpeed="0.00" origLeaderGap="None" origLeaderSecureGap="None" origLeaderSpeed="None" latGap="None"/>
    <change id="merge.11" type="t0" time="47.00" from="beg_0" to="beg_1" dir="1" speed="0.00" pos="113.49" reason="strategic|urgent" leaderGap="2.50" leaderSecureGap="0.00" leaderSpeed="0.00" followerGap="2.50" followerSecureGap="0.00" followerSpeed="0.00" origLeaderGap="10.00" origLeaderSecureGap="0.00" origLeaderSpeed="0.00" latGap="None"/>
    <change id="merge.9" type="t0" time="49.00" from="beg_0" to="beg_1" dir="1" speed="0.00" pos="128.49" reason="strategic|urgent" leaderGap="5.10" leaderSecureGap="0.00" leaderSpeed="2.60" followerGap="2.50" followerSecureGap="0.00" followerSpeed="0.00" origLeaderGap="None" origLeaderSecureGap="None" origLeaderSpeed="None" latGap="None"/>
    <change id="merge.7" type="t0" time="54.00" from="beg_0" to="beg_1" dir="1" speed="0.00" pos="177.59" reason="strategic|urgent" leaderGap="5.90" leaderSecureGap="0.00" leaderSpeed="0.21" followerGap="2.50" followerSecureGap="0.00" followerSpeed="2.20" origLeaderGap="None" origLeaderSecureGap="None" origLeaderSpeed="None" latGap="None"/>
    <change id="merge.8" type="t0" time="54.00" from="beg_0" to="beg_1" dir="1" speed="2.20" pos="170.09" reason="strategic|urgent" leaderGap="2.50" leaderSecureGap="0.00" leaderSpeed="0.00" followerGap="4.68" followerSecureGap="0.00" followerSpeed="1.62" origLeaderGap="None" origLeaderSecureGap="None" origLeaderSpeed="None" latGap="None"/>
    <change id="merge.6" type="t0" time="55.00" from="beg_0" to="beg_1" dir="1" speed="0.00" pos="188.50" reason="strategic|urgent" leaderGap="2.50" leaderSecureGap="0.00" leaderSpeed="0.00" followerGap="3.30" followerSecureGap="2.60" followerSpeed="2.60" origLeaderGap="None" origLeaderSecureGap="None" origLeaderSpeed="None" latGap="None"/>
    <change id="merge.5" type="t0" time="56.00" from="beg_0" to="beg_1" dir="1" speed="0.00" pos="196.00" reason="strategic|urgent" leaderGap="6.89" leaderSecureGap="0.00" leaderSpeed="10.40" followerGap="2.50" followerSecureGap="0.00" followerSpeed="0.00" origLeaderGap="None" origLeaderSecureGap="None" origLeaderSpeed="None" latGap="None"/>
</lanechanges>
