<?xml version="1.0" encoding="UTF-8"?>

<!-- generated on Tue 21 May 2019 10:47:24 AM CEST by Eclipse SUMO netedit Version v1_1_0+0433-16c2ffa
<configuration xmlns:xsi="http://www.w3.org/2001/XMLSchema-instance" xsi:noNamespaceSchemaLocation="http://sumo.dlr.de/xsd/netconvertConfiguration.xsd">

    <input>
        <sumo-net-file value="net.net.xml"/>
    </input>

    <output>
        <output-file value="net.net.xml"/>
        <plain-output-prefix value="/scr2/debug/zipper2/input_plain"/>
    </output>

    <processing>
        <geometry.max-grade.fix value="false"/>
        <offset.disable-normalization value="true"/>
        <lefthand value="false"/>
    </processing>

    <junctions>
        <no-turnarounds value="true"/>
        <junctions.corner-detail value="5"/>
        <junctions.limit-turn-speed value="5.5"/>
        <rectangular-lane-cut value="false"/>
        <check-lane-foes.all value="false"/>
    </junctions>

    <pedestrian>
        <walkingareas value="false"/>
    </pedestrian>

</configuration>
-->

<nodes version="1.3" xmlns:xsi="http://www.w3.org/2001/XMLSchema-instance" xsi:noNamespaceSchemaLocation="http://sumo.dlr.de/xsd/nodes_file.xsd">
    <location netOffset="0.00,0.00" convBoundary="0.00,-100.00,200.00,100.00" origBoundary="-10000000000.00,-10000000000.00,10000000000.00,10000000000.00" projParameter="!"/>

    <node id="C" x="100.00" y="0.00" type="zipper"/>
    <node id="E" x="200.00" y="0.00" type="dead_end"/>
    <node id="N" x="100.00" y="100.00" type="dead_end"/>
    <node id="S" x="100.00" y="-100.00" type="dead_end"/>
    <node id="W" x="0.00" y="0.00" type="dead_end"/>
</nodes>
