<?xml version="1.0" encoding="UTF-8"?>

<!-- generated on Mon Feb 17 15:30:46 2020 by Eclipse SUMO netconvert Version v1_5_0+0130-ceb0a01
This data file and the accompanying materials
are made available under the terms of the Eclipse Public License v2.0
which accompanies this distribution, and is available at
http://www.eclipse.org/legal/epl-v20.html
SPDX-License-Identifier: EPL-2.0
<configuration xmlns:xsi="http://www.w3.org/2001/XMLSchema-instance" xsi:noNamespaceSchemaLocation="http://sumo.dlr.de/xsd/netconvertConfiguration.xsd">

    <input>
        <node-files value="input_plain.nod.xml"/>
        <edge-files value="input_plain.edg.xml"/>
    </input>

    <output>
        <write-license value="true"/>
    </output>

    <report>
        <xml-validation value="never"/>
        <aggregate-warnings value="5"/>
    </report>

</configuration>
-->

<net version="1.6" junctionCornerDetail="5" limitTurnSpeed="5.50" xmlns:xsi="http://www.w3.org/2001/XMLSchema-instance" xsi:noNamespaceSchemaLocation="http://sumo.dlr.de/xsd/net_file.xsd">

    <location netOffset="0.00,100.00" convBoundary="0.00,0.00,200.00,200.00" origBoundary="-10000000000.00,-10000000000.00,10000000000.00,10000000000.00" projParameter="!"/>

    <edge id=":C_0" function="internal">
        <lane id=":C_0_0" index="0" speed="7.33" length="11.73" shape="98.40,104.00 98.95,101.55 100.60,99.80 103.35,98.75 107.20,98.40"/>
    </edge>
    <edge id=":C_1" function="internal">
        <lane id=":C_1_0" index="0" speed="6.51" length="9.03" shape="101.60,89.60 101.95,92.05 103.00,93.80 104.75,94.85 107.20,95.20"/>
    </edge>
    <edge id=":C_2" function="internal">
        <lane id=":C_2_0" index="0" speed="13.89" length="14.40" shape="92.80,95.20 107.20,95.20"/>
        <lane id=":C_2_1" index="1" speed="13.89" length="14.40" shape="92.80,98.40 107.20,98.40"/>
    </edge>

    <edge id="CE" from="C" to="E" priority="-1">
        <lane id="CE_0" index="0" speed="13.89" length="92.80" shape="107.20,95.20 200.00,95.20"/>
        <lane id="CE_1" index="1" speed="13.89" length="92.80" shape="107.20,98.40 200.00,98.40"/>
    </edge>
    <edge id="NC" from="N" to="C" priority="-1">
        <lane id="NC_0" index="0" speed="13.89" length="96.00" shape="98.40,200.00 98.40,104.00"/>
    </edge>
    <edge id="SC" from="S" to="C" priority="-1">
        <lane id="SC_0" index="0" speed="13.89" length="89.60" shape="101.60,0.00 101.60,89.60"/>
    </edge>
    <edge id="WC" from="W" to="C" priority="-1">
        <lane id="WC_0" index="0" speed="13.89" length="92.80" shape="0.00,95.20 92.80,95.20"/>
        <lane id="WC_1" index="1" speed="13.89" length="92.80" shape="0.00,98.40 92.80,98.40"/>
    </edge>

    <junction id="C" type="zipper" x="100.00" y="100.00" incLanes="NC_0 SC_0 WC_0 WC_1" intLanes=":C_0_0 :C_1_0 :C_2_0 :C_2_1" shape="96.80,104.00 100.00,104.00 100.80,101.78 101.80,101.00 103.20,100.44 105.00,100.11 107.20,100.00 107.20,93.60 104.98,93.16 104.20,92.60 103.64,91.82 103.31,90.82 103.20,89.60 100.00,89.60 99.20,91.82 98.20,92.60 96.80,93.16 95.00,93.49 92.80,93.60 92.80,100.00 95.02,100.44 95.80,101.00 96.36,101.78 96.69,102.78">
        <request index="0" response="1000" foes="1000" cont="0"/>
        <request index="1" response="0100" foes="0100" cont="0"/>
        <request index="2" response="0010" foes="0010" cont="0"/>
        <request index="3" response="0001" foes="0001" cont="0"/>
    </junction>
    <junction id="E" type="dead_end" x="200.00" y="100.00" incLanes="CE_0 CE_1" intLanes="" shape="200.00,93.60 200.00,100.00"/>
    <junction id="N" type="dead_end" x="100.00" y="200.00" incLanes="" intLanes="" shape="100.00,200.00 96.80,200.00"/>
    <junction id="S" type="dead_end" x="100.00" y="0.00" incLanes="" intLanes="" shape="100.00,0.00 103.20,0.00"/>
    <junction id="W" type="dead_end" x="0.00" y="100.00" incLanes="" intLanes="" shape="0.00,100.00 0.00,93.60"/>

    <connection from="NC" to="CE" fromLane="0" toLane="1" via=":C_0_0" dir="l" state="Z"/>
    <connection from="SC" to="CE" fromLane="0" toLane="0" via=":C_1_0" dir="r" state="Z"/>
    <connection from="WC" to="CE" fromLane="0" toLane="0" via=":C_2_0" dir="s" state="Z"/>
    <connection from="WC" to="CE" fromLane="1" toLane="1" via=":C_2_1" dir="s" state="Z"/>

    <connection from=":C_0" to="CE" fromLane="0" toLane="1" dir="l" state="M"/>
    <connection from=":C_1" to="CE" fromLane="0" toLane="0" dir="r" state="M"/>
    <connection from=":C_2" to="CE" fromLane="0" toLane="0" dir="s" state="M"/>
    <connection from=":C_2" to="CE" fromLane="1" toLane="1" dir="s" state="M"/>

</net>
