<?xml version="1.0" encoding="UTF-8"?>

<!-- generated on Wed Jun 21 08:24:55 2017 by SUMO Version dev-SVN-r24776
<?xml version="1.0" encoding="UTF-8"?>

<configuration xmlns:xsi="http://www.w3.org/2001/XMLSchema-instance" xsi:noNamespaceSchemaLocation="http://sumo.dlr.de/xsd/sumoConfiguration.xsd">

    <input>
        <net-file value="net.net.xml"/>
        <route-files value="input_routes.rou.xml"/>
    </input>

    <output>
        <fcd-output value="fcd.xml"/>
        <lanechange-output value="lanechanges.xml"/>
    </output>

    <processing>
        <lateral-resolution value="0.2"/>
    </processing>

    <report>
        <xml-validation value="never"/>
        <no-step-log value="true"/>
    </report>

</configuration>
-->

<lanechanges>
    <change id="ego" time="5.00" from="end_3" to="end_4" dir="1" speed="17.55" reason="strategic|urgent" leaderGap="19.07" leaderSecureGap="0.00" followerGap="None" followerSecureGap="None" latGap="None"/>
</lanechanges>
