<configuration>
    <input>
        <net-file value="ne%.net.xml"/>
    </input>
</configuration>
