<?xml version="1.0" encoding="UTF-8"?>

<routes xmlns:xsi="http://www.w3.org/2001/XMLSchema-instance" xsi:noNamespaceSchemaLocation="http://sumo.dlr.de/xsd/routes_file.xsd">
    <vType id="taxi" vClass="taxi">
        <param key="has.taxi.device" value="true"/>
    </vType>
    <trip id="taxi_0" depart="0.00" type="taxi">
        <stop lane="A0A1_0" triggered="person"/>
    </trip>

    <person id="a" depart="0">
        <ride from="A1B1" to="D2D3" lines="taxi"/>
    </person>
    <person id="b" depart="0">
        <ride from="B1C1" to="C1D1" lines="taxi" arrivalPos="50"/>
    </person>
    <person id="c" depart="0" departPos="50">
        <ride from="C1D1" to="D2D3" lines="taxi"/>
    </person>
</routes>
