<?xml version="1.0" encoding="UTF-8"?>

<!-- generated on Mon Feb 17 15:31:07 2020 by Eclipse SUMO netconvert Version v1_5_0+0130-ceb0a01
This data file and the accompanying materials
are made available under the terms of the Eclipse Public License v2.0
which accompanies this distribution, and is available at
http://www.eclipse.org/legal/epl-v20.html
SPDX-License-Identifier: EPL-2.0
<configuration xmlns:xsi="http://www.w3.org/2001/XMLSchema-instance" xsi:noNamespaceSchemaLocation="http://sumo.dlr.de/xsd/netconvertConfiguration.xsd">

    <input>
        <node-files value="input_plain.nod.xml"/>
        <edge-files value="input_plain.edg.xml"/>
        <connection-files value="input_plain.con.xml"/>
    </input>

    <output>
        <write-license value="true"/>
        <output-file value="net.net.xml"/>
        <plain-output-prefix value="plain"/>
    </output>

    <processing>
        <offset.x value="100"/>
        <offset.y value="20"/>
    </processing>

    <junctions>
        <no-turnarounds value="true"/>
    </junctions>

    <report>
        <xml-validation value="never"/>
        <aggregate-warnings value="5"/>
    </report>

</configuration>
-->

<connections version="1.6" xmlns:xsi="http://www.w3.org/2001/XMLSchema-instance" xsi:noNamespaceSchemaLocation="http://sumo.dlr.de/xsd/connections_file.xsd">
    <connection from="CE"/>

    <connection from="CN"/>

    <connection from="CS"/>

    <connection from="CW"/>

    <connection from="EC" to="CN" fromLane="2" toLane="2"/>
    <connection from="EC" to="CW" fromLane="2" toLane="2"/>
    <connection from="EC" to="CW" fromLane="3" toLane="3"/>
    <connection from="EC" to="CS" fromLane="3" toLane="3"/>

    <connection from="NC" to="CW" fromLane="2" toLane="2"/>
    <connection from="NC" to="CS" fromLane="2" toLane="2"/>
    <connection from="NC" to="CS" fromLane="3" toLane="3"/>
    <connection from="NC" to="CE" fromLane="3" toLane="3"/>

    <connection from="SC" to="CE" fromLane="2" toLane="2"/>
    <connection from="SC" to="CN" fromLane="2" toLane="2"/>
    <connection from="SC" to="CN" fromLane="3" toLane="3"/>
    <connection from="SC" to="CW" fromLane="3" toLane="3"/>

    <connection from="WC" to="CS" fromLane="2" toLane="2"/>
    <connection from="WC" to="CE" fromLane="2" toLane="2"/>
    <connection from="WC" to="CE" fromLane="3" toLane="3"/>
    <connection from="WC" to="CN" fromLane="3" toLane="3"/>

    <crossing node="C" edges="EC" priority="1" width="4.50" linkIndex="16"/>
    <crossing node="C" edges="CE" priority="1" width="4.50" linkIndex="17"/>
    <crossing node="C" edges="SC" priority="1" width="4.50" linkIndex="18" shape="304.29,124.82 313.58,121.02"/>
    <crossing node="C" edges="CS" priority="1" width="4.50" linkIndex="19" shape="288.57,121.09 298.00,124.66"/>
    <crossing node="C" edges="WC" priority="1" width="4.50" linkIndex="20"/>
    <crossing node="C" edges="CW" priority="1" width="4.50" linkIndex="21"/>
    <walkingArea node="C" edges="CW WC" shape="286.91,146.71 270.07,139.68 286.28,131.38"/>
</connections>
