<additional xmlns:xsi="http://www.w3.org/2001/XMLSchema-instance" xsi:noNamespaceSchemaLocation="http://sumo.dlr.de/xsd/additional_file.xsd">

    <!-- non valid frequency (missing) -->
    <e2Detector id="E2_01" lane="gneE0_0" pos="10" length="10.00" file="fileA.txt" timeThreshold="1.00" speedThreshold="1.39" jamThreshold="10.00" friendlyPos="0"/>
    
    <!-- non valid frequency (dummy) -->
    <e2Detector id="E2_02" lane="gneE0_0" pos="11" length="10.00" freq="dummyFrequency" file="fileA.txt" timeThreshold="1.00" speedThreshold="1.39" jamThreshold="10.00" friendlyPos="0"/>

    <!-- non valid frequency (negative) -->
    <e2Detector id="E2_03" lane="gneE0_0" pos="12" length="10.00" freq="-100.00" file="fileA.txt" timeThreshold="1.00" speedThreshold="1.39" jamThreshold="10.00" friendlyPos="0"/>

    <!-- valid frequency -->
    <e2Detector id="E2_04" lane="gneE0_0" pos="13" length="10.00" freq="120.50" file="fileA.txt" timeThreshold="1.00" speedThreshold="1.39" jamThreshold="10.00" friendlyPos="0"/>

</additional>
