<?xml version="1.0" encoding="UTF-8"?>

<!-- generated on 21.08.2020 15:30:53 by Eclipse SUMO netedit Version v1_6_0+1715-1ccaaec835
<configuration xmlns:xsi="http://www.w3.org/2001/XMLSchema-instance" xsi:noNamespaceSchemaLocation="http://sumo.dlr.de/xsd/netconvertConfiguration.xsd">

    <input>
        <new value="true"/>
    </input>

    <output>
        <output-file value="C:\Users\alva_pa\.texttest\tmp\netedit.gui.21Aug152633.12644\netedit.gui\netElements\junctions\create\circular\net.net.xml"/>
    </output>

    <processing>
        <offset.disable-normalization value="true"/>
    </processing>

    <netedit>
        <additional-files value="C:\Users\alva_pa\.texttest\tmp\netedit.gui.21Aug152633.12644\netedit.gui\netElements\junctions\create\circular\additionals.xml"/>
        <additionals-output value="C:\Users\alva_pa\.texttest\tmp\netedit.gui.21Aug152633.12644\netedit.gui\netElements\junctions\create\circular\additionals.xml"/>
        <route-files value="C:\Users\alva_pa\.texttest\tmp\netedit.gui.21Aug152633.12644\netedit.gui\netElements\junctions\create\circular\routes.xml"/>
        <demandelements-output value="C:\Users\alva_pa\.texttest\tmp\netedit.gui.21Aug152633.12644\netedit.gui\netElements\junctions\create\circular\routes.xml"/>
        <data-files value="C:\Users\alva_pa\.texttest\tmp\netedit.gui.21Aug152633.12644\netedit.gui\netElements\junctions\create\circular\datas.xml"/>
        <dataelements-output value="C:\Users\alva_pa\.texttest\tmp\netedit.gui.21Aug152633.12644\netedit.gui\netElements\junctions\create\circular\datas.xml"/>
    </netedit>

    <visualisation>
        <gui-settings-file value="C:\Users\alva_pa\.texttest\tmp\netedit.gui.21Aug152633.12644\netedit.gui\netElements\junctions\create\circular\gui-settings.xml"/>
        <window-size value="700,500"/>
        <window-pos value="50,50"/>
        <gui-testing value="true"/>
        <gui-testing-debug value="true"/>
        <gui-testing-debug-gl value="true"/>
        <gui-testing.setting-output value="C:\Users\alva_pa\.texttest\tmp\netedit.gui.21Aug152633.12644\netedit.gui\netElements\junctions\create\circular\guisettingsoutput.xml"/>
    </visualisation>

    <report>
        <no-warnings value="true"/>
        <aggregate-warnings value="5"/>
        <error-log value="C:\Users\alva_pa\.texttest\tmp\netedit.gui.21Aug152633.12644\netedit.gui\netElements\junctions\create\circular\log.txt"/>
    </report>

</configuration>
-->

<net version="1.6" junctionCornerDetail="5" limitTurnSpeed="5.50" xmlns:xsi="http://www.w3.org/2001/XMLSchema-instance" xsi:noNamespaceSchemaLocation="http://sumo.dlr.de/xsd/net_file.xsd">

    <location netOffset="0.00,0.00" convBoundary="25.00,30.00,65.00,65.00" origBoundary="10000000000.00,10000000000.00,-10000000000.00,-10000000000.00" projParameter="!"/>

    <edge id=":gneJ0_0" function="internal">
        <lane id=":gneJ0_0_0" index="0" speed="13.89" length="0.10" shape="45.00,63.40 45.00,63.40"/>
    </edge>
    <edge id=":gneJ1_0" function="internal">
        <lane id=":gneJ1_0_0" index="0" speed="3.90" length="2.58" shape="61.80,63.40 62.50,63.30 63.00,63.00 63.30,62.50 63.40,61.80"/>
    </edge>
    <edge id=":gneJ2_0" function="internal">
        <lane id=":gneJ2_0_0" index="0" speed="13.89" length="0.10" shape="63.40,50.00 63.40,50.00"/>
    </edge>
    <edge id=":gneJ3_0" function="internal">
        <lane id=":gneJ3_0_0" index="0" speed="3.90" length="2.58" shape="63.40,33.20 63.30,32.50 63.00,32.00 62.50,31.70 61.80,31.60"/>
    </edge>
    <edge id=":gneJ4_0" function="internal">
        <lane id=":gneJ4_0_0" index="0" speed="13.89" length="0.10" shape="45.00,31.60 45.00,31.60"/>
    </edge>
    <edge id=":gneJ5_0" function="internal">
        <lane id=":gneJ5_0_0" index="0" speed="3.90" length="2.58" shape="28.20,31.60 27.50,31.70 27.00,32.00 26.70,32.50 26.60,33.20"/>
    </edge>
    <edge id=":gneJ6_0" function="internal">
        <lane id=":gneJ6_0_0" index="0" speed="13.89" length="0.10" shape="26.60,50.00 26.60,50.00"/>
    </edge>
    <edge id=":gneJ7_0" function="internal">
        <lane id=":gneJ7_0_0" index="0" speed="3.90" length="2.58" shape="26.60,61.80 26.70,62.50 27.00,63.00 27.50,63.30 28.20,63.40"/>
    </edge>

    <edge id="gneE0" from="gneJ0" to="gneJ1" priority="-1">
        <lane id="gneE0_0" index="0" speed="13.89" length="16.80" shape="45.00,63.40 61.80,63.40"/>
    </edge>
    <edge id="gneE1" from="gneJ1" to="gneJ2" priority="-1">
        <lane id="gneE1_0" index="0" speed="13.89" length="11.80" shape="63.40,61.80 63.40,50.00"/>
    </edge>
    <edge id="gneE2" from="gneJ2" to="gneJ3" priority="-1">
        <lane id="gneE2_0" index="0" speed="13.89" length="16.80" shape="63.40,50.00 63.40,33.20"/>
    </edge>
    <edge id="gneE3" from="gneJ3" to="gneJ4" priority="-1">
        <lane id="gneE3_0" index="0" speed="13.89" length="16.80" shape="61.80,31.60 45.00,31.60"/>
    </edge>
    <edge id="gneE4" from="gneJ4" to="gneJ5" priority="-1">
        <lane id="gneE4_0" index="0" speed="13.89" length="16.80" shape="45.00,31.60 28.20,31.60"/>
    </edge>
    <edge id="gneE5" from="gneJ5" to="gneJ6" priority="-1">
        <lane id="gneE5_0" index="0" speed="13.89" length="16.80" shape="26.60,33.20 26.60,50.00"/>
    </edge>
    <edge id="gneE6" from="gneJ6" to="gneJ7" priority="-1">
        <lane id="gneE6_0" index="0" speed="13.89" length="11.80" shape="26.60,50.00 26.60,61.80"/>
    </edge>
    <edge id="gneE7" from="gneJ7" to="gneJ0" priority="-1">
        <lane id="gneE7_0" index="0" speed="13.89" length="16.80" shape="28.20,63.40 45.00,63.40"/>
    </edge>

    <junction id="gneJ0" type="priority" x="45.00" y="65.00" incLanes="gneE7_0" intLanes=":gneJ0_0_0" shape="45.00,65.00 45.00,61.80 45.00,65.00">
        <request index="0" response="0" foes="0" cont="0"/>
    </junction>
    <junction id="gneJ1" type="priority" x="65.00" y="65.00" incLanes="gneE0_0" intLanes=":gneJ1_0_0" shape="65.00,61.80 61.80,61.80 61.80,65.00 63.58,64.64 64.20,64.20 64.64,63.58 64.91,62.78">
        <request index="0" response="0" foes="0" cont="0"/>
    </junction>
    <junction id="gneJ2" type="priority" x="65.00" y="50.00" incLanes="gneE1_0" intLanes=":gneJ2_0_0" shape="61.80,50.00 65.00,50.00 61.80,50.00">
        <request index="0" response="0" foes="0" cont="0"/>
    </junction>
    <junction id="gneJ3" type="priority" x="65.00" y="30.00" incLanes="gneE2_0" intLanes=":gneJ3_0_0" shape="61.80,33.20 65.00,33.20 64.64,31.42 64.20,30.80 63.58,30.36 62.78,30.09 61.80,30.00">
        <request index="0" response="0" foes="0" cont="0"/>
    </junction>
    <junction id="gneJ4" type="priority" x="45.00" y="30.00" incLanes="gneE3_0" intLanes=":gneJ4_0_0" shape="45.00,33.20 45.00,30.00 45.00,33.20">
        <request index="0" response="0" foes="0" cont="0"/>
    </junction>
    <junction id="gneJ5" type="priority" x="25.00" y="30.00" incLanes="gneE4_0" intLanes=":gneJ5_0_0" shape="25.00,33.20 28.20,33.20 28.20,30.00 26.42,30.36 25.80,30.80 25.36,31.42 25.09,32.22">
        <request index="0" response="0" foes="0" cont="0"/>
    </junction>
    <junction id="gneJ6" type="priority" x="25.00" y="50.00" incLanes="gneE5_0" intLanes=":gneJ6_0_0" shape="25.00,50.00 28.20,50.00 25.00,50.00">
        <request index="0" response="0" foes="0" cont="0"/>
    </junction>
    <junction id="gneJ7" type="priority" x="25.00" y="65.00" incLanes="gneE6_0" intLanes=":gneJ7_0_0" shape="28.20,65.00 28.20,61.80 25.00,61.80 25.36,63.58 25.80,64.20 26.42,64.64 27.22,64.91">
        <request index="0" response="0" foes="0" cont="0"/>
    </junction>

    <connection from="gneE0" to="gneE1" fromLane="0" toLane="0" via=":gneJ1_0_0" dir="r" state="M"/>
    <connection from="gneE1" to="gneE2" fromLane="0" toLane="0" via=":gneJ2_0_0" dir="s" state="M"/>
    <connection from="gneE2" to="gneE3" fromLane="0" toLane="0" via=":gneJ3_0_0" dir="r" state="M"/>
    <connection from="gneE3" to="gneE4" fromLane="0" toLane="0" via=":gneJ4_0_0" dir="s" state="M"/>
    <connection from="gneE4" to="gneE5" fromLane="0" toLane="0" via=":gneJ5_0_0" dir="r" state="M"/>
    <connection from="gneE5" to="gneE6" fromLane="0" toLane="0" via=":gneJ6_0_0" dir="s" state="M"/>
    <connection from="gneE6" to="gneE7" fromLane="0" toLane="0" via=":gneJ7_0_0" dir="r" state="M"/>
    <connection from="gneE7" to="gneE0" fromLane="0" toLane="0" via=":gneJ0_0_0" dir="s" state="M"/>

    <connection from=":gneJ0_0" to="gneE0" fromLane="0" toLane="0" dir="s" state="M"/>
    <connection from=":gneJ1_0" to="gneE1" fromLane="0" toLane="0" dir="r" state="M"/>
    <connection from=":gneJ2_0" to="gneE2" fromLane="0" toLane="0" dir="s" state="M"/>
    <connection from=":gneJ3_0" to="gneE3" fromLane="0" toLane="0" dir="r" state="M"/>
    <connection from=":gneJ4_0" to="gneE4" fromLane="0" toLane="0" dir="s" state="M"/>
    <connection from=":gneJ5_0" to="gneE5" fromLane="0" toLane="0" dir="r" state="M"/>
    <connection from=":gneJ6_0" to="gneE6" fromLane="0" toLane="0" dir="s" state="M"/>
    <connection from=":gneJ7_0" to="gneE7" fromLane="0" toLane="0" dir="r" state="M"/>

</net>
