<?xml version="1.0" encoding="UTF-8"?>

<!-- generated on 2023-10-24 13:50:21 by Eclipse SUMO netedit Version v1_18_0+2229-87101adba1e
<configuration xmlns:xsi="http://www.w3.org/2001/XMLSchema-instance" xsi:noNamespaceSchemaLocation="http://sumo.dlr.de/xsd/neteditConfiguration.xsd">

    <input>
        <sumo-net-file value="C:\Users\alva_pa\.texttest\tmp\netedit.gui.24Oct134051.22444\netedit.gui\netelements\junctions\create\circular\netedit.net.xml"/>
    </input>

    <output>
        <output-file value="C:\Users\alva_pa\.texttest\tmp\netedit.gui.24Oct134051.22444\netedit.gui\netelements\junctions\create\circular\netedit.net.xml"/>
    </output>

    <netedit>
        <new-network value="false"/>
        <ignore-supermode-question value="true"/>
    </netedit>

    <visualisation>
        <gui-settings-file value="C:\Users\alva_pa\.texttest\tmp\netedit.gui.24Oct134051.22444\netedit.gui\netelements\junctions\create\circular\gui-settings.xml"/>
        <window-size value="1280, 720"/>
        <window-pos value="50,50"/>
        <gui-testing value="true"/>
        <gui-testing.setting-output value="C:\Users\alva_pa\.texttest\tmp\netedit.gui.24Oct134051.22444\netedit.gui\netelements\junctions\create\circular\guisettingsoutput.xml"/>
    </visualisation>

    <report>
        <no-warnings value="true"/>
        <error-log value="C:\Users\alva_pa\.texttest\tmp\netedit.gui.24Oct134051.22444\netedit.gui\netelements\junctions\create\circular\log.txt"/>
    </report>

</configuration>
-->

<net version="1.16" junctionCornerDetail="5" limitTurnSpeed="5.50" xmlns:xsi="http://www.w3.org/2001/XMLSchema-instance" xsi:noNamespaceSchemaLocation="http://sumo.dlr.de/xsd/net_file.xsd">

    <location netOffset="0.00,0.00" convBoundary="-20.00,30.00,20.00,70.00" origBoundary="10000000000.00,10000000000.00,-10000000000.00,-10000000000.00" projParameter="!"/>

    <edge id=":J0_0" function="internal">
        <lane id=":J0_0_0" index="0" speed="3.90" length="2.58" shape="-18.40,66.80 -18.30,67.50 -18.00,68.00 -17.50,68.30 -16.80,68.40"/>
    </edge>

    <edge id="E0" from="J0" to="J1" priority="-1">
        <lane id="E0_0" index="0" speed="13.89" length="16.80" shape="-16.80,68.40 0.00,68.40"/>
    </edge>
    <edge id="E1" from="J1" to="J2" priority="-1">
        <lane id="E1_0" index="0" speed="13.89" length="16.80" shape="0.00,68.40 16.80,68.40"/>
    </edge>
    <edge id="E2" from="J2" to="J3" priority="-1">
        <lane id="E2_0" index="0" speed="13.89" length="16.80" shape="18.40,66.80 18.40,50.00"/>
    </edge>
    <edge id="E3" from="J3" to="J4" priority="-1">
        <lane id="E3_0" index="0" speed="13.89" length="16.80" shape="18.40,50.00 18.40,33.20"/>
    </edge>
    <edge id="E4" from="J4" to="J5" priority="-1">
        <lane id="E4_0" index="0" speed="13.89" length="16.80" shape="16.80,31.60 0.00,31.60"/>
    </edge>
    <edge id="E5" from="J5" to="J6" priority="-1">
        <lane id="E5_0" index="0" speed="13.89" length="16.80" shape="0.00,31.60 -16.80,31.60"/>
    </edge>
    <edge id="E6" from="J6" to="J7" priority="-1">
        <lane id="E6_0" index="0" speed="13.89" length="16.80" shape="-18.40,33.20 -18.40,50.00"/>
    </edge>
    <edge id="E7" from="J7" to="J0" priority="-1">
        <lane id="E7_0" index="0" speed="13.89" length="16.80" shape="-18.40,50.00 -18.40,66.80"/>
    </edge>

    <junction id="J0" type="priority" x="-20.00" y="70.00" incLanes="E7_0" intLanes=":J0_0_0" shape="-16.80,70.00 -16.80,66.80 -20.00,66.80 -19.64,68.58 -19.20,69.20 -18.58,69.64 -17.78,69.91">
        <request index="0" response="0" foes="0" cont="0"/>
    </junction>
    <junction id="J1" type="dead_end" x="0.00" y="70.00" incLanes="E0_0" intLanes="" shape="0.00,70.00 0.00,66.80 0.00,70.00"/>
    <junction id="J2" type="dead_end" x="20.00" y="70.00" incLanes="E1_0" intLanes="" shape="20.00,66.80 16.80,66.80 16.80,70.00 18.58,69.64 19.20,69.20 19.64,68.58 19.91,67.78"/>
    <junction id="J3" type="dead_end" x="20.00" y="50.00" incLanes="E2_0" intLanes="" shape="16.80,50.00 20.00,50.00 16.80,50.00"/>
    <junction id="J4" type="dead_end" x="20.00" y="30.00" incLanes="E3_0" intLanes="" shape="16.80,33.20 20.00,33.20 19.64,31.42 19.20,30.80 18.58,30.36 17.78,30.09 16.80,30.00"/>
    <junction id="J5" type="dead_end" x="0.00" y="30.00" incLanes="E4_0" intLanes="" shape="0.00,33.20 0.00,30.00 0.00,33.20"/>
    <junction id="J6" type="dead_end" x="-20.00" y="30.00" incLanes="E5_0" intLanes="" shape="-20.00,33.20 -16.80,33.20 -16.80,30.00 -18.58,30.36 -19.20,30.80 -19.64,31.42 -19.91,32.22"/>
    <junction id="J7" type="dead_end" x="-20.00" y="50.00" incLanes="E6_0" intLanes="" shape="-20.00,50.00 -16.80,50.00 -20.00,50.00"/>

    <connection from="E7" to="E0" fromLane="0" toLane="0" via=":J0_0_0" dir="r" state="M"/>

    <connection from=":J0_0" to="E0" fromLane="0" toLane="0" dir="r" state="M"/>

</net>
