<?xml version="1.0" encoding="UTF-8"?>

<!-- generated on Di 06 Okt 2020 11:11:24 CEST by Eclipse SUMO netedit Version v1_7_0+0506-2aef21830c
<configuration xmlns:xsi="http://www.w3.org/2001/XMLSchema-instance" xsi:noNamespaceSchemaLocation="http://sumo.dlr.de/xsd/netconvertConfiguration.xsd">

    <input>
        <sumo-net-file value="/home/kobo/dlr/sumo/tests/sumo/basic/person/trainStop_access_car/net.net.xml"/>
    </input>

    <output>
        <output-file value="/home/kobo/dlr/sumo/tests/sumo/basic/person/trainStop_access_car/net.net.xml"/>
    </output>

    <processing>
        <geometry.min-radius.fix.railways value="false"/>
        <geometry.max-grade.fix value="false"/>
        <offset.disable-normalization value="true"/>
        <lefthand value="false"/>
    </processing>

    <junctions>
        <no-internal-links value="true"/>
        <no-turnarounds value="true"/>
        <junctions.corner-detail value="5"/>
        <junctions.limit-turn-speed value="5.5"/>
        <rectangular-lane-cut value="false"/>
    </junctions>

    <pedestrian>
        <walkingareas value="false"/>
    </pedestrian>

    <report>
        <aggregate-warnings value="5"/>
    </report>

</configuration>
-->

<net version="1.6" junctionCornerDetail="5" limitTurnSpeed="5.50" xmlns:xsi="http://www.w3.org/2001/XMLSchema-instance" xsi:noNamespaceSchemaLocation="http://sumo.dlr.de/xsd/net_file.xsd">

    <location netOffset="0.00,0.00" convBoundary="-200.00,-25.00,300.00,0.00" origBoundary="-10000000000.00,-10000000000.00,10000000000.00,10000000000.00" projParameter="!"/>

    <edge id="a" from="gneJ0" to="gneJ1" priority="-1">
        <lane id="a_0" index="0" allow="rail" speed="13.89" length="500.00" shape="-200.00,-1.60 300.00,-1.60"/>
    </edge>
    <edge id="b" from="gneJ2" to="gneJ6" priority="-1">
        <lane id="b_0" index="0" speed="13.89" length="200.00" shape="-200.00,-26.60 0.00,-26.60"/>
    </edge>
    <edge id="c" from="gneJ6" to="gneJ4" priority="-1">
        <lane id="c_0" index="0" speed="13.89" length="200.00" shape="0.00,-26.60 200.00,-26.60"/>
    </edge>
    <edge id="d" from="gneJ4" to="gneJ5" priority="-1">
        <lane id="d_0" index="0" speed="13.89" length="100.00" shape="200.00,-26.60 300.00,-26.60"/>
    </edge>

    <junction id="gneJ0" type="dead_end" x="-200.00" y="0.00" incLanes="" intLanes="" shape="-200.00,0.00 -200.00,-3.20"/>
    <junction id="gneJ1" type="dead_end" x="300.00" y="0.00" incLanes="a_0" intLanes="" shape="300.00,-3.20 300.00,0.00"/>
    <junction id="gneJ2" type="dead_end" x="-200.00" y="-25.00" incLanes="" intLanes="" shape="-200.00,-25.00 -200.00,-28.20"/>
    <junction id="gneJ4" type="priority" x="200.00" y="-25.00" incLanes="c_0" intLanes="" shape="200.00,-25.00 200.00,-28.20 200.00,-25.00">
        <request index="0" response="0" foes="0"/>
    </junction>
    <junction id="gneJ5" type="dead_end" x="300.00" y="-25.00" incLanes="d_0" intLanes="" shape="300.00,-28.20 300.00,-25.00"/>
    <junction id="gneJ6" type="priority" x="0.00" y="-25.00" incLanes="b_0" intLanes="" shape="0.00,-25.00 0.00,-28.20 0.00,-25.00">
        <request index="0" response="0" foes="0"/>
    </junction>

    <connection from="b" to="c" fromLane="0" toLane="0" dir="s" state="M"/>
    <connection from="c" to="d" fromLane="0" toLane="0" dir="s" state="M"/>

</net>
