<?xml version="1.0" encoding="UTF-8"?>

<!-- generated on 2021-06-15 13:37:40 by Eclipse SUMO netedit Version v1_9_2+0562-734b028973
-->

<additional xmlns:xsi="http://www.w3.org/2001/XMLSchema-instance" xsi:noNamespaceSchemaLocation="http://sumo.dlr.de/xsd/additional_file.xsd">
    <e1Detector id="e1_0" lane="gneE0_0" pos="33.00" freq="300.00" file="e1_0.xml" vTypes="private passenger taxi bus"/>
</additional>
