<?xml version="1.0" encoding="UTF-8"?>

<!-- generated on Sun Nov 17 21:05:21 2019 by Eclipse SUMO netconvert Version v1_3_1+0919-acc73e0114
This data file and the accompanying materials
are made available under the terms of the Eclipse Public License v2.0
which accompanies this distribution, and is available at
http://www.eclipse.org/legal/epl-v20.html
SPDX-License-Identifier: EPL-2.0
<configuration xmlns:xsi="http://www.w3.org/2001/XMLSchema-instance" xsi:noNamespaceSchemaLocation="http://sumo.dlr.de/xsd/netconvertConfiguration.xsd">

    <input>
        <node-files value="input_plain.nod.xml"/>
        <edge-files value="input_plain.edg.xml"/>
        <connection-files value="input_plain.con.xml"/>
    </input>

    <output>
        <write-license value="true"/>
        <output-file value="net2.net.xml"/>
        <plain-output-prefix value="input_plain"/>
    </output>

    <processing>
        <offset.x value="150"/>
    </processing>

    <junctions>
        <no-turnarounds value="true"/>
    </junctions>

    <report>
        <xml-validation value="never"/>
    </report>

</configuration>
-->

<connections version="1.3" xmlns:xsi="http://www.w3.org/2001/XMLSchema-instance" xsi:noNamespaceSchemaLocation="http://sumo.dlr.de/xsd/connections_file.xsd">
    <connection from="CE"/>

    <connection from="CN"/>

    <connection from="CS"/>

    <connection from="CW"/>

    <connection from="EC" to="CN" fromLane="2" toLane="2"/>
    <connection from="EC" to="CW" fromLane="2" toLane="2"/>
    <connection from="EC" to="CW" fromLane="3" toLane="3"/>
    <connection from="EC" to="CS" fromLane="3" toLane="3"/>

    <connection from="NC" to="CW" fromLane="2" toLane="2"/>
    <connection from="NC" to="CS" fromLane="2" toLane="2"/>
    <connection from="NC" to="CS" fromLane="3" toLane="3"/>
    <connection from="NC" to="CE" fromLane="3" toLane="3"/>

    <connection from="SC" to="CE" fromLane="2" toLane="2"/>
    <connection from="SC" to="CN" fromLane="2" toLane="2"/>
    <connection from="SC" to="CN" fromLane="3" toLane="3"/>
    <connection from="SC" to="CW" fromLane="3" toLane="3"/>

    <connection from="WC" to="CS" fromLane="2" toLane="2"/>
    <connection from="WC" to="CE" fromLane="2" toLane="2"/>
    <connection from="WC" to="CE" fromLane="3" toLane="3"/>
    <connection from="WC" to="CN" fromLane="3" toLane="3"/>

    <crossing node="C" edges="CS SC" priority="1" width="4.50" shape="243.45,89.50 250.00,95.00 256.55,89.50"/>
</connections>
