<?xml version="1.0" encoding="UTF-8"?>

<!-- generated on Mon Feb 17 15:30:49 2020 by Eclipse SUMO netconvert Version v1_5_0+0130-ceb0a01
This data file and the accompanying materials
are made available under the terms of the Eclipse Public License v2.0
which accompanies this distribution, and is available at
http://www.eclipse.org/legal/epl-v20.html
SPDX-License-Identifier: EPL-2.0
<configuration xmlns:xsi="http://www.w3.org/2001/XMLSchema-instance" xsi:noNamespaceSchemaLocation="http://sumo.dlr.de/xsd/netconvertConfiguration.xsd">

    <input>
        <node-files value="input_nodes.nod.xml"/>
        <edge-files value="input_edges.edg.xml"/>
    </input>

    <output>
        <write-license value="true"/>
        <output-file value="net.net.xml"/>
    </output>

    <processing>
        <geometry.remove value="true"/>
    </processing>

    <junctions>
        <no-internal-links value="true"/>
    </junctions>

    <report>
        <xml-validation value="never"/>
        <aggregate-warnings value="5"/>
    </report>

</configuration>
-->

<net version="1.6" junctionCornerDetail="5" limitTurnSpeed="5.50" xmlns:xsi="http://www.w3.org/2001/XMLSchema-instance" xsi:noNamespaceSchemaLocation="http://sumo.dlr.de/xsd/net_file.xsd">

    <location netOffset="0.00,0.00" convBoundary="0.00,0.00,100.00,0.00" origBoundary="0.00,0.00,100.00,0.00" projParameter="!"/>

    <edge id="1" from="0" to="1.20" priority="-1">
        <lane id="1_0" index="0" speed="13.89" length="20.00" shape="0.00,-8.00 20.00,-8.00"/>
        <lane id="1_1" index="1" speed="13.89" length="20.00" shape="0.00,-4.80 20.00,-4.80"/>
        <lane id="1_2" index="2" speed="13.89" length="20.00" shape="0.00,-1.60 20.00,-1.60"/>
    </edge>
    <edge id="1.20" from="1.20" to="1" priority="-1">
        <lane id="1.20_0" index="0" speed="13.89" length="80.00" shape="20.00,-8.00 100.00,-8.00"/>
        <lane id="1.20_1" index="1" speed="13.89" length="80.00" shape="20.00,-4.80 100.00,-4.80"/>
        <lane id="1.20_2" index="2" speed="13.89" length="80.00" shape="20.00,-1.60 100.00,-1.60"/>
    </edge>

    <tlLogic id="foo" type="static" programID="0" offset="0">
        <phase duration="82" state="GGG"/>
        <phase duration="3"  state="yyy"/>
        <phase duration="5"  state="rrr"/>
    </tlLogic>

    <junction id="0" type="dead_end" x="0.00" y="0.00" incLanes="" intLanes="" shape="0.00,0.00 0.00,-9.60"/>
    <junction id="1" type="dead_end" x="100.00" y="0.00" incLanes="1.20_0 1.20_1 1.20_2" intLanes="" shape="100.00,-9.60 100.00,0.00"/>
    <junction id="1.20" type="traffic_light" x="20.00" y="0.00" incLanes="1_0 1_1 1_2" intLanes="" shape="20.00,0.00 20.00,-9.60 20.00,0.00">
        <request index="0" response="000" foes="000"/>
        <request index="1" response="000" foes="000"/>
        <request index="2" response="000" foes="000"/>
    </junction>

    <connection from="1" to="1.20" fromLane="0" toLane="0" tl="foo" linkIndex="0" dir="s" state="O"/>
    <connection from="1" to="1.20" fromLane="1" toLane="1" tl="foo" linkIndex="1" dir="s" state="O"/>
    <connection from="1" to="1.20" fromLane="2" toLane="2" tl="foo" linkIndex="2" dir="s" state="O"/>

</net>
