<?xml version="1.0" encoding="UTF-8"?>

<!-- generated on 2022-03-07 09:59:58 by Eclipse SUMO netedit Version v1_12_0+1177-f6b46b7e4a3
-->

<routes xmlns:xsi="http://www.w3.org/2001/XMLSchema-instance" xsi:noNamespaceSchemaLocation="http://sumo.dlr.de/xsd/routes_file.xsd">
    <!-- Routes -->
    <route id="route_0" edges="gneE2 gneE4" color="yellow">
        <stop busStop="busStopC" duration="60.00" speed="10.00"/>
        <stop busStop="busStopD" duration="60.00" speed="10.00"/>
        <stop busStop="busStopE" duration="60.00" speed="10.00"/>
        <stop busStop="busStopF" duration="60.00" speed="10.00"/>
        <stop busStop="busStopG" duration="60.00" speed="10.00"/>
        <stop busStop="busStopH" duration="60.00" speed="10.00"/>
    </route>
    <route id="route_1" edges="gneE0 gneE1" color="yellow">
        <stop busStop="busStopA" duration="60.00" speed="10.00"/>
        <stop busStop="busStopB" duration="60.00" speed="10.00"/>
    </route>
</routes>
