<?xml version="1.0" encoding="UTF-8"?>

<!-- generated on 18.07.2019 09:40:13 by Eclipse SUMO netedit Version v1_2_0+1263-0633f390a4
<configuration xmlns:xsi="http://www.w3.org/2001/XMLSchema-instance" xsi:noNamespaceSchemaLocation="http://sumo.dlr.de/xsd/netconvertConfiguration.xsd">

    <input>
        <sumo-net-file value="C:/Users/SUMO-Test/.texttest/tmp/netedit.gui.18Jul093945.8380/netedit.gui/demandElements/route/inspect_selection/color\input_net.net.xml"/>
    </input>

    <output>
        <output-file value="C:/Users/SUMO-Test/.texttest/tmp/netedit.gui.18Jul093945.8380/netedit.gui/demandElements/route/inspect_selection/color\net.net.xml"/>
    </output>

    <processing>
        <geometry.max-grade.fix value="false"/>
        <offset.disable-normalization value="true"/>
        <lefthand value="false"/>
    </processing>

    <junctions>
        <no-turnarounds value="true"/>
        <junctions.corner-detail value="5"/>
        <junctions.limit-turn-speed value="5.5"/>
        <rectangular-lane-cut value="false"/>
    </junctions>

    <pedestrian>
        <walkingareas value="false"/>
    </pedestrian>

    <netedit>
        <additional-files value="C:/Users/SUMO-Test/.texttest/tmp/netedit.gui.18Jul093945.8380/netedit.gui/demandElements/route/inspect_selection/color\additionals.xml"/>
        <additionals-output value="C:/Users/SUMO-Test/.texttest/tmp/netedit.gui.18Jul093945.8380/netedit.gui/demandElements/route/inspect_selection/color\additionals.xml"/>
        <route-files value="C:/Users/SUMO-Test/.texttest/tmp/netedit.gui.18Jul093945.8380/netedit.gui/demandElements/route/inspect_selection/color\routes.xml"/>
        <demandelements-output value="C:/Users/SUMO-Test/.texttest/tmp/netedit.gui.18Jul093945.8380/netedit.gui/demandElements/route/inspect_selection/color\routes.xml"/>
    </netedit>

    <visualisation>
        <window-size value="700,500"/>
        <window-pos value="50,50"/>
        <gui-testing value="true"/>
        <gui-testing-debug value="true"/>
        <gui-testing-debug-gl value="true"/>
    </visualisation>

    <report>
        <no-warnings value="true"/>
        <error-log value="C:/Users/SUMO-Test/.texttest/tmp/netedit.gui.18Jul093945.8380/netedit.gui/demandElements/route/inspect_selection/color\log.txt"/>
    </report>

</configuration>
-->

<routes xmlns:xsi="http://www.w3.org/2001/XMLSchema-instance" xsi:noNamespaceSchemaLocation="http://sumo.dlr.de/xsd/routes_file.xsd">
    <route edges="gneE2 gneE4" color="red" id="route_0"/>
    <route edges="gneE7" color="red" id="route_1"/>
</routes>
