<?xml version="1.0"?>
<routes xmlns:xsi="http://www.w3.org/2001/XMLSchema-instance" xsi:noNamespaceSchemaLocation="http://sumo.dlr.de/xsd/routes_file.xsd">

    <vType id="test" vClass="ignoring"/>
    <vehicle id="0" type="test" depart="0">
        <route edges="absBeg beg2left left middle absEnd"/>
        <stop lane="absBeg_0" endPos="50" duration="10"/>
        <stop lane="middle_" endPos="50" duration="10"/>
    </vehicle>
</routes>
