<?xml version="1.0" encoding="UTF-8"?>

<!-- generated on 31.08.2020 12:23:32 by Eclipse SUMO netedit Version v1_6_0+1846-6906545bff
<configuration xmlns:xsi="http://www.w3.org/2001/XMLSchema-instance" xsi:noNamespaceSchemaLocation="http://sumo.dlr.de/xsd/netconvertConfiguration.xsd">

    <input>
        <sumo-net-file value="C:\Users\alva_pa\.texttest\tmp\netedit.gui.31Aug122131.11864\netedit.gui\additionalElements\e2MultiLaneDetector\load\freq\input_net.net.xml"/>
    </input>

    <output>
        <output-file value="C:\Users\alva_pa\.texttest\tmp\netedit.gui.31Aug122131.11864\netedit.gui\additionalElements\e2MultiLaneDetector\load\freq\net.net.xml"/>
    </output>

    <processing>
        <geometry.min-radius.fix.railways value="false"/>
        <geometry.max-grade.fix value="false"/>
        <offset.disable-normalization value="true"/>
        <lefthand value="false"/>
    </processing>

    <junctions>
        <no-turnarounds value="true"/>
        <junctions.corner-detail value="5"/>
        <junctions.limit-turn-speed value="5.5"/>
        <rectangular-lane-cut value="false"/>
    </junctions>

    <pedestrian>
        <walkingareas value="false"/>
    </pedestrian>

    <netedit>
        <additional-files value="C:\Users\alva_pa\.texttest\tmp\netedit.gui.31Aug122131.11864\netedit.gui\additionalElements\e2MultiLaneDetector\load\freq\additionals.xml"/>
        <additionals-output value="C:\Users\alva_pa\.texttest\tmp\netedit.gui.31Aug122131.11864\netedit.gui\additionalElements\e2MultiLaneDetector\load\freq\additionals.xml"/>
        <route-files value="C:\Users\alva_pa\.texttest\tmp\netedit.gui.31Aug122131.11864\netedit.gui\additionalElements\e2MultiLaneDetector\load\freq\routes.xml"/>
        <demandelements-output value="C:\Users\alva_pa\.texttest\tmp\netedit.gui.31Aug122131.11864\netedit.gui\additionalElements\e2MultiLaneDetector\load\freq\routes.xml"/>
        <data-files value="C:\Users\alva_pa\.texttest\tmp\netedit.gui.31Aug122131.11864\netedit.gui\additionalElements\e2MultiLaneDetector\load\freq\datas.xml"/>
        <dataelements-output value="C:\Users\alva_pa\.texttest\tmp\netedit.gui.31Aug122131.11864\netedit.gui\additionalElements\e2MultiLaneDetector\load\freq\datas.xml"/>
    </netedit>

    <visualisation>
        <gui-settings-file value="C:\Users\alva_pa\.texttest\tmp\netedit.gui.31Aug122131.11864\netedit.gui\additionalElements\e2MultiLaneDetector\load\freq\gui-settings.xml"/>
        <window-size value="700,500"/>
        <window-pos value="50,50"/>
        <gui-testing value="true"/>
        <gui-testing-debug value="true"/>
        <gui-testing-debug-gl value="true"/>
        <gui-testing.setting-output value="C:\Users\alva_pa\.texttest\tmp\netedit.gui.31Aug122131.11864\netedit.gui\additionalElements\e2MultiLaneDetector\load\freq\guisettingsoutput.xml"/>
    </visualisation>

    <report>
        <no-warnings value="true"/>
        <aggregate-warnings value="5"/>
        <error-log value="C:\Users\alva_pa\.texttest\tmp\netedit.gui.31Aug122131.11864\netedit.gui\additionalElements\e2MultiLaneDetector\load\freq\log.txt"/>
    </report>

</configuration>
-->

<additional xmlns:xsi="http://www.w3.org/2001/XMLSchema-instance" xsi:noNamespaceSchemaLocation="http://sumo.dlr.de/xsd/additional_file.xsd">
    <e2Detector id="e2MultilaneDetector_0" lanes="gneE2_0 gneE3_0" pos="15.00" endPos="15.00" freq="900.00" file="e2MultilaneDetector_0.xml"/>
    <e2Detector id="e2MultilaneDetector_1" lanes="gneE2_0 gneE3_0" pos="15.00" endPos="15.00" freq="dummyFreq" file="e2MultilaneDetector_1.xml"/>
    <e2Detector id="e2MultilaneDetector_2" lanes="gneE2_0 gneE3_0" pos="15.00" endPos="15.00" freq="-50" file="e2MultilaneDetector_2.xml"/>
    <e2Detector id="e2MultilaneDetector_3" lanes="gneE2_0 gneE3_0" pos="15.00" endPos="15.00" freq="12.5" file="e2MultilaneDetector_3.xml"/>
</additional>
