<?xml version="1.0" encoding="UTF-8"?>

<!-- generated on Mon Mar  3 10:28:04 2014 by SUMO sumo Version dev-SVN-r15793
<?xml version="1.0" encoding="UTF-8"?>

<configuration xmlns:xsi="http://www.w3.org/2001/XMLSchema-instance" xsi:noNamespaceSchemaLocation="http://sumo-sim.org/xsd/sumoConfiguration.xsd">

    <input>
        <net-file value="net.net.xml"/>
        <additional-files value="input_additional.add.xml,input_routes.rou.xml,input_additional2.add.xml"/>
    </input>

    <time>
        <begin value="0"/>
        <end value="130"/>
        <step-length value="0.1"/>
    </time>

    <report>
        <xml-validation value="never"/>
        <no-duration-log value="true"/>
        <no-step-log value="true"/>
    </report>

</configuration>
-->

<vehicle-type-probes>
    <timestep time="0.00" id="test1" vType="DEFAULT_VEHTYPE">
        <vehicle id="0" lane="4/1to3/1_0" pos="100.00" x="1495.25" y="401.65" speed="10.00"/>
    </timestep>
    <timestep time="0.10" id="test1" vType="DEFAULT_VEHTYPE">
        <vehicle id="0" lane="4/1to3/1_0" pos="101.00" x="1494.25" y="401.65" speed="10.00"/>
    </timestep>
    <timestep time="0.20" id="test1" vType="DEFAULT_VEHTYPE">
        <vehicle id="0" lane="4/1to3/1_0" pos="102.00" x="1493.25" y="401.65" speed="10.00"/>
    </timestep>
    <timestep time="0.30" id="test1" vType="DEFAULT_VEHTYPE">
        <vehicle id="0" lane="4/1to3/1_0" pos="103.00" x="1492.25" y="401.65" speed="10.00"/>
    </timestep>
    <timestep time="0.40" id="test1" vType="DEFAULT_VEHTYPE">
        <vehicle id="0" lane="4/1to3/1_0" pos="104.00" x="1491.25" y="401.65" speed="10.00"/>
    </timestep>
    <timestep time="0.50" id="test1" vType="DEFAULT_VEHTYPE">
        <vehicle id="0" lane="4/1to3/1_0" pos="105.00" x="1490.25" y="401.65" speed="10.00"/>
    </timestep>
    <timestep time="0.60" id="test1" vType="DEFAULT_VEHTYPE">
        <vehicle id="0" lane="4/1to3/1_0" pos="106.00" x="1489.25" y="401.65" speed="10.00"/>
    </timestep>
    <timestep time="0.70" id="test1" vType="DEFAULT_VEHTYPE">
        <vehicle id="0" lane="4/1to3/1_0" pos="107.00" x="1488.25" y="401.65" speed="10.00"/>
    </timestep>
    <timestep time="0.80" id="test1" vType="DEFAULT_VEHTYPE">
        <vehicle id="0" lane="4/1to3/1_0" pos="108.00" x="1487.25" y="401.65" speed="10.00"/>
    </timestep>
    <timestep time="0.90" id="test1" vType="DEFAULT_VEHTYPE">
        <vehicle id="0" lane="4/1to3/1_0" pos="109.00" x="1486.25" y="401.65" speed="10.00"/>
    </timestep>
    <timestep time="1.00" id="test1" vType="DEFAULT_VEHTYPE">
        <vehicle id="0" lane="4/1to3/1_0" pos="110.00" x="1485.25" y="401.65" speed="10.00"/>
    </timestep>
    <timestep time="1.10" id="test1" vType="DEFAULT_VEHTYPE">
        <vehicle id="0" lane="4/1to3/1_0" pos="111.00" x="1484.25" y="401.65" speed="10.00"/>
    </timestep>
    <timestep time="1.20" id="test1" vType="DEFAULT_VEHTYPE">
        <vehicle id="0" lane="4/1to3/1_0" pos="112.00" x="1483.25" y="401.65" speed="10.00"/>
    </timestep>
    <timestep time="1.30" id="test1" vType="DEFAULT_VEHTYPE">
        <vehicle id="0" lane="4/1to3/1_0" pos="113.00" x="1482.25" y="401.65" speed="10.00"/>
    </timestep>
    <timestep time="1.40" id="test1" vType="DEFAULT_VEHTYPE">
        <vehicle id="0" lane="4/1to3/1_0" pos="114.00" x="1481.25" y="401.65" speed="10.00"/>
    </timestep>
    <timestep time="1.50" id="test1" vType="DEFAULT_VEHTYPE">
        <vehicle id="0" lane="4/1to3/1_0" pos="115.00" x="1480.25" y="401.65" speed="10.00"/>
    </timestep>
    <timestep time="1.60" id="test1" vType="DEFAULT_VEHTYPE">
        <vehicle id="0" lane="4/1to3/1_0" pos="116.00" x="1479.25" y="401.65" speed="10.00"/>
    </timestep>
    <timestep time="1.70" id="test1" vType="DEFAULT_VEHTYPE">
        <vehicle id="0" lane="4/1to3/1_0" pos="117.00" x="1478.25" y="401.65" speed="10.00"/>
    </timestep>
    <timestep time="1.80" id="test1" vType="DEFAULT_VEHTYPE">
        <vehicle id="0" lane="4/1to3/1_0" pos="118.00" x="1477.25" y="401.65" speed="10.00"/>
    </timestep>
    <timestep time="1.90" id="test1" vType="DEFAULT_VEHTYPE">
        <vehicle id="0" lane="4/1to3/1_0" pos="119.00" x="1476.25" y="401.65" speed="10.00"/>
    </timestep>
    <timestep time="2.00" id="test1" vType="DEFAULT_VEHTYPE">
        <vehicle id="0" lane="4/1to3/1_0" pos="120.00" x="1475.25" y="401.65" speed="10.00"/>
    </timestep>
    <timestep time="2.10" id="test1" vType="DEFAULT_VEHTYPE">
        <vehicle id="0" lane="4/1to3/1_0" pos="121.00" x="1474.25" y="401.65" speed="10.00"/>
    </timestep>
    <timestep time="2.20" id="test1" vType="DEFAULT_VEHTYPE">
        <vehicle id="0" lane="4/1to3/1_0" pos="122.00" x="1473.25" y="401.65" speed="10.00"/>
    </timestep>
    <timestep time="2.30" id="test1" vType="DEFAULT_VEHTYPE">
        <vehicle id="0" lane="4/1to3/1_0" pos="123.00" x="1472.25" y="401.65" speed="10.00"/>
    </timestep>
    <timestep time="2.40" id="test1" vType="DEFAULT_VEHTYPE">
        <vehicle id="0" lane="4/1to3/1_0" pos="124.00" x="1471.25" y="401.65" speed="10.00"/>
    </timestep>
    <timestep time="2.50" id="test1" vType="DEFAULT_VEHTYPE">
        <vehicle id="0" lane="4/1to3/1_0" pos="125.00" x="1470.25" y="401.65" speed="10.00"/>
    </timestep>
    <timestep time="2.60" id="test1" vType="DEFAULT_VEHTYPE">
        <vehicle id="0" lane="4/1to3/1_0" pos="126.00" x="1469.25" y="401.65" speed="10.00"/>
    </timestep>
    <timestep time="2.70" id="test1" vType="DEFAULT_VEHTYPE">
        <vehicle id="0" lane="4/1to3/1_0" pos="127.00" x="1468.25" y="401.65" speed="10.00"/>
    </timestep>
    <timestep time="2.80" id="test1" vType="DEFAULT_VEHTYPE">
        <vehicle id="0" lane="4/1to3/1_0" pos="128.00" x="1467.25" y="401.65" speed="10.00"/>
    </timestep>
    <timestep time="2.90" id="test1" vType="DEFAULT_VEHTYPE">
        <vehicle id="0" lane="4/1to3/1_0" pos="129.00" x="1466.25" y="401.65" speed="10.00"/>
    </timestep>
    <timestep time="3.00" id="test1" vType="DEFAULT_VEHTYPE">
        <vehicle id="0" lane="4/1to3/1_0" pos="130.00" x="1465.25" y="401.65" speed="10.00"/>
    </timestep>
    <timestep time="3.10" id="test1" vType="DEFAULT_VEHTYPE">
        <vehicle id="0" lane="4/1to3/1_0" pos="131.00" x="1464.25" y="401.65" speed="10.00"/>
    </timestep>
    <timestep time="3.20" id="test1" vType="DEFAULT_VEHTYPE">
        <vehicle id="0" lane="4/1to3/1_0" pos="132.00" x="1463.25" y="401.65" speed="10.00"/>
    </timestep>
    <timestep time="3.30" id="test1" vType="DEFAULT_VEHTYPE">
        <vehicle id="0" lane="4/1to3/1_0" pos="133.00" x="1462.25" y="401.65" speed="10.00"/>
    </timestep>
    <timestep time="3.40" id="test1" vType="DEFAULT_VEHTYPE">
        <vehicle id="0" lane="4/1to3/1_0" pos="134.00" x="1461.25" y="401.65" speed="10.00"/>
    </timestep>
    <timestep time="3.50" id="test1" vType="DEFAULT_VEHTYPE">
        <vehicle id="0" lane="4/1to3/1_0" pos="135.00" x="1460.25" y="401.65" speed="10.00"/>
    </timestep>
    <timestep time="3.60" id="test1" vType="DEFAULT_VEHTYPE">
        <vehicle id="0" lane="4/1to3/1_0" pos="136.00" x="1459.25" y="401.65" speed="10.00"/>
    </timestep>
    <timestep time="3.70" id="test1" vType="DEFAULT_VEHTYPE">
        <vehicle id="0" lane="4/1to3/1_0" pos="137.00" x="1458.25" y="401.65" speed="10.00"/>
    </timestep>
    <timestep time="3.80" id="test1" vType="DEFAULT_VEHTYPE">
        <vehicle id="0" lane="4/1to3/1_0" pos="138.00" x="1457.25" y="401.65" speed="10.00"/>
    </timestep>
    <timestep time="3.90" id="test1" vType="DEFAULT_VEHTYPE">
        <vehicle id="0" lane="4/1to3/1_0" pos="139.00" x="1456.25" y="401.65" speed="10.00"/>
    </timestep>
    <timestep time="4.00" id="test1" vType="DEFAULT_VEHTYPE">
        <vehicle id="0" lane="4/1to3/1_0" pos="140.00" x="1455.25" y="401.65" speed="10.00"/>
    </timestep>
    <timestep time="4.10" id="test1" vType="DEFAULT_VEHTYPE">
        <vehicle id="0" lane="4/1to3/1_0" pos="141.00" x="1454.25" y="401.65" speed="10.00"/>
    </timestep>
    <timestep time="4.20" id="test1" vType="DEFAULT_VEHTYPE">
        <vehicle id="0" lane="4/1to3/1_0" pos="142.00" x="1453.25" y="401.65" speed="10.00"/>
    </timestep>
    <timestep time="4.30" id="test1" vType="DEFAULT_VEHTYPE">
        <vehicle id="0" lane="4/1to3/1_0" pos="143.00" x="1452.25" y="401.65" speed="10.00"/>
    </timestep>
    <timestep time="4.40" id="test1" vType="DEFAULT_VEHTYPE">
        <vehicle id="0" lane="4/1to3/1_0" pos="144.00" x="1451.25" y="401.65" speed="10.00"/>
    </timestep>
    <timestep time="4.50" id="test1" vType="DEFAULT_VEHTYPE">
        <vehicle id="0" lane="4/1to3/1_0" pos="145.00" x="1450.25" y="401.65" speed="10.00"/>
    </timestep>
    <timestep time="4.60" id="test1" vType="DEFAULT_VEHTYPE">
        <vehicle id="0" lane="4/1to3/1_0" pos="146.00" x="1449.25" y="401.65" speed="10.00"/>
    </timestep>
    <timestep time="4.70" id="test1" vType="DEFAULT_VEHTYPE">
        <vehicle id="0" lane="4/1to3/1_0" pos="147.00" x="1448.25" y="401.65" speed="10.00"/>
    </timestep>
    <timestep time="4.80" id="test1" vType="DEFAULT_VEHTYPE">
        <vehicle id="0" lane="4/1to3/1_0" pos="148.00" x="1447.25" y="401.65" speed="10.00"/>
    </timestep>
    <timestep time="4.90" id="test1" vType="DEFAULT_VEHTYPE">
        <vehicle id="0" lane="4/1to3/1_0" pos="149.00" x="1446.25" y="401.65" speed="10.00"/>
    </timestep>
    <timestep time="5.00" id="test1" vType="DEFAULT_VEHTYPE">
        <vehicle id="0" lane="4/1to3/1_0" pos="150.00" x="1445.25" y="401.65" speed="10.00"/>
    </timestep>
    <timestep time="5.10" id="test1" vType="DEFAULT_VEHTYPE">
        <vehicle id="0" lane="4/1to3/1_0" pos="151.00" x="1444.25" y="401.65" speed="10.00"/>
    </timestep>
    <timestep time="5.20" id="test1" vType="DEFAULT_VEHTYPE">
        <vehicle id="0" lane="4/1to3/1_0" pos="152.00" x="1443.25" y="401.65" speed="10.00"/>
    </timestep>
    <timestep time="5.30" id="test1" vType="DEFAULT_VEHTYPE">
        <vehicle id="0" lane="4/1to3/1_0" pos="153.00" x="1442.25" y="401.65" speed="10.00"/>
    </timestep>
    <timestep time="5.40" id="test1" vType="DEFAULT_VEHTYPE">
        <vehicle id="0" lane="4/1to3/1_0" pos="154.00" x="1441.25" y="401.65" speed="10.00"/>
    </timestep>
    <timestep time="5.50" id="test1" vType="DEFAULT_VEHTYPE">
        <vehicle id="0" lane="4/1to3/1_0" pos="155.00" x="1440.25" y="401.65" speed="10.00"/>
    </timestep>
    <timestep time="5.60" id="test1" vType="DEFAULT_VEHTYPE">
        <vehicle id="0" lane="4/1to3/1_0" pos="156.00" x="1439.25" y="401.65" speed="10.00"/>
    </timestep>
    <timestep time="5.70" id="test1" vType="DEFAULT_VEHTYPE">
        <vehicle id="0" lane="4/1to3/1_0" pos="157.00" x="1438.25" y="401.65" speed="10.00"/>
    </timestep>
    <timestep time="5.80" id="test1" vType="DEFAULT_VEHTYPE">
        <vehicle id="0" lane="4/1to3/1_0" pos="158.00" x="1437.25" y="401.65" speed="10.00"/>
    </timestep>
    <timestep time="5.90" id="test1" vType="DEFAULT_VEHTYPE">
        <vehicle id="0" lane="4/1to3/1_0" pos="159.00" x="1436.25" y="401.65" speed="10.00"/>
    </timestep>
    <timestep time="6.00" id="test1" vType="DEFAULT_VEHTYPE">
        <vehicle id="0" lane="4/1to3/1_0" pos="160.00" x="1435.25" y="401.65" speed="10.00"/>
    </timestep>
    <timestep time="6.10" id="test1" vType="DEFAULT_VEHTYPE">
        <vehicle id="0" lane="4/1to3/1_0" pos="161.00" x="1434.25" y="401.65" speed="10.00"/>
    </timestep>
    <timestep time="6.20" id="test1" vType="DEFAULT_VEHTYPE">
        <vehicle id="0" lane="4/1to3/1_0" pos="162.00" x="1433.25" y="401.65" speed="10.00"/>
    </timestep>
    <timestep time="6.30" id="test1" vType="DEFAULT_VEHTYPE">
        <vehicle id="0" lane="4/1to3/1_0" pos="163.00" x="1432.25" y="401.65" speed="10.00"/>
    </timestep>
    <timestep time="6.40" id="test1" vType="DEFAULT_VEHTYPE">
        <vehicle id="0" lane="4/1to3/1_0" pos="164.00" x="1431.25" y="401.65" speed="10.00"/>
    </timestep>
    <timestep time="6.50" id="test1" vType="DEFAULT_VEHTYPE">
        <vehicle id="0" lane="4/1to3/1_0" pos="165.00" x="1430.25" y="401.65" speed="10.00"/>
    </timestep>
    <timestep time="6.60" id="test1" vType="DEFAULT_VEHTYPE">
        <vehicle id="0" lane="4/1to3/1_0" pos="166.00" x="1429.25" y="401.65" speed="10.00"/>
    </timestep>
    <timestep time="6.70" id="test1" vType="DEFAULT_VEHTYPE">
        <vehicle id="0" lane="4/1to3/1_0" pos="167.00" x="1428.25" y="401.65" speed="10.00"/>
    </timestep>
    <timestep time="6.80" id="test1" vType="DEFAULT_VEHTYPE">
        <vehicle id="0" lane="4/1to3/1_0" pos="168.00" x="1427.25" y="401.65" speed="10.00"/>
    </timestep>
    <timestep time="6.90" id="test1" vType="DEFAULT_VEHTYPE">
        <vehicle id="0" lane="4/1to3/1_0" pos="169.00" x="1426.25" y="401.65" speed="10.00"/>
    </timestep>
    <timestep time="7.00" id="test1" vType="DEFAULT_VEHTYPE">
        <vehicle id="0" lane="4/1to3/1_0" pos="170.00" x="1425.25" y="401.65" speed="10.00"/>
    </timestep>
    <timestep time="7.10" id="test1" vType="DEFAULT_VEHTYPE">
        <vehicle id="0" lane="4/1to3/1_0" pos="171.00" x="1424.25" y="401.65" speed="10.00"/>
    </timestep>
    <timestep time="7.20" id="test1" vType="DEFAULT_VEHTYPE">
        <vehicle id="0" lane="4/1to3/1_0" pos="172.00" x="1423.25" y="401.65" speed="10.00"/>
    </timestep>
    <timestep time="7.30" id="test1" vType="DEFAULT_VEHTYPE">
        <vehicle id="0" lane="4/1to3/1_0" pos="173.00" x="1422.25" y="401.65" speed="10.00"/>
    </timestep>
    <timestep time="7.40" id="test1" vType="DEFAULT_VEHTYPE">
        <vehicle id="0" lane="4/1to3/1_0" pos="174.00" x="1421.25" y="401.65" speed="10.00"/>
    </timestep>
    <timestep time="7.50" id="test1" vType="DEFAULT_VEHTYPE">
        <vehicle id="0" lane="4/1to3/1_0" pos="175.00" x="1420.25" y="401.65" speed="10.00"/>
    </timestep>
    <timestep time="7.60" id="test1" vType="DEFAULT_VEHTYPE">
        <vehicle id="0" lane="4/1to3/1_0" pos="176.00" x="1419.25" y="401.65" speed="10.00"/>
    </timestep>
    <timestep time="7.70" id="test1" vType="DEFAULT_VEHTYPE">
        <vehicle id="0" lane="4/1to3/1_0" pos="177.00" x="1418.25" y="401.65" speed="10.00"/>
    </timestep>
    <timestep time="7.80" id="test1" vType="DEFAULT_VEHTYPE">
        <vehicle id="0" lane="4/1to3/1_0" pos="178.00" x="1417.25" y="401.65" speed="10.00"/>
    </timestep>
    <timestep time="7.90" id="test1" vType="DEFAULT_VEHTYPE">
        <vehicle id="0" lane="4/1to3/1_0" pos="179.00" x="1416.25" y="401.65" speed="10.00"/>
    </timestep>
    <timestep time="8.00" id="test1" vType="DEFAULT_VEHTYPE">
        <vehicle id="0" lane="4/1to3/1_0" pos="180.00" x="1415.25" y="401.65" speed="10.00"/>
    </timestep>
    <timestep time="8.10" id="test1" vType="DEFAULT_VEHTYPE">
        <vehicle id="0" lane="4/1to3/1_0" pos="181.00" x="1414.25" y="401.65" speed="10.00"/>
    </timestep>
    <timestep time="8.20" id="test1" vType="DEFAULT_VEHTYPE">
        <vehicle id="0" lane="4/1to3/1_0" pos="182.00" x="1413.25" y="401.65" speed="10.00"/>
    </timestep>
    <timestep time="8.30" id="test1" vType="DEFAULT_VEHTYPE">
        <vehicle id="0" lane="4/1to3/1_0" pos="183.00" x="1412.25" y="401.65" speed="10.00"/>
    </timestep>
    <timestep time="8.40" id="test1" vType="DEFAULT_VEHTYPE">
        <vehicle id="0" lane="4/1to3/1_0" pos="184.00" x="1411.25" y="401.65" speed="10.00"/>
    </timestep>
    <timestep time="8.50" id="test1" vType="DEFAULT_VEHTYPE">
        <vehicle id="0" lane="4/1to3/1_0" pos="185.00" x="1410.25" y="401.65" speed="10.00"/>
    </timestep>
    <timestep time="8.60" id="test1" vType="DEFAULT_VEHTYPE">
        <vehicle id="0" lane="4/1to3/1_0" pos="186.00" x="1409.25" y="401.65" speed="10.00"/>
    </timestep>
    <timestep time="8.70" id="test1" vType="DEFAULT_VEHTYPE">
        <vehicle id="0" lane="4/1to3/1_0" pos="187.00" x="1408.25" y="401.65" speed="10.00"/>
    </timestep>
    <timestep time="8.80" id="test1" vType="DEFAULT_VEHTYPE">
        <vehicle id="0" lane="4/1to3/1_0" pos="188.00" x="1407.25" y="401.65" speed="10.00"/>
    </timestep>
    <timestep time="8.90" id="test1" vType="DEFAULT_VEHTYPE">
        <vehicle id="0" lane="4/1to3/1_0" pos="189.00" x="1406.25" y="401.65" speed="10.00"/>
    </timestep>
    <timestep time="9.00" id="test1" vType="DEFAULT_VEHTYPE">
        <vehicle id="0" lane="4/1to3/1_0" pos="190.00" x="1405.25" y="401.65" speed="10.00"/>
    </timestep>
    <timestep time="9.10" id="test1" vType="DEFAULT_VEHTYPE">
        <vehicle id="0" lane="4/1to3/1_0" pos="191.00" x="1404.25" y="401.65" speed="10.00"/>
    </timestep>
    <timestep time="9.20" id="test1" vType="DEFAULT_VEHTYPE">
        <vehicle id="0" lane="4/1to3/1_0" pos="192.00" x="1403.25" y="401.65" speed="10.00"/>
    </timestep>
    <timestep time="9.30" id="test1" vType="DEFAULT_VEHTYPE">
        <vehicle id="0" lane="4/1to3/1_0" pos="193.00" x="1402.25" y="401.65" speed="10.00"/>
    </timestep>
    <timestep time="9.40" id="test1" vType="DEFAULT_VEHTYPE">
        <vehicle id="0" lane="4/1to3/1_0" pos="194.00" x="1401.25" y="401.65" speed="10.00"/>
    </timestep>
    <timestep time="9.50" id="test1" vType="DEFAULT_VEHTYPE">
        <vehicle id="0" lane="4/1to3/1_0" pos="195.00" x="1400.25" y="401.65" speed="10.00"/>
    </timestep>
    <timestep time="9.60" id="test1" vType="DEFAULT_VEHTYPE">
        <vehicle id="0" lane="4/1to3/1_0" pos="196.00" x="1399.25" y="401.65" speed="10.00"/>
    </timestep>
    <timestep time="9.70" id="test1" vType="DEFAULT_VEHTYPE">
        <vehicle id="0" lane="4/1to3/1_0" pos="197.00" x="1398.25" y="401.65" speed="10.00"/>
    </timestep>
    <timestep time="9.80" id="test1" vType="DEFAULT_VEHTYPE">
        <vehicle id="0" lane="4/1to3/1_0" pos="198.00" x="1397.25" y="401.65" speed="10.00"/>
    </timestep>
    <timestep time="9.90" id="test1" vType="DEFAULT_VEHTYPE">
        <vehicle id="0" lane="4/1to3/1_0" pos="199.00" x="1396.25" y="401.65" speed="10.00"/>
    </timestep>
    <timestep time="10.00" id="test1" vType="DEFAULT_VEHTYPE">
        <vehicle id="0" lane="4/1to3/1_0" pos="200.00" x="1395.25" y="401.65" speed="10.00"/>
    </timestep>
    <timestep time="10.10" id="test1" vType="DEFAULT_VEHTYPE">
        <vehicle id="0" lane="4/1to3/1_0" pos="201.00" x="1394.25" y="401.65" speed="10.00"/>
    </timestep>
    <timestep time="10.20" id="test1" vType="DEFAULT_VEHTYPE">
        <vehicle id="0" lane="4/1to3/1_0" pos="202.00" x="1393.25" y="401.65" speed="10.00"/>
    </timestep>
    <timestep time="10.30" id="test1" vType="DEFAULT_VEHTYPE">
        <vehicle id="0" lane="4/1to3/1_0" pos="203.00" x="1392.25" y="401.65" speed="10.00"/>
    </timestep>
    <timestep time="10.40" id="test1" vType="DEFAULT_VEHTYPE">
        <vehicle id="0" lane="4/1to3/1_0" pos="204.00" x="1391.25" y="401.65" speed="10.00"/>
    </timestep>
    <timestep time="10.50" id="test1" vType="DEFAULT_VEHTYPE">
        <vehicle id="0" lane="4/1to3/1_0" pos="205.00" x="1390.25" y="401.65" speed="10.00"/>
    </timestep>
    <timestep time="10.60" id="test1" vType="DEFAULT_VEHTYPE">
        <vehicle id="0" lane="4/1to3/1_0" pos="206.00" x="1389.25" y="401.65" speed="10.00"/>
    </timestep>
    <timestep time="10.70" id="test1" vType="DEFAULT_VEHTYPE">
        <vehicle id="0" lane="4/1to3/1_0" pos="207.00" x="1388.25" y="401.65" speed="10.00"/>
    </timestep>
    <timestep time="10.80" id="test1" vType="DEFAULT_VEHTYPE">
        <vehicle id="0" lane="4/1to3/1_0" pos="208.00" x="1387.25" y="401.65" speed="10.00"/>
    </timestep>
    <timestep time="10.90" id="test1" vType="DEFAULT_VEHTYPE">
        <vehicle id="0" lane="4/1to3/1_0" pos="209.00" x="1386.25" y="401.65" speed="10.00"/>
    </timestep>
    <timestep time="11.00" id="test1" vType="DEFAULT_VEHTYPE">
        <vehicle id="0" lane="4/1to3/1_0" pos="210.00" x="1385.25" y="401.65" speed="10.00"/>
    </timestep>
    <timestep time="11.10" id="test1" vType="DEFAULT_VEHTYPE">
        <vehicle id="0" lane="4/1to3/1_0" pos="211.00" x="1384.25" y="401.65" speed="10.00"/>
    </timestep>
    <timestep time="11.20" id="test1" vType="DEFAULT_VEHTYPE">
        <vehicle id="0" lane="4/1to3/1_0" pos="212.00" x="1383.25" y="401.65" speed="10.00"/>
    </timestep>
    <timestep time="11.30" id="test1" vType="DEFAULT_VEHTYPE">
        <vehicle id="0" lane="4/1to3/1_0" pos="213.00" x="1382.25" y="401.65" speed="10.00"/>
    </timestep>
    <timestep time="11.40" id="test1" vType="DEFAULT_VEHTYPE">
        <vehicle id="0" lane="4/1to3/1_0" pos="214.00" x="1381.25" y="401.65" speed="10.00"/>
    </timestep>
    <timestep time="11.50" id="test1" vType="DEFAULT_VEHTYPE">
        <vehicle id="0" lane="4/1to3/1_0" pos="215.00" x="1380.25" y="401.65" speed="10.00"/>
    </timestep>
    <timestep time="11.60" id="test1" vType="DEFAULT_VEHTYPE">
        <vehicle id="0" lane="4/1to3/1_0" pos="216.00" x="1379.25" y="401.65" speed="10.00"/>
    </timestep>
    <timestep time="11.70" id="test1" vType="DEFAULT_VEHTYPE">
        <vehicle id="0" lane="4/1to3/1_0" pos="217.00" x="1378.25" y="401.65" speed="10.00"/>
    </timestep>
    <timestep time="11.80" id="test1" vType="DEFAULT_VEHTYPE">
        <vehicle id="0" lane="4/1to3/1_0" pos="218.00" x="1377.25" y="401.65" speed="10.00"/>
    </timestep>
    <timestep time="11.90" id="test1" vType="DEFAULT_VEHTYPE">
        <vehicle id="0" lane="4/1to3/1_0" pos="219.00" x="1376.25" y="401.65" speed="10.00"/>
    </timestep>
    <timestep time="12.00" id="test1" vType="DEFAULT_VEHTYPE">
        <vehicle id="0" lane="4/1to3/1_0" pos="220.00" x="1375.25" y="401.65" speed="10.00"/>
    </timestep>
    <timestep time="12.10" id="test1" vType="DEFAULT_VEHTYPE">
        <vehicle id="0" lane="4/1to3/1_0" pos="221.00" x="1374.25" y="401.65" speed="10.00"/>
    </timestep>
    <timestep time="12.20" id="test1" vType="DEFAULT_VEHTYPE">
        <vehicle id="0" lane="4/1to3/1_0" pos="222.00" x="1373.25" y="401.65" speed="10.00"/>
    </timestep>
    <timestep time="12.30" id="test1" vType="DEFAULT_VEHTYPE">
        <vehicle id="0" lane="4/1to3/1_0" pos="223.00" x="1372.25" y="401.65" speed="10.00"/>
    </timestep>
    <timestep time="12.40" id="test1" vType="DEFAULT_VEHTYPE">
        <vehicle id="0" lane="4/1to3/1_0" pos="224.00" x="1371.25" y="401.65" speed="10.00"/>
    </timestep>
    <timestep time="12.50" id="test1" vType="DEFAULT_VEHTYPE">
        <vehicle id="0" lane="4/1to3/1_0" pos="225.00" x="1370.25" y="401.65" speed="10.00"/>
    </timestep>
    <timestep time="12.60" id="test1" vType="DEFAULT_VEHTYPE">
        <vehicle id="0" lane="4/1to3/1_0" pos="226.00" x="1369.25" y="401.65" speed="10.00"/>
    </timestep>
    <timestep time="12.70" id="test1" vType="DEFAULT_VEHTYPE">
        <vehicle id="0" lane="4/1to3/1_0" pos="227.00" x="1368.25" y="401.65" speed="10.00"/>
    </timestep>
    <timestep time="12.80" id="test1" vType="DEFAULT_VEHTYPE">
        <vehicle id="0" lane="4/1to3/1_0" pos="228.00" x="1367.25" y="401.65" speed="10.00"/>
    </timestep>
    <timestep time="12.90" id="test1" vType="DEFAULT_VEHTYPE">
        <vehicle id="0" lane="4/1to3/1_0" pos="229.00" x="1366.25" y="401.65" speed="10.00"/>
    </timestep>
    <timestep time="13.00" id="test1" vType="DEFAULT_VEHTYPE">
        <vehicle id="0" lane="4/1to3/1_0" pos="230.00" x="1365.25" y="401.65" speed="10.00"/>
    </timestep>
    <timestep time="13.10" id="test1" vType="DEFAULT_VEHTYPE">
        <vehicle id="0" lane="4/1to3/1_0" pos="231.00" x="1364.25" y="401.65" speed="10.00"/>
    </timestep>
    <timestep time="13.20" id="test1" vType="DEFAULT_VEHTYPE">
        <vehicle id="0" lane="4/1to3/1_0" pos="232.00" x="1363.25" y="401.65" speed="10.00"/>
    </timestep>
    <timestep time="13.30" id="test1" vType="DEFAULT_VEHTYPE">
        <vehicle id="0" lane="4/1to3/1_0" pos="233.00" x="1362.25" y="401.65" speed="10.00"/>
    </timestep>
    <timestep time="13.40" id="test1" vType="DEFAULT_VEHTYPE">
        <vehicle id="0" lane="4/1to3/1_0" pos="234.00" x="1361.25" y="401.65" speed="10.00"/>
    </timestep>
    <timestep time="13.50" id="test1" vType="DEFAULT_VEHTYPE">
        <vehicle id="0" lane="4/1to3/1_0" pos="235.00" x="1360.25" y="401.65" speed="10.00"/>
    </timestep>
    <timestep time="13.60" id="test1" vType="DEFAULT_VEHTYPE">
        <vehicle id="0" lane="4/1to3/1_0" pos="236.00" x="1359.25" y="401.65" speed="10.00"/>
    </timestep>
    <timestep time="13.70" id="test1" vType="DEFAULT_VEHTYPE">
        <vehicle id="0" lane="4/1to3/1_0" pos="237.00" x="1358.25" y="401.65" speed="10.00"/>
    </timestep>
    <timestep time="13.80" id="test1" vType="DEFAULT_VEHTYPE">
        <vehicle id="0" lane="4/1to3/1_0" pos="238.00" x="1357.25" y="401.65" speed="10.00"/>
    </timestep>
    <timestep time="13.90" id="test1" vType="DEFAULT_VEHTYPE">
        <vehicle id="0" lane="4/1to3/1_0" pos="239.00" x="1356.25" y="401.65" speed="10.00"/>
    </timestep>
    <timestep time="14.00" id="test1" vType="DEFAULT_VEHTYPE">
        <vehicle id="0" lane="4/1to3/1_0" pos="240.00" x="1355.25" y="401.65" speed="10.00"/>
    </timestep>
    <timestep time="14.10" id="test1" vType="DEFAULT_VEHTYPE">
        <vehicle id="0" lane="4/1to3/1_0" pos="241.00" x="1354.25" y="401.65" speed="10.00"/>
    </timestep>
    <timestep time="14.20" id="test1" vType="DEFAULT_VEHTYPE">
        <vehicle id="0" lane="4/1to3/1_0" pos="242.00" x="1353.25" y="401.65" speed="10.00"/>
    </timestep>
    <timestep time="14.30" id="test1" vType="DEFAULT_VEHTYPE">
        <vehicle id="0" lane="4/1to3/1_0" pos="243.00" x="1352.25" y="401.65" speed="10.00"/>
    </timestep>
    <timestep time="14.40" id="test1" vType="DEFAULT_VEHTYPE">
        <vehicle id="0" lane="4/1to3/1_0" pos="244.00" x="1351.25" y="401.65" speed="10.00"/>
    </timestep>
    <timestep time="14.50" id="test1" vType="DEFAULT_VEHTYPE">
        <vehicle id="0" lane="4/1to3/1_0" pos="245.00" x="1350.25" y="401.65" speed="10.00"/>
    </timestep>
    <timestep time="14.60" id="test1" vType="DEFAULT_VEHTYPE">
        <vehicle id="0" lane="4/1to3/1_0" pos="246.00" x="1349.25" y="401.65" speed="10.00"/>
    </timestep>
    <timestep time="14.70" id="test1" vType="DEFAULT_VEHTYPE">
        <vehicle id="0" lane="4/1to3/1_0" pos="247.00" x="1348.25" y="401.65" speed="10.00"/>
    </timestep>
    <timestep time="14.80" id="test1" vType="DEFAULT_VEHTYPE">
        <vehicle id="0" lane="4/1to3/1_0" pos="248.00" x="1347.25" y="401.65" speed="10.00"/>
    </timestep>
    <timestep time="14.90" id="test1" vType="DEFAULT_VEHTYPE">
        <vehicle id="0" lane="4/1to3/1_0" pos="249.00" x="1346.25" y="401.65" speed="10.00"/>
    </timestep>
    <timestep time="15.00" id="test1" vType="DEFAULT_VEHTYPE">
        <vehicle id="0" lane="4/1to3/1_0" pos="250.00" x="1345.25" y="401.65" speed="10.00"/>
    </timestep>
    <timestep time="15.10" id="test1" vType="DEFAULT_VEHTYPE">
        <vehicle id="0" lane="4/1to3/1_0" pos="251.00" x="1344.25" y="401.65" speed="10.00"/>
    </timestep>
    <timestep time="15.20" id="test1" vType="DEFAULT_VEHTYPE">
        <vehicle id="0" lane="4/1to3/1_0" pos="252.00" x="1343.25" y="401.65" speed="10.00"/>
    </timestep>
    <timestep time="15.30" id="test1" vType="DEFAULT_VEHTYPE">
        <vehicle id="0" lane="4/1to3/1_0" pos="253.00" x="1342.25" y="401.65" speed="10.00"/>
    </timestep>
    <timestep time="15.40" id="test1" vType="DEFAULT_VEHTYPE">
        <vehicle id="0" lane="4/1to3/1_0" pos="254.00" x="1341.25" y="401.65" speed="10.00"/>
    </timestep>
    <timestep time="15.50" id="test1" vType="DEFAULT_VEHTYPE">
        <vehicle id="0" lane="4/1to3/1_0" pos="255.00" x="1340.25" y="401.65" speed="10.00"/>
    </timestep>
    <timestep time="15.60" id="test1" vType="DEFAULT_VEHTYPE">
        <vehicle id="0" lane="4/1to3/1_0" pos="256.00" x="1339.25" y="401.65" speed="10.00"/>
    </timestep>
    <timestep time="15.70" id="test1" vType="DEFAULT_VEHTYPE">
        <vehicle id="0" lane="4/1to3/1_0" pos="257.00" x="1338.25" y="401.65" speed="10.00"/>
    </timestep>
    <timestep time="15.80" id="test1" vType="DEFAULT_VEHTYPE">
        <vehicle id="0" lane="4/1to3/1_0" pos="258.00" x="1337.25" y="401.65" speed="10.00"/>
    </timestep>
    <timestep time="15.90" id="test1" vType="DEFAULT_VEHTYPE">
        <vehicle id="0" lane="4/1to3/1_0" pos="259.00" x="1336.25" y="401.65" speed="10.00"/>
    </timestep>
    <timestep time="16.00" id="test1" vType="DEFAULT_VEHTYPE">
        <vehicle id="0" lane="4/1to3/1_0" pos="260.00" x="1335.25" y="401.65" speed="10.00"/>
    </timestep>
    <timestep time="16.10" id="test1" vType="DEFAULT_VEHTYPE">
        <vehicle id="0" lane="4/1to3/1_0" pos="261.00" x="1334.25" y="401.65" speed="10.00"/>
    </timestep>
    <timestep time="16.20" id="test1" vType="DEFAULT_VEHTYPE">
        <vehicle id="0" lane="4/1to3/1_0" pos="262.00" x="1333.25" y="401.65" speed="10.00"/>
    </timestep>
    <timestep time="16.30" id="test1" vType="DEFAULT_VEHTYPE">
        <vehicle id="0" lane="4/1to3/1_0" pos="263.00" x="1332.25" y="401.65" speed="10.00"/>
    </timestep>
    <timestep time="16.40" id="test1" vType="DEFAULT_VEHTYPE">
        <vehicle id="0" lane="4/1to3/1_0" pos="264.00" x="1331.25" y="401.65" speed="10.00"/>
    </timestep>
    <timestep time="16.50" id="test1" vType="DEFAULT_VEHTYPE">
        <vehicle id="0" lane="4/1to3/1_0" pos="265.00" x="1330.25" y="401.65" speed="10.00"/>
    </timestep>
    <timestep time="16.60" id="test1" vType="DEFAULT_VEHTYPE">
        <vehicle id="0" lane="4/1to3/1_0" pos="266.00" x="1329.25" y="401.65" speed="10.00"/>
    </timestep>
    <timestep time="16.70" id="test1" vType="DEFAULT_VEHTYPE">
        <vehicle id="0" lane="4/1to3/1_0" pos="267.00" x="1328.25" y="401.65" speed="10.00"/>
    </timestep>
    <timestep time="16.80" id="test1" vType="DEFAULT_VEHTYPE">
        <vehicle id="0" lane="4/1to3/1_0" pos="268.00" x="1327.25" y="401.65" speed="10.00"/>
    </timestep>
    <timestep time="16.90" id="test1" vType="DEFAULT_VEHTYPE">