<routes xmlns:xsi="http://www.w3.org/2001/XMLSchema-instance" xsi:noNamespaceSchemaLocation="http://sumo.dlr.de/xsd/routes_file.xsd">
    <vType id="DEFAULT_VEHTYPE" accel="0.8" decel="4.5" sigma="0" length="3" minGap="2" maxSpeed="10"/>
    <route id="r1" edges="onRamp merge end"/>
    <vehicle id="0" depart="0" departPos="-10" arrivalPos="10" departSpeed="10" route="r1"/>
</routes>
