<?xml version="1.0" encoding="UTF-8"?>

<!-- generated on Mon Feb 17 15:30:58 2020 by Eclipse SUMO netconvert Version v1_5_0+0130-ceb0a01
This data file and the accompanying materials
are made available under the terms of the Eclipse Public License v2.0
which accompanies this distribution, and is available at
http://www.eclipse.org/legal/epl-v20.html
SPDX-License-Identifier: EPL-2.0
<configuration xmlns:xsi="http://www.w3.org/2001/XMLSchema-instance" xsi:noNamespaceSchemaLocation="http://sumo.dlr.de/xsd/netconvertConfiguration.xsd">

    <input>
        <osm-files value="osm.xml"/>
    </input>

    <output>
        <write-license value="true"/>
    </output>

    <projection>
        <proj.utm value="true"/>
    </projection>

    <report>
        <xml-validation value="never"/>
        <aggregate-warnings value="5"/>
    </report>

</configuration>
-->

<net version="1.6" junctionCornerDetail="5" limitTurnSpeed="5.50" xmlns:xsi="http://www.w3.org/2001/XMLSchema-instance" xsi:noNamespaceSchemaLocation="http://sumo.dlr.de/xsd/net_file.xsd">

    <location netOffset="-371079.36,-4842136.32" convBoundary="0.00,0.00,178.69,52.13" origBoundary="7.399479,43.721054,7.401687,43.721554" projParameter="+proj=utm +zone=32 +ellps=WGS84 +datum=WGS84 +units=m +no_defs"/>

    <type id="highway.bridleway" priority="1" numLanes="1" speed="2.78" allow="pedestrian" oneway="1" width="2.00"/>
    <type id="highway.bus_guideway" priority="1" numLanes="1" speed="27.78" allow="bus" oneway="1"/>
    <type id="highway.cycleway" priority="1" numLanes="1" speed="8.33" allow="bicycle" oneway="0" width="1.00"/>
    <type id="highway.footway" priority="1" numLanes="1" speed="2.78" allow="pedestrian" oneway="1" width="2.00"/>
    <type id="highway.ford" priority="1" numLanes="1" speed="2.78" allow="army" oneway="0"/>
    <type id="highway.living_street" priority="2" numLanes="1" speed="2.78" disallow="tram rail_urban rail rail_electric rail_fast ship" oneway="0"/>
    <type id="highway.motorway" priority="14" numLanes="2" speed="39.44" allow="private emergency authority army vip passenger hov taxi bus coach delivery truck trailer motorcycle evehicle custom1 custom2" oneway="1"/>
    <type id="highway.motorway_link" priority="9" numLanes="1" speed="22.22" allow="private emergency authority army vip passenger hov taxi bus coach delivery truck trailer motorcycle evehicle custom1 custom2" oneway="1"/>
    <type id="highway.path" priority="1" numLanes="1" speed="2.78" allow="pedestrian bicycle" oneway="1" width="2.00"/>
    <type id="highway.pedestrian" priority="1" numLanes="1" speed="2.78" allow="pedestrian" oneway="1" width="2.00"/>
    <type id="highway.primary" priority="12" numLanes="2" speed="27.78" disallow="tram rail_urban rail rail_electric rail_fast ship" oneway="0"/>
    <type id="highway.primary_link" priority="7" numLanes="1" speed="22.22" disallow="tram rail_urban rail rail_electric rail_fast ship" oneway="0"/>
    <type id="highway.raceway" priority="15" numLanes="2" speed="83.33" allow="vip" oneway="0"/>
    <type id="highway.residential" priority="3" numLanes="1" speed="13.89" disallow="tram rail_urban rail rail_electric rail_fast ship" oneway="0"/>
    <type id="highway.secondary" priority="11" numLanes="1" speed="27.78" disallow="tram rail_urban rail rail_electric rail_fast ship" oneway="0"/>
    <type id="highway.secondary_link" priority="6" numLanes="1" speed="22.22" disallow="tram rail_urban rail rail_electric rail_fast ship" oneway="0"/>
    <type id="highway.service" priority="1" numLanes="1" speed="5.56" allow="pedestrian delivery bicycle" oneway="0"/>
    <type id="highway.stairs" priority="1" numLanes="1" speed="1.39" allow="pedestrian" oneway="1" width="2.00"/>
    <type id="highway.step" priority="1" numLanes="1" speed="1.39" allow="pedestrian" oneway="1" width="2.00"/>
    <type id="highway.steps" priority="1" numLanes="1" speed="1.39" allow="pedestrian" oneway="1" width="2.00"/>
    <type id="highway.tertiary" priority="10" numLanes="1" speed="22.22" disallow="tram rail_urban rail rail_electric rail_fast ship" oneway="0"/>
    <type id="highway.tertiary_link" priority="5" numLanes="1" speed="22.22" disallow="tram rail_urban rail rail_electric rail_fast ship" oneway="0"/>
    <type id="highway.track" priority="1" numLanes="1" speed="5.56" disallow="tram rail_urban rail rail_electric rail_fast ship" oneway="0"/>
    <type id="highway.trunk" priority="13" numLanes="2" speed="27.78" disallow="pedestrian bicycle tram rail_urban rail rail_electric rail_fast ship" oneway="0"/>
    <type id="highway.trunk_link" priority="8" numLanes="1" speed="22.22" disallow="pedestrian bicycle tram rail_urban rail rail_electric rail_fast ship" oneway="0"/>
    <type id="highway.unclassified" priority="4" numLanes="1" speed="13.89" disallow="tram rail_urban rail rail_electric rail_fast ship" oneway="0"/>
    <type id="highway.unsurfaced" priority="1" numLanes="1" speed="8.33" disallow="tram rail_urban rail rail_electric rail_fast ship" oneway="0"/>
    <type id="railway.highspeed" priority="21" numLanes="1" speed="69.44" allow="rail_fast" oneway="1"/>
    <type id="railway.light_rail" priority="19" numLanes="1" speed="27.78" allow="rail_urban" oneway="1"/>
    <type id="railway.preserved" priority="16" numLanes="1" speed="27.78" allow="rail" oneway="1"/>
    <type id="railway.rail" priority="20" numLanes="1" speed="44.44" allow="rail" oneway="1"/>
    <type id="railway.subway" priority="18" numLanes="1" speed="27.78" allow="rail_urban" oneway="1"/>
    <type id="railway.tram" priority="17" numLanes="1" speed="13.89" allow="tram" oneway="1"/>

    <edge id=":2440504398_0" function="internal">
        <lane id=":2440504398_0_0" index="0" allow="rail rail_electric rail_fast" speed="0.10" length="0.10" shape="1.41,0.00 1.41,0.00"/>
    </edge>
    <edge id=":2440513258_0" function="internal">
        <lane id=":2440513258_0_0" index="0" allow="rail rail_electric rail_fast" speed="0.10" length="0.10" shape="178.69,47.18 178.69,47.18"/>
    </edge>
    <edge id=":245981493_0" function="internal">
        <lane id=":245981493_0_0" index="0" allow="rail rail_electric rail_fast" speed="0.10" length="0.10" shape="178.56,52.13 178.56,52.13"/>
    </edge>
    <edge id=":245981495_0" function="internal">
        <lane id=":245981495_0_0" index="0" allow="rail rail_electric rail_fast" speed="0.10" length="0.10" shape="0.00,5.75 0.00,5.75"/>
    </edge>

    <edge id="-235976545" from="2440504398" to="2440513258" priority="20" type="railway.rail" spreadType="center" shape="1.41,0.00 44.31,17.47 89.55,31.25 178.69,47.18" bidi="235976545">
        <lane id="-235976545_0" index="0" allow="rail rail_electric rail_fast" speed="25.00" length="184.16" shape="1.41,0.00 44.31,17.47 89.55,31.25 178.69,47.18"/>
        <param key="railway:track_ref" value="2"/>
    </edge>
    <edge id="-50495070" from="245981493" to="245981495" priority="20" type="railway.rail" spreadType="center" shape="178.56,52.13 87.96,36.29 42.79,22.72 0.00,5.75" bidi="50495070">
        <lane id="-50495070_0" index="0" allow="rail rail_electric rail_fast" speed="25.00" length="185.17" shape="178.56,52.13 87.96,36.29 42.79,22.72 0.00,5.75"/>
        <param key="railway:track_ref" value="1"/>
    </edge>
    <edge id="235976545" from="2440513258" to="2440504398" priority="20" type="railway.rail" spreadType="center" shape="178.69,47.18 89.55,31.25 44.31,17.47 1.41,0.00" bidi="-235976545">
        <lane id="235976545_0" index="0" allow="rail rail_electric rail_fast" speed="25.00" length="184.16" shape="178.69,47.18 89.55,31.25 44.31,17.47 1.41,0.00"/>
        <param key="railway:track_ref" value="2"/>
    </edge>
    <edge id="50495070" from="245981495" to="245981493" priority="20" type="railway.rail" spreadType="center" shape="0.00,5.75 42.79,22.72 87.96,36.29 178.56,52.13" bidi="-50495070">
        <lane id="50495070_0" index="0" allow="rail rail_electric rail_fast" speed="25.00" length="185.17" shape="0.00,5.75 42.79,22.72 87.96,36.29 178.56,52.13"/>
        <param key="railway:track_ref" value="1"/>
    </edge>

    <junction id="2440504398" type="priority" x="1.41" y="0.00" incLanes="235976545_0" intLanes=":2440504398_0_0" shape="0.81,1.48 2.02,-1.48 0.81,1.48 2.02,-1.48">
        <request index="0" response="0" foes="0" cont="0"/>
    </junction>
    <junction id="2440513258" type="priority" x="178.69" y="47.18" incLanes="-235976545_0" intLanes=":2440513258_0_0" shape="178.97,45.60 178.41,48.75 178.97,45.60 178.41,48.75">
        <request index="0" response="0" foes="0" cont="0"/>
    </junction>
    <junction id="245981493" type="priority" x="178.56" y="52.13" incLanes="50495070_0" intLanes=":245981493_0_0" shape="178.83,50.56 178.28,53.71 178.83,50.56 178.28,53.71">
        <request index="0" response="0" foes="0" cont="0"/>
    </junction>
    <junction id="245981495" type="priority" x="0.00" y="5.75" incLanes="-50495070_0" intLanes=":245981495_0_0" shape="-0.59,7.24 0.59,4.26 -0.59,7.24 0.59,4.26">
        <request index="0" response="0" foes="0" cont="0"/>
    </junction>

    <connection from="-235976545" to="235976545" fromLane="0" toLane="0" speed="0.10" via=":2440513258_0_0" dir="t" state="M"/>
    <connection from="-50495070" to="50495070" fromLane="0" toLane="0" speed="0.10" via=":245981495_0_0" dir="t" state="M"/>
    <connection from="235976545" to="-235976545" fromLane="0" toLane="0" speed="0.10" via=":2440504398_0_0" dir="t" state="M"/>
    <connection from="50495070" to="-50495070" fromLane="0" toLane="0" speed="0.10" via=":245981493_0_0" dir="t" state="M"/>

    <connection from=":2440504398_0" to="-235976545" fromLane="0" toLane="0" dir="t" state="M"/>
    <connection from=":2440513258_0" to="235976545" fromLane="0" toLane="0" dir="t" state="M"/>
    <connection from=":245981493_0" to="-50495070" fromLane="0" toLane="0" dir="t" state="M"/>
    <connection from=":245981495_0" to="50495070" fromLane="0" toLane="0" dir="t" state="M"/>

</net>
