<?xml version="1.0" encoding="UTF-8"?>

<!-- generated on 2022-10-11 08:43:44 by Eclipse SUMO netedit Version v1_14_1+1563-f3c96901f69
-->

<routes xmlns:xsi="http://www.w3.org/2001/XMLSchema-instance" xsi:noNamespaceSchemaLocation="http://sumo.dlr.de/xsd/routes_file.xsd">
    <!-- Vehicles, containers and containers (sorted by depart) -->
    <container id="c_0" depart="0.00">
        <tranship from="gneE2" to="gneE2"/>
        <transport containerStop="containerStopA" lines="Line1"/>
        <transport containerStop="containerStopB" lines="Line2"/>
    </container>
</routes>
