<?xml version="1.0" encoding="UTF-8"?>

<!-- generated on 31.07.2017 13:00:29 by Netedit Version dev-SVN-r22743
<?xml version="1.0" encoding="UTF-8"?>

<configuration xmlns:xsi="http://www.w3.org/2001/XMLSchema-instance" xsi:noNamespaceSchemaLocation="http://sumo.dlr.de/xsd/netconvertConfiguration.xsd">

    <input>
        <sumo-net-file value="C:\Projects\SUMO_Trunk\tests\netedit\additionalElements\busstop\inspect\input_net.net.xml"/>
    </input>

    <output>
        <output-file value="C:\Projects\SUMO_Trunk\tests\netedit\additionalElements\busstop\inspect\input_net.net.xml"/>
        <plain-output-prefix value="C:\Projects\SUMO_Trunk\tests\netedit\additionalElements\busstop\inspect\input_net"/>
    </output>

    <processing>
        <no-internal-links value="false"/>
        <no-turnarounds value="true"/>
        <offset.disable-normalization value="true"/>
        <lefthand value="false"/>
        <junctions.corner-detail value="0"/>
        <rectangular-lane-cut value="false"/>
        <walkingareas value="false"/>
    </processing>

</configuration>
-->

<edges version="0.27" xmlns:xsi="http://www.w3.org/2001/XMLSchema-instance" xsi:noNamespaceSchemaLocation="http://sumo.dlr.de/xsd/edges_file.xsd">
    <edge id="gneE0" from="gneJ0" to="gneJ1" priority="1" numLanes="1" speed="13.89"/>
    <edge id="gneE1" from="gneJ1" to="gneJ0" priority="1" numLanes="1" speed="13.89"/>
    <edge id="gneE2" from="gneJ2" to="gneJ3" priority="1" numLanes="2" speed="13.89"/>
    <edge id="gneE3" from="gneJ3" to="gneJ2" priority="1" numLanes="2" speed="13.89"/>
</edges>
