<?xml version="1.0" encoding="UTF-8"?>

<!-- generated on Di 25 Jul 2017 09:46:39 CEST by Netedit Version dev-SVN-r23112
This data file and the accompanying materials
are made available under the terms of the Eclipse Public License v2.0
which accompanies this distribution, and is available at
http://www.eclipse.org/legal/epl-v20.html
SPDX-License-Identifier: EPL-2.0
<configuration xmlns:xsi="http://www.w3.org/2001/XMLSchema-instance" xsi:noNamespaceSchemaLocation="http://sumo.dlr.de/xsd/netconvertConfiguration.xsd">

    <input>
        <sumo-net-file value="recurrent_net.net.xml"/>
    </input>

    <output>
        <output-file value="recurrent_net.net.xml"/>
    </output>

    <processing>
        <no-turnarounds value="true"/>
        <offset.disable-normalization value="true"/>
        <lefthand value="false"/>
        <junctions.corner-detail value="0"/>
        <rectangular-lane-cut value="false"/>
        <walkingareas value="false"/>
    </processing>

    <visualisation>
        <registry-viewport value="true"/>
    </visualisation>

</configuration>
-->

<net version="0.27" xmlns:xsi="http://www.w3.org/2001/XMLSchema-instance" xsi:noNamespaceSchemaLocation="http://sumo.dlr.de/xsd/net_file.xsd">

    <location netOffset="0.00,0.00" convBoundary="0.00,-50.00,200.00,150.00" origBoundary="-10000000000.00,-10000000000.00,10000000000.00,10000000000.00" projParameter="!"/>

    <edge id=":C_0" function="internal">
        <lane id=":C_0_0" index="0" speed="13.89" length="5.00" shape="98.35,54.75 98.16,53.39 97.57,52.43 96.61,51.84 95.25,51.65"/>
    </edge>
    <edge id=":C_1" function="internal">
        <lane id=":C_1_0" index="0" speed="13.89" length="9.50" shape="98.35,54.75 98.35,45.25"/>
    </edge>
    <edge id=":C_2" function="internal">
        <lane id=":C_2_0" index="0" speed="13.89" length="5.28" shape="98.35,54.75 98.75,51.95 99.95,49.95 100.05,49.89"/>
    </edge>
    <edge id=":C_12" function="internal">
        <lane id=":C_12_0" index="0" speed="13.89" length="5.04" shape="100.05,49.89 101.95,48.75 104.75,48.35"/>
    </edge>
    <edge id=":C_3" function="internal">
        <lane id=":C_3_0" index="0" speed="13.89" length="5.00" shape="104.75,51.65 103.39,51.84 102.43,52.42 101.84,53.39 101.65,54.75"/>
    </edge>
    <edge id=":C_4" function="internal">
        <lane id=":C_4_0" index="0" speed="13.89" length="9.50" shape="104.75,51.65 95.25,51.65"/>
    </edge>
    <edge id=":C_5" function="internal">
        <lane id=":C_5_0" index="0" speed="13.89" length="10.32" shape="104.75,51.65 101.95,51.25 99.95,50.05 98.75,48.05 98.35,45.25"/>
    </edge>
    <edge id=":C_6" function="internal">
        <lane id=":C_6_0" index="0" speed="13.89" length="5.00" shape="101.65,45.25 101.84,46.61 102.43,47.57 103.39,48.16 104.75,48.35"/>
    </edge>
    <edge id=":C_7" function="internal">
        <lane id=":C_7_0" index="0" speed="13.89" length="9.50" shape="101.65,45.25 101.65,54.75"/>
    </edge>
    <edge id=":C_8" function="internal">
        <lane id=":C_8_0" index="0" speed="13.89" length="5.28" shape="101.65,45.25 101.25,48.05 100.05,50.05 99.95,50.11"/>
    </edge>
    <edge id=":C_13" function="internal">
        <lane id=":C_13_0" index="0" speed="13.89" length="5.04" shape="99.95,50.11 98.05,51.25 95.25,51.65"/>
    </edge>
    <edge id=":C_9" function="internal">
        <lane id=":C_9_0" index="0" speed="13.89" length="5.00" shape="95.25,48.35 96.61,48.16 97.57,47.58 98.16,46.61 98.35,45.25"/>
    </edge>
    <edge id=":C_10" function="internal">
        <lane id=":C_10_0" index="0" speed="13.89" length="9.50" shape="95.25,48.35 104.75,48.35"/>
    </edge>
    <edge id=":C_11" function="internal">
        <lane id=":C_11_0" index="0" speed="13.89" length="10.32" shape="95.25,48.35 98.05,48.75 100.05,49.95 101.25,51.95 101.65,54.75"/>
    </edge>
    <edge id=":E_0" function="internal">
        <lane id=":E_0_0" index="0" speed="13.89" length="7.85" shape="118.55,48.35 119.91,48.75 120.88,49.95 121.46,51.95 121.65,54.75"/>
    </edge>
    <edge id=":N_0" function="internal">
        <lane id=":N_0_0" index="0" speed="13.89" length="5.00" shape="101.65,65.25 101.84,66.61 102.43,67.57 103.39,68.16 104.75,68.35"/>
    </edge>
    <edge id=":NE_0" function="internal">
        <lane id=":NE_0_0" index="0" speed="13.89" length="5.00" shape="121.65,65.25 121.84,66.61 122.43,67.57 123.39,68.16 124.75,68.35"/>
    </edge>
    <edge id=":NE_1" function="internal">
        <lane id=":NE_1_0" index="0" speed="13.89" length="6.20" shape="121.65,65.25 121.65,71.45"/>
    </edge>
    <edge id=":NE_2" function="internal">
        <lane id=":NE_2_0" index="0" speed="13.89" length="6.20" shape="118.55,68.35 124.75,68.35"/>
    </edge>
    <edge id=":NE_3" function="internal">
        <lane id=":NE_3_0" index="0" speed="13.89" length="1.54" shape="118.55,68.35 119.91,68.54 120.05,68.63"/>
    </edge>
    <edge id=":NE_4" function="internal">
        <lane id=":NE_4_0" index="0" speed="13.89" length="3.46" shape="120.05,68.63 120.88,69.12 121.46,70.09 121.65,71.45"/>
    </edge>

    <edge id="CE" from="C" to="E" priority="1">
        <lane id="CE_0" index="0" speed="13.89" length="13.80" shape="104.75,48.35 118.55,48.35"/>
    </edge>
    <edge id="CE2" from="E" to="NE" priority="1">
        <lane id="CE2_0" index="0" speed="13.89" length="10.50" shape="121.65,54.75 121.65,65.25"/>
    </edge>
    <edge id="CE3" from="NE" to="EE" priority="1">
        <lane id="CE3_0" index="0" speed="13.89" length="75.25" shape="124.75,68.35 200.00,68.35"/>
    </edge>
    <edge id="CN" from="C" to="N" priority="2">
        <lane id="CN_0" index="0" speed="13.89" length="10.50" shape="101.65,54.75 101.65,65.25"/>
    </edge>
    <edge id="CN2" from="N" to="NE" priority="1">
        <lane id="CN2_0" index="0" speed="13.89" length="13.80" shape="104.75,68.35 118.55,68.35"/>
    </edge>
    <edge id="CN3" from="NE" to="NN" priority="1">
        <lane id="CN3_0" index="0" speed="13.89" length="78.55" shape="121.65,71.45 121.65,150.00"/>
    </edge>
    <edge id="CS" from="C" to="S" priority="2">
        <lane id="CS_0" index="0" speed="13.89" length="95.25" shape="98.35,45.25 98.35,-50.00"/>
    </edge>
    <edge id="CW" from="C" to="W" priority="1">
        <lane id="CW_0" index="0" speed="13.89" length="95.25" shape="95.25,51.65 0.00,51.65"/>
    </edge>
    <edge id="EC" from="E" to="C" priority="1">
        <lane id="EC_0" index="0" speed="13.89" length="13.80" shape="118.55,51.65 104.75,51.65"/>
    </edge>
    <edge id="NC" from="N" to="C" priority="2">
        <lane id="NC_0" index="0" speed="13.89" length="10.50" shape="98.35,65.25 98.35,54.75"/>
    </edge>
    <edge id="SC" from="S" to="C" priority="2">
        <lane id="SC_0" index="0" speed="13.89" length="95.25" shape="101.65,-50.00 101.65,45.25"/>
    </edge>
    <edge id="WC" from="W" to="C" priority="1" type="roundabout">
        <lane id="WC_0" index="0" speed="13.89" length="95.25" shape="0.00,48.35 95.25,48.35"/>
    </edge>

    <junction id="C" type="priority" x="100.00" y="50.00" incLanes="NC_0 EC_0 SC_0 WC_0" intLanes=":C_0_0 :C_1_0 :C_12_0 :C_3_0 :C_4_0 :C_5_0 :C_6_0 :C_7_0 :C_13_0 :C_9_0 :C_10_0 :C_11_0" shape="96.75,54.75 103.25,54.75 104.75,53.25 104.75,46.75 103.25,45.25 96.75,45.25 95.25,46.75 95.25,53.25">
        <request index="0" response="000000000000" foes="000100010000" cont="0"/>
        <request index="1" response="000000000000" foes="111100110000" cont="0"/>
        <request index="2" response="000011000000" foes="110011110000" cont="1"/>
        <request index="3" response="000010000000" foes="100010000000" cont="0"/>
        <request index="4" response="000110000111" foes="100110000111" cont="0"/>
        <request index="5" response="011110000110" foes="011110000110" cont="0"/>
        <request index="6" response="000000000000" foes="010000000100" cont="0"/>
        <request index="7" response="000000000000" foes="110000111100" cont="0"/>
        <request index="8" response="000000000011" foes="110000110011" cont="1"/>
        <request index="9" response="000000000010" foes="000000100010" cont="0"/>
        <request index="10" response="000111000110" foes="000111100110" cont="0"/>
        <request index="11" response="000110011110" foes="000110011110" cont="0"/>
    </junction>
    <junction id="E" type="unregulated" x="120.00" y="50.00" incLanes="CE_0" intLanes=":E_0_0" shape="120.05,54.75 123.25,54.75 118.55,46.75 118.55,53.25"/>
    <junction id="EE" type="dead_end" x="200.00" y="70.00" incLanes="CE3_0" intLanes="" shape="200.00,66.75 200.00,69.95"/>
    <junction id="N" type="unregulated" x="100.00" y="70.00" incLanes="CN_0" intLanes=":N_0_0" shape="104.75,69.95 104.75,66.75 103.25,65.25 96.75,65.25"/>
    <junction id="NE" type="priority" x="120.00" y="70.00" incLanes="CE2_0 CN2_0" intLanes=":NE_0_0 :NE_1_0 :NE_2_0 :NE_4_0" shape="120.05,71.45 123.25,71.45 124.75,69.95 124.75,66.75 123.25,65.25 120.05,65.25 118.55,66.75 118.55,69.95">
        <request index="0" response="0000" foes="0100" cont="0"/>
        <request index="1" response="0000" foes="1100" cont="0"/>
        <request index="2" response="0011" foes="0011" cont="0"/>
        <request index="3" response="0010" foes="0010" cont="1"/>
    </junction>
    <junction id="NN" type="dead_end" x="120.00" y="150.00" incLanes="CN3_0" intLanes="" shape="123.25,150.00 120.05,150.00"/>
    <junction id="S" type="unregulated" x="100.00" y="-50.00" incLanes="CS_0" intLanes="" shape="100.05,-50.00 96.75,-50.00 99.95,-50.00"/>
    <junction id="W" type="unregulated" x="0.00" y="50.00" incLanes="CW_0" intLanes="" shape="0.00,49.95 0.00,53.25 0.00,50.05"/>

    <junction id=":C_12_0" type="internal" x="100.05" y="49.89" incLanes=":C_2_0 SC_0" intLanes=":C_4_0 :C_5_0 :C_6_0 :C_7_0 :C_10_0 :C_11_0"/>
    <junction id=":C_13_0" type="internal" x="99.95" y="50.11" incLanes=":C_8_0 NC_0" intLanes=":C_0_0 :C_1_0 :C_4_0 :C_5_0 :C_10_0 :C_11_0"/>
    <junction id=":NE_4_0" type="internal" x="120.05" y="68.63" incLanes=":NE_3_0 CE2_0" intLanes=":NE_1_0"/>

    <connection from="CE" to="CE2" fromLane="0" toLane="0" via=":E_0_0" dir="l" state="M"/>
    <connection from="CE2" to="CE3" fromLane="0" toLane="0" via=":NE_0_0" dir="r" state="M"/>
    <connection from="CE2" to="CN3" fromLane="0" toLane="0" via=":NE_1_0" dir="s" state="M"/>
    <connection from="CN" to="CN2" fromLane="0" toLane="0" via=":N_0_0" dir="r" state="M"/>
    <connection from="CN2" to="CE3" fromLane="0" toLane="0" via=":NE_2_0" dir="s" state="m"/>
    <connection from="CN2" to="CN3" fromLane="0" toLane="0" via=":NE_3_0" dir="l" state="m"/>
    <connection from="EC" to="CN" fromLane="0" toLane="0" via=":C_3_0" dir="r" state="m"/>
    <connection from="EC" to="CW" fromLane="0" toLane="0" via=":C_4_0" dir="s" state="m"/>
    <connection from="EC" to="CS" fromLane="0" toLane="0" via=":C_5_0" dir="l" state="m"/>
    <connection from="NC" to="CW" fromLane="0" toLane="0" via=":C_0_0" dir="r" state="M"/>
    <connection from="NC" to="CS" fromLane="0" toLane="0" via=":C_1_0" dir="s" state="M"/>
    <connection from="NC" to="CE" fromLane="0" toLane="0" via=":C_2_0" dir="l" state="m"/>
    <connection from="SC" to="CE" fromLane="0" toLane="0" via=":C_6_0" dir="r" state="M"/>
    <connection from="SC" to="CN" fromLane="0" toLane="0" via=":C_7_0" dir="s" state="M"/>
    <connection from="SC" to="CW" fromLane="0" toLane="0" via=":C_8_0" dir="l" state="m"/>
    <connection from="WC" to="CS" fromLane="0" toLane="0" via=":C_9_0" dir="r" state="m"/>
    <connection from="WC" to="CE" fromLane="0" toLane="0" visibility="100.00" via=":C_10_0" dir="s" state="m"/>
    <connection from="WC" to="CN" fromLane="0" toLane="0" via=":C_11_0" dir="l" state="m"/>

    <connection from=":C_0" to="CW" fromLane="0" toLane="0" dir="s" state="M"/>
    <connection from=":C_1" to="CS" fromLane="0" toLane="0" dir="s" state="M"/>
    <connection from=":C_2" to="CE" fromLane="0" toLane="0" via=":C_12_0" dir="s" state="m"/>
    <connection from=":C_12" to="CE" fromLane="0" toLane="0" dir="s" state="M"/>
    <connection from=":C_3" to="CN" fromLane="0" toLane="0" dir="s" state="M"/>
    <connection from=":C_4" to="CW" fromLane="0" toLane="0" dir="s" state="M"/>
    <connection from=":C_5" to="CS" fromLane="0" toLane="0" dir="s" state="M"/>
    <connection from=":C_6" to="CE" fromLane="0" toLane="0" dir="s" state="M"/>
    <connection from=":C_7" to="CN" fromLane="0" toLane="0" dir="s" state="M"/>
    <connection from=":C_8" to="CW" fromLane="0" toLane="0" via=":C_13_0" dir="s" state="m"/>
    <connection from=":C_13" to="CW" fromLane="0" toLane="0" dir="s" state="M"/>
    <connection from=":C_9" to="CS" fromLane="0" toLane="0" dir="s" state="M"/>
    <connection from=":C_10" to="CE" fromLane="0" toLane="0" dir="s" state="M"/>
    <connection from=":C_11" to="CN" fromLane="0" toLane="0" dir="s" state="M"/>
    <connection from=":E_0" to="CE2" fromLane="0" toLane="0" dir="s" state="M"/>
    <connection from=":N_0" to="CN2" fromLane="0" toLane="0" dir="s" state="M"/>
    <connection from=":NE_0" to="CE3" fromLane="0" toLane="0" dir="s" state="M"/>
    <connection from=":NE_1" to="CN3" fromLane="0" toLane="0" dir="s" state="M"/>
    <connection from=":NE_2" to="CE3" fromLane="0" toLane="0" dir="s" state="M"/>
    <connection from=":NE_3" to="CN3" fromLane="0" toLane="0" via=":NE_4_0" dir="s" state="m"/>
    <connection from=":NE_4" to="CN3" fromLane="0" toLane="0" dir="s" state="M"/>

</net>
