<?xml version="1.0" encoding="UTF-8"?>

<!-- generated on 2022-08-16 11:53:24 by Eclipse SUMO netedit Version v1_14_1+0323-c091033
<configuration xmlns:xsi="http://www.w3.org/2001/XMLSchema-instance" xsi:noNamespaceSchemaLocation="http://sumo.dlr.de/xsd/netconvertConfiguration.xsd">

    <input>
        <sumo-net-file value="net.net.xml"/>
    </input>

    <output>
        <output-file value="net.net.xml"/>
    </output>

    <processing>
        <geometry.min-radius.fix.railways value="false"/>
        <geometry.max-grade.fix value="false"/>
        <offset.disable-normalization value="true"/>
        <lefthand value="false"/>
    </processing>

    <junctions>
        <no-internal-links value="true"/>
        <no-turnarounds value="true"/>
        <junctions.corner-detail value="0"/>
        <junctions.limit-turn-speed value="-1"/>
        <rectangular-lane-cut value="false"/>
    </junctions>

    <pedestrian>
        <walkingareas value="false"/>
    </pedestrian>

</configuration>
-->

<net version="1.9" xmlns:xsi="http://www.w3.org/2001/XMLSchema-instance" xsi:noNamespaceSchemaLocation="http://sumo.dlr.de/xsd/net_file.xsd">

    <location netOffset="1589.00,1511.23" convBoundary="0.00,0.00,500.00,0.00" origBoundary="-1589.00,-1511.23,1589.00,1511.23" projParameter="!"/>

    <edge id="-0" from="end" to="start" priority="1">
        <lane id="-0_0" index="0" speed="8.33" length="500.00" shape="500.00,1.60 0.00,1.60"/>
    </edge>
    <edge id="0" from="start" to="end" priority="1">
        <lane id="0_0" index="0" speed="8.33" length="500.00" shape="0.00,-1.60 500.00,-1.60"/>
    </edge>

    <junction id="end" type="priority" x="500.00" y="0.00" incLanes="0_0" intLanes="" shape="500.00,0.00 500.00,-3.20 500.00,0.00">
        <request index="0" response="0" foes="0"/>
    </junction>
    <junction id="start" type="priority" x="0.00" y="0.00" incLanes="-0_0" intLanes="" shape="0.00,0.00 0.00,3.20 0.00,0.00">
        <request index="0" response="0" foes="0"/>
    </junction>

    <connection from="-0" to="0" fromLane="0" toLane="0" dir="t" state="M"/>
    <connection from="0" to="-0" fromLane="0" toLane="0" dir="t" state="M"/>

</net>
