<?xml version="1.0" encoding="UTF-8"?>

<!-- generated on 02.08.2019 15:26:26 by Eclipse SUMO netedit Version v1_2_0+1398-467102f7bf
<configuration xmlns:xsi="http://www.w3.org/2001/XMLSchema-instance" xsi:noNamespaceSchemaLocation="http://sumo.dlr.de/xsd/netconvertConfiguration.xsd">

    <input>
        <sumo-net-file value="C:/Users/alva_pa/.texttest/tmp/netedit.gui.02Aug152357.10684/netedit.gui/demandElements/routeflow/load/arrivalSpeed\input_net.net.xml"/>
    </input>

    <output>
        <output-file value="C:/Users/alva_pa/.texttest/tmp/netedit.gui.02Aug152357.10684/netedit.gui/demandElements/routeflow/load/arrivalSpeed\net.net.xml"/>
    </output>

    <processing>
        <geometry.max-grade.fix value="false"/>
        <offset.disable-normalization value="true"/>
        <lefthand value="false"/>
    </processing>

    <junctions>
        <no-turnarounds value="true"/>
        <junctions.corner-detail value="5"/>
        <junctions.limit-turn-speed value="5.5"/>
        <rectangular-lane-cut value="false"/>
    </junctions>

    <pedestrian>
        <walkingareas value="false"/>
    </pedestrian>

    <netedit>
        <additional-files value="C:/Users/alva_pa/.texttest/tmp/netedit.gui.02Aug152357.10684/netedit.gui/demandElements/routeflow/load/arrivalSpeed\additionals.xml"/>
        <additionals-output value="C:/Users/alva_pa/.texttest/tmp/netedit.gui.02Aug152357.10684/netedit.gui/demandElements/routeflow/load/arrivalSpeed\additionals.xml"/>
        <route-files value="C:/Users/alva_pa/.texttest/tmp/netedit.gui.02Aug152357.10684/netedit.gui/demandElements/routeflow/load/arrivalSpeed\routes.xml"/>
        <demandelements-output value="C:/Users/alva_pa/.texttest/tmp/netedit.gui.02Aug152357.10684/netedit.gui/demandElements/routeflow/load/arrivalSpeed\routes.xml"/>
    </netedit>

    <visualisation>
        <window-size value="700,500"/>
        <window-pos value="50,50"/>
        <gui-testing value="true"/>
        <gui-testing-debug value="true"/>
        <gui-testing-debug-gl value="true"/>
    </visualisation>

    <report>
        <no-warnings value="true"/>
        <error-log value="C:/Users/alva_pa/.texttest/tmp/netedit.gui.02Aug152357.10684/netedit.gui/demandElements/routeflow/load/arrivalSpeed\log.txt"/>
    </report>

</configuration>
-->

<routes xmlns:xsi="http://www.w3.org/2001/XMLSchema-instance" xsi:noNamespaceSchemaLocation="http://sumo.dlr.de/xsd/routes_file.xsd">
    <route edges="gneE2 gneE4 gneE5" color="yellow" id="route_0"/>
    <flow id="flow_0" begin="20.00" route="route_0" number="100"/>
    <flow id="flow_1" begin="20.00" arrivalSpeed="-12.00" route="route_0" number="100"/>
    <flow id="flow_2" begin="20.00" arrivalSpeed="0.00" route="route_0" number="100"/>
    <flow id="flow_3" begin="20.00" arrivalSpeed="500.00" route="route_0" number="100"/>
    <flow id="flow_4" begin="20.00" arrivalSpeed="1.00" route="route_0" number="100"/>
    <flow id="flow_5" begin="20.00" arrivalSpeed="current" route="route_0" number="100"/>
</routes>
