<?xml version="1.0" encoding="UTF-8"?>

<!-- generated on 2024-07-10 12:23:31 by Eclipse SUMO netedit Version v1_20_0+1161-45bbb3ad69d
<neteditConfiguration xmlns:xsi="http://www.w3.org/2001/XMLSchema-instance" xsi:noNamespaceSchemaLocation="http://sumo.dlr.de/xsd/neteditConfiguration.xsd">

    <input>
        <sumo-net-file value="net.net.xml"/>
    </input>

    <output>
        <output-file value="net.net.xml"/>
    </output>

    <processing>
        <geometry.min-radius.fix.railways value="false"/>
        <geometry.max-grade.fix value="false"/>
        <offset.disable-normalization value="true"/>
        <lefthand value="0"/>
    </processing>

    <junctions>
        <no-internal-links value="false"/>
        <no-turnarounds value="true"/>
        <junctions.corner-detail value="0"/>
        <junctions.limit-turn-speed value="-1.00"/>
        <rectangular-lane-cut value="0"/>
    </junctions>

    <pedestrian>
        <walkingareas value="1"/>
    </pedestrian>

</neteditConfiguration>
-->

<net version="1.20" walkingareas="true" xmlns:xsi="http://www.w3.org/2001/XMLSchema-instance" xsi:noNamespaceSchemaLocation="http://sumo.dlr.de/xsd/net_file.xsd">

    <location netOffset="100.00,100.00" convBoundary="0.00,-15.46,200.00,100.00" origBoundary="-10000000000.00,-10000000000.00,10000000000.00,10000000000.00" projParameter="!"/>

    <edge id=":C_0" function="internal">
        <lane id=":C_0_0" index="0" allow="passenger" speed="13.89" length="8.25" shape="104.80,88.35 104.99,91.35 105.57,93.49 106.54,94.77 107.90,95.20"/>
    </edge>
    <edge id=":C_1" function="internal">
        <lane id=":C_1_0" index="0" allow="passenger" speed="13.89" length="9.40" shape="98.50,95.20 107.90,95.20"/>
    </edge>
    <edge id=":J0_w0" function="walkingarea">
        <lane id=":J0_w0_0" index="0" allow="pedestrian" speed="2.78" length="8.40" width="2.00" shape="77.08,-18.17 78.14,-19.87 72.61,-11.06 73.67,-12.75"/>
    </edge>
    <edge id=":S_0" function="internal">
        <lane id=":S_0_0" index="0" allow="passenger" speed="13.89" length="8.71" shape="102.35,-0.42 103.42,0.67 104.19,2.37 104.65,4.69 104.80,7.64"/>
        <lane id=":S_0_1" index="1" allow="passenger" speed="13.89" length="8.15" shape="102.35,-0.42 102.59,0.93 102.29,3.44 101.84,6.03 101.60,7.64"/>
    </edge>

    <edge id="-E0" from="J0" to="S" priority="-1">
        <lane id="-E0_0" index="0" allow="pedestrian" speed="13.89" length="30.84" width="2.00" shape="77.61,-19.02 103.73,-2.62"/>
        <lane id="-E0_1" index="1" disallow="pedestrian" speed="13.89" length="30.84" shape="76.23,-16.82 102.35,-0.42"/>
    </edge>
    <edge id="CE" from="C" to="E" priority="3">
        <lane id="CE_0" index="0" allow="pedestrian" speed="13.89" length="92.10" width="3.75" shape="107.90,91.72 200.00,91.72"/>
        <lane id="CE_1" index="1" allow="passenger" speed="13.89" length="92.10" shape="107.90,95.20 200.00,95.20"/>
        <lane id="CE_2" index="2" allow="pedestrian" speed="13.89" length="92.10" shape="107.90,98.40 200.00,98.40"/>
    </edge>
    <edge id="E0" from="S" to="J0" priority="-1">
        <lane id="E0_0" index="0" allow="pedestrian" speed="13.89" length="30.84" width="2.00" shape="99.26,4.50 73.14,-11.91"/>
        <lane id="E0_1" index="1" disallow="pedestrian" speed="13.89" length="30.84" shape="100.64,2.29 74.52,-14.11"/>
    </edge>
    <edge id="SC" from="S" to="C" priority="2">
        <lane id="SC_0" index="0" allow="passenger" speed="13.89" length="80.71" shape="104.80,7.64 104.80,88.35"/>
        <lane id="SC_1" index="1" allow="passenger" speed="13.89" length="80.71" shape="101.60,7.64 101.60,88.35"/>
    </edge>
    <edge id="WC" from="W" to="C" priority="3">
        <lane id="WC_0" index="0" allow="pedestrian" speed="13.89" length="98.50" width="3.00" shape="0.00,92.10 98.50,92.10"/>
        <lane id="WC_1" index="1" allow="passenger" speed="13.89" length="98.50" shape="0.00,95.20 98.50,95.20"/>
        <lane id="WC_2" index="2" allow="pedestrian" speed="13.89" length="98.50" shape="0.00,98.40 98.50,98.40"/>
    </edge>

    <junction id="C" type="priority" x="100.00" y="100.00" incLanes="SC_0 SC_1 WC_0 WC_1 WC_2" intLanes=":C_0_0 :C_1_0" shape="107.90,100.00 107.90,89.85 106.40,88.35 100.00,88.35 98.50,90.60 98.50,100.00">
        <request index="0" response="10" foes="10" cont="0"/>
        <request index="1" response="00" foes="01" cont="0"/>
    </junction>
    <junction id="E" type="dead_end" x="200.00" y="100.00" incLanes="CE_0 CE_1 CE_2" intLanes="" shape="200.00,89.85 200.00,100.00"/>
    <junction id="J0" type="dead_end" x="75.38" y="-15.46" incLanes="E0_0 E0_1" intLanes="" shape="75.38,-15.46 72.61,-11.06 75.38,-15.46"/>
    <junction id="S" type="priority" x="100.00" y="0.00" incLanes="-E0_0 -E0_1" intLanes=":S_0_0 :S_0_1" shape="100.00,7.64 106.40,7.64 104.26,-3.46 98.73,5.34">
        <request index="0" response="00" foes="00" cont="0"/>
        <request index="1" response="00" foes="00" cont="0"/>
    </junction>
    <junction id="W" type="dead_end" x="0.00" y="100.00" incLanes="" intLanes="" shape="0.00,100.00 0.00,90.60"/>

    <connection from="-E0" to="SC" fromLane="1" toLane="0" via=":S_0_0" dir="l" state="M"/>
    <connection from="-E0" to="SC" fromLane="1" toLane="1" via=":S_0_1" dir="l" state="M"/>
    <connection from="SC" to="CE" fromLane="0" toLane="1" via=":C_0_0" dir="r" state="m"/>
    <connection from="WC" to="CE" fromLane="1" toLane="1" via=":C_1_0" dir="s" state="M"/>

    <connection from=":C_0" to="CE" fromLane="0" toLane="1" dir="r" state="M"/>
    <connection from=":C_1" to="CE" fromLane="0" toLane="1" dir="s" state="M"/>
    <connection from=":S_0" to="SC" fromLane="0" toLane="0" dir="l" state="M"/>
    <connection from=":S_0" to="SC" fromLane="1" toLane="1" dir="l" state="M"/>

    <connection from=":J0_w0" to="-E0" fromLane="0" toLane="0" dir="s" state="M"/>
    <connection from="E0" to=":J0_w0" fromLane="0" toLane="0" dir="s" state="M"/>
</net>
