<?xml version="1.0" encoding="UTF-8"?>

<!-- generated on 2025-03-12 14:35:44 by Eclipse SUMO netedit Version v1_22_0+0808-91687f8467b
This data file and the accompanying materials
are made available under the terms of the Eclipse Public License v2.0
which accompanies this distribution, and is available at
http://www.eclipse.org/legal/epl-v20.html
This file may also be made available under the following Secondary
Licenses when the conditions for such availability set forth in the Eclipse
Public License 2.0 are satisfied: GNU General Public License, version 2
or later which is available at
https://www.gnu.org/licenses/old-licenses/gpl-2.0-standalone.html
SPDX-License-Identifier: EPL-2.0 OR GPL-2.0-or-later
-->

<additional xmlns:xsi="http://www.w3.org/2001/XMLSchema-instance" xsi:noNamespaceSchemaLocation="http://sumo.dlr.de/xsd/additional_file.xsd">
    <!-- StoppingPlaces -->
    <parkingArea id="parkingArea_1" name="parkingArea" lane="EdgeCenter1_0" startPos="-20.00" endPos="-10.00" friendlyPos="1" width="12.00" length="5.00"/>
    <parkingArea id="parkingArea_2" name="parkingArea" lane="EdgeCenter1_0" startPos="200.00" endPos="300.00" friendlyPos="1" width="12.00" length="5.00"/>
    <parkingArea id="parkingArea_3" name="parkingArea" lane="EdgeCenter1_0" startPos="50.00" endPos="20.00" friendlyPos="1" width="12.00" length="5.00"/>
    <parkingArea id="parkingArea_4" name="parkingArea" lane="EdgeCenter1_0" startPos="20.00" endPos="20.00" friendlyPos="1" width="12.00" length="5.00"/>
</additional>
