<?xml version="1.0" encoding="UTF-8"?>

<!-- generated on 2025-01-02 15:48:05 by Eclipse SUMO sumo Version v1_21_0+1635-bee1c8eab2a
<sumoConfiguration xmlns:xsi="http://www.w3.org/2001/XMLSchema-instance" xsi:noNamespaceSchemaLocation="http://sumo.dlr.de/xsd/sumoConfiguration.xsd">

    <input>
        <net-file value="net.net.xml"/>
        <route-files value="input_routes.rou.xml"/>
        <additional-files value="input_additional.add.xml"/>
    </input>

    <output>
        <save-state.times value="104"/>
        <save-state.files value="state.xml"/>
    </output>

    <time>
        <end value="200"/>
    </time>

    <processing>
        <default.speeddev value="0"/>
    </processing>

    <report>
        <verbose value="true"/>
        <duration-log.disable value="true"/>
        <no-step-log value="true"/>
    </report>

    <mesoscopic>
        <mesosim value="true"/>
    </mesoscopic>

</sumoConfiguration>
-->

<snapshot xmlns:xsi="http://www.w3.org/2001/XMLSchema-instance" xsi:noNamespaceSchemaLocation="http://sumo.dlr.de/xsd/state_file.xsd" version="v1_21_0+1635-bee1c8eab2a" time="104.00" type="meso">
    <delay number="0" begin="0" end="0" depart="0.00" time="0.00"/>
    <tlLogic id="C" programID="0" phase="0" duration="14000"/>
</snapshot>
