<?xml version="1.0" encoding="UTF-8"?>

<!-- generated on 2025-01-07 09:38:18 by Eclipse SUMO netconvert Version v1_21_0+1697-7fb9a6a7246
This data file and the accompanying materials
are made available under the terms of the Eclipse Public License v2.0
which accompanies this distribution, and is available at
http://www.eclipse.org/legal/epl-v20.html
This file may also be made available under the following Secondary
Licenses when the conditions for such availability set forth in the Eclipse
Public License 2.0 are satisfied: GNU General Public License, version 2
or later which is available at
https://www.gnu.org/licenses/old-licenses/gpl-2.0-standalone.html
SPDX-License-Identifier: EPL-2.0 OR GPL-2.0-or-later
<netconvertConfiguration xmlns:xsi="http://www.w3.org/2001/XMLSchema-instance" xsi:noNamespaceSchemaLocation="http://sumo.dlr.de/xsd/netconvertConfiguration.xsd">

    <input>
        <node-files value="input_plain.nod.xml"/>
        <edge-files value="input_plain.edg.xml"/>
        <connection-files value="input_plain.con.xml"/>
    </input>

    <output>
        <write-license value="true"/>
        <output-file value="net.net.xml"/>
    </output>

    <report>
        <xml-validation value="never"/>
    </report>

</netconvertConfiguration>
-->

<net version="1.20" junctionCornerDetail="5" limitTurnSpeed="5.50" xmlns:xsi="http://www.w3.org/2001/XMLSchema-instance" xsi:noNamespaceSchemaLocation="http://sumo.dlr.de/xsd/net_file.xsd">

    <location netOffset="400.00,100.00" convBoundary="0.00,0.00,600.00,200.00" origBoundary="-10000000000.00,-10000000000.00,10000000000.00,10000000000.00" projParameter="!"/>

    <edge id=":J0_0" function="internal">
        <lane id=":J0_0_0" index="0" disallow="pedestrian" speed="13.89" length="23.20" shape="310.00,101.60 286.80,101.60"/>
    </edge>
    <edge id=":J0_1" function="internal">
        <lane id=":J0_1_0" index="0" disallow="pedestrian" speed="13.89" length="23.20" shape="286.80,98.40 310.00,98.40"/>
    </edge>
    <edge id=":J0_c0" function="crossing" crossingEdges="E0 -E0">
        <lane id=":J0_c0_0" index="0" allow="pedestrian" speed="2.78" length="6.40" width="4.00" shape="298.40,96.80 298.40,103.20" outlineShape="300.40,96.70 300.40,103.30 296.40,103.20 296.40,96.80"/>
    </edge>
    <edge id=":J0_w0" function="walkingarea">
        <lane id=":J0_w0_0" index="0" allow="pedestrian" speed="2.78" length="15.08" width="4.00" shape="286.80,103.20 286.80,105.20 296.80,115.20 300.00,115.20 310.00,105.20 310.00,103.20 300.40,103.20 296.40,103.20"/>
    </edge>
    <edge id=":J0_w1" function="walkingarea">
        <lane id=":J0_w1_0" index="0" allow="pedestrian" speed="2.78" length="15.08" width="4.00" shape="296.40,96.80 300.40,96.80 310.00,96.80 310.00,94.80 300.00,84.80 296.80,84.80 286.80,94.80 286.80,96.80"/>
    </edge>
    <edge id=":J1_0" function="internal">
        <lane id=":J1_0_0" index="0" disallow="pedestrian" speed="13.89" length="6.20" shape="401.50,101.60 395.30,101.60"/>
    </edge>
    <edge id=":J1_1" function="internal">
        <lane id=":J1_1_0" index="0" disallow="pedestrian" speed="13.89" length="6.20" shape="395.30,98.40 401.50,98.40"/>
    </edge>
    <edge id=":J1_c0" function="crossing" crossingEdges="E1 -E1">
        <lane id=":J1_c0_0" index="0" allow="pedestrian" speed="2.78" length="6.40" width="4.00" shape="398.40,96.80 398.40,103.20" outlineShape="400.40,96.70 400.40,103.30 396.40,103.20 396.40,96.80"/>
    </edge>
    <edge id=":J1_w0" function="walkingarea">
        <lane id=":J1_w0_0" index="0" allow="pedestrian" speed="2.78" length="4.03" width="4.00" shape="395.30,103.20 395.30,105.20 396.80,106.70 400.00,106.70 401.50,105.20 401.50,103.20 400.40,103.20 396.40,103.20"/>
    </edge>
    <edge id=":J1_w1" function="walkingarea">
        <lane id=":J1_w1_0" index="0" allow="pedestrian" speed="2.78" length="4.03" width="4.00" shape="396.40,96.80 400.40,96.80 401.50,96.80 401.50,94.80 400.00,93.30 396.80,93.30 395.30,94.80 395.30,96.80"/>
    </edge>
    <edge id=":J10_0" function="internal">
        <lane id=":J10_0_0" index="0" disallow="pedestrian" speed="13.89" length="15.20" shape="106.00,101.60 90.80,101.60"/>
    </edge>
    <edge id=":J10_c0" function="crossing" crossingEdges="-E9">
        <lane id=":J10_c0_0" index="0" allow="pedestrian" speed="2.78" length="3.20" width="4.00" shape="98.40,100.00 98.40,103.20" outlineShape="100.40,99.90 100.40,103.30 96.40,103.20 96.40,100.00"/>
    </edge>
    <edge id=":J10_w0" function="walkingarea">
        <lane id=":J10_w0_0" index="0" allow="pedestrian" speed="2.78" length="10.18" width="4.00" shape="90.80,103.20 90.80,105.20 106.00,105.20 106.00,103.20 100.40,103.20 96.40,103.20"/>
    </edge>
    <edge id=":J10_w1" function="walkingarea">
        <lane id=":J10_w1_0" index="0" allow="pedestrian" speed="2.78" length="6.00" width="4.00" shape="96.40,100.00 100.40,100.00 100.00,94.00 96.80,94.00"/>
    </edge>
    <edge id=":J2_0" function="internal">
        <lane id=":J2_0_0" index="0" disallow="pedestrian" speed="13.89" length="4.00" shape="502.00,101.60 498.00,101.60"/>
    </edge>
    <edge id=":J2_1" function="internal">
        <lane id=":J2_1_0" index="0" disallow="pedestrian" speed="13.89" length="4.00" shape="498.00,98.40 502.00,98.40"/>
    </edge>
    <edge id=":J2_c0" function="crossing" crossingEdges="E2 -E2">
        <lane id=":J2_c0_0" index="0" allow="pedestrian" speed="2.78" length="6.40" width="4.00" shape="500.00,96.80 500.00,103.20" outlineShape="502.00,96.70 502.00,103.30 498.00,104.20 498.00,105.20 502.00,105.20 502.00,103.20 498.00,103.20 498.00,96.80"/>
    </edge>
    <edge id=":J2_w0" function="walkingarea">
        <lane id=":J2_w0_0" index="0" allow="pedestrian" speed="2.78" length="2.82" width="4.00" shape="498.00,103.20 498.00,105.20 502.00,105.20 502.00,103.20 498.00,103.20"/>
    </edge>
    <edge id=":J2_w1" function="walkingarea">
        <lane id=":J2_w1_0" index="0" allow="pedestrian" speed="2.78" length="2.82" width="4.00" shape="498.00,96.80 502.00,96.80 502.00,94.80 498.00,94.80 498.00,96.80"/>
    </edge>
    <edge id=":J3_w0" function="walkingarea">
        <lane id=":J3_w0_0" index="0" allow="pedestrian" speed="2.78" length="8.40" width="2.00" shape="600.00,103.20 600.00,105.20 600.00,94.80 600.00,96.80"/>
    </edge>
    <edge id=":J6_0" function="internal">
        <lane id=":J6_0_0" index="0" disallow="pedestrian" speed="13.89" length="13.20" shape="205.00,101.60 191.80,101.60"/>
    </edge>
    <edge id=":J6_c0" function="crossing" crossingEdges="E5 -E5">
        <lane id=":J6_c0_0" index="0" allow="pedestrian" speed="2.78" length="6.40" width="4.00" shape="203.00,96.80 203.00,103.20" outlineShape="205.00,96.70 205.00,103.30 201.00,103.20 201.00,97.36 202.14,97.04"/>
    </edge>
    <edge id=":J6_w0" function="walkingarea">
        <lane id=":J6_w0_0" index="0" allow="pedestrian" speed="2.78" length="8.82" width="4.00" shape="191.80,103.20 191.80,105.20 196.80,110.20 200.00,110.20 205.00,105.20 205.00,103.20 201.00,103.20"/>
    </edge>
    <edge id=":J6_w1" function="walkingarea">
        <lane id=":J6_w1_0" index="0" allow="pedestrian" speed="2.78" length="2.24" width="4.00" shape="205.00,96.80 205.00,94.80 202.14,95.04 200.07,95.63 198.40,96.40 196.73,97.17 194.66,97.76 191.80,98.00 194.66,99.76 196.73,99.17 198.40,98.40 200.07,97.63 202.14,97.04"/>
    </edge>

    <edge id="-E0" from="J1" to="J0" priority="-1">
        <lane id="-E0_0" index="0" allow="pedestrian" speed="13.89" length="85.30" width="2.00" shape="395.30,104.20 310.00,104.20"/>
        <lane id="-E0_1" index="1" disallow="pedestrian" speed="13.89" length="85.30" shape="395.30,101.60 310.00,101.60"/>
    </edge>
    <edge id="-E1" from="J2" to="J1" priority="-1">
        <lane id="-E1_0" index="0" allow="pedestrian" speed="13.89" length="96.50" width="2.00" shape="498.00,104.20 401.50,104.20"/>
        <lane id="-E1_1" index="1" disallow="pedestrian" speed="13.89" length="96.50" shape="498.00,101.60 401.50,101.60"/>
    </edge>
    <edge id="-E2" from="J3" to="J2" priority="-1">
        <lane id="-E2_0" index="0" allow="pedestrian" speed="13.89" length="98.00" width="2.00" shape="600.00,104.20 502.00,104.20"/>
        <lane id="-E2_1" index="1" disallow="pedestrian" speed="13.89" length="98.00" shape="600.00,101.60 502.00,101.60"/>
    </edge>
    <edge id="-E5" from="J0" to="J6" priority="-1">
        <lane id="-E5_0" index="0" allow="pedestrian" speed="13.89" length="81.80" width="2.00" shape="286.80,104.20 205.00,104.20"/>
        <lane id="-E5_1" index="1" disallow="pedestrian" speed="13.89" length="81.80" shape="286.80,101.60 205.00,101.60"/>
    </edge>
    <edge id="-E9" from="J6" to="J10" priority="-1">
        <lane id="-E9_0" index="0" allow="pedestrian" speed="13.89" length="85.80" width="2.00" shape="191.80,104.20 106.00,104.20"/>
        <lane id="-E9_1" index="1" disallow="pedestrian" speed="13.89" length="85.80" shape="191.80,101.60 106.00,101.60"/>
    </edge>
    <edge id="E0" from="J0" to="J1" priority="-1">
        <lane id="E0_0" index="0" allow="pedestrian" speed="13.89" length="85.30" width="2.00" shape="310.00,95.80 395.30,95.80"/>
        <lane id="E0_1" index="1" disallow="pedestrian" speed="13.89" length="85.30" shape="310.00,98.40 395.30,98.40"/>
    </edge>
    <edge id="E1" from="J1" to="J2" priority="-1">
        <lane id="E1_0" index="0" allow="pedestrian" speed="13.89" length="96.50" width="2.00" shape="401.50,95.80 498.00,95.80"/>
        <lane id="E1_1" index="1" disallow="pedestrian" speed="13.89" length="96.50" shape="401.50,98.40 498.00,98.40"/>
    </edge>
    <edge id="E10" from="J10" to="J12" priority="-1">
        <lane id="E10_0" index="0" allow="pedestrian" speed="13.89" length="94.00" shape="98.40,94.00 98.40,0.00"/>
    </edge>
    <edge id="E2" from="J2" to="J3" priority="-1">
        <lane id="E2_0" index="0" allow="pedestrian" speed="13.89" length="98.00" width="2.00" shape="502.00,95.80 600.00,95.80"/>
        <lane id="E2_1" index="1" disallow="pedestrian" speed="13.89" length="98.00" shape="502.00,98.40 600.00,98.40"/>
    </edge>
    <edge id="E3" from="J4" to="J1" priority="-1">
        <lane id="E3_0" index="0" allow="pedestrian" speed="13.89" length="93.30" shape="398.40,200.00 398.40,106.70"/>
    </edge>
    <edge id="E4" from="J1" to="J5" priority="-1">
        <lane id="E4_0" index="0" allow="pedestrian" speed="13.89" length="93.30" shape="398.40,93.30 398.40,0.00"/>
    </edge>
    <edge id="E5" from="J6" to="J0" priority="-1">
        <lane id="E5_0" index="0" allow="pedestrian" speed="13.89" length="81.80" width="2.00" shape="205.00,95.80 286.80,95.80"/>
        <lane id="E5_1" index="1" disallow="pedestrian" speed="13.89" length="81.80" shape="205.00,98.40 286.80,98.40"/>
    </edge>
    <edge id="E6" from="J7" to="J0" priority="-1">
        <lane id="E6_0" index="0" allow="pedestrian" speed="13.89" length="84.80" shape="298.40,200.00 298.40,115.20"/>
    </edge>
    <edge id="E7" from="J0" to="J8" priority="-1">
        <lane id="E7_0" index="0" allow="pedestrian" speed="13.89" length="84.80" shape="298.40,84.80 298.40,0.00"/>
    </edge>
    <edge id="E8" from="J9" to="J6" priority="-1">
        <lane id="E8_0" index="0" allow="pedestrian" speed="13.89" length="89.80" shape="198.40,200.00 198.40,110.20"/>
    </edge>
    <edge id="E9" from="J10" to="J11" priority="-1">
        <lane id="E9_0" index="0" allow="pedestrian" speed="13.89" length="90.80" width="2.00" shape="90.80,104.20 0.00,104.20"/>
        <lane id="E9_1" index="1" disallow="pedestrian" speed="13.89" length="90.80" shape="90.80,101.60 0.00,101.60"/>
    </edge>

    <junction id="J0" type="priority" x="300.00" y="100.00" incLanes="E6_0 -E0_0 -E0_1 E5_0 E5_1 :J0_w1_0" intLanes=":J0_0_0 :J0_1_0 :J0_c0_0" shape="296.80,115.20 300.00,115.20 300.28,112.14 301.11,109.64 302.50,107.70 304.44,106.31 306.94,105.48 310.00,105.20 310.00,94.80 306.94,94.52 304.44,93.69 302.50,92.30 301.11,90.36 300.28,87.86 300.00,84.80 296.80,84.80 296.52,87.86 295.69,90.36 294.30,92.30 292.36,93.69 289.86,94.52 286.80,94.80 286.80,105.20 289.86,105.48 292.36,106.31 294.30,107.70 295.69,109.64 296.52,112.14" radius="10.00">
        <request index="0" response="000" foes="100" cont="0"/>
        <request index="1" response="000" foes="100" cont="0"/>
        <request index="2" response="011" foes="011" cont="0"/>
    </junction>
    <junction id="J1" type="priority" x="400.00" y="100.00" incLanes="E3_0 -E1_0 -E1_1 E0_0 E0_1 :J1_w1_0" intLanes=":J1_0_0 :J1_1_0 :J1_c0_0" shape="396.80,106.70 400.00,106.70 400.17,105.87 400.38,105.58 400.67,105.37 401.04,105.24 401.50,105.20 401.50,94.80 400.67,94.63 400.38,94.42 400.17,94.13 400.04,93.76 400.00,93.30 396.80,93.30 396.63,94.13 396.42,94.42 396.13,94.63 395.76,94.76 395.30,94.80 395.30,105.20 396.13,105.37 396.42,105.58 396.63,105.87 396.76,106.24">
        <request index="0" response="000" foes="100" cont="0"/>
        <request index="1" response="000" foes="100" cont="0"/>
        <request index="2" response="011" foes="011" cont="0"/>
    </junction>
    <junction id="J10" type="priority" x="100.00" y="100.00" incLanes="-E9_0 -E9_1 :J10_w1_0" intLanes=":J10_0_0 :J10_c0_0" shape="106.00,105.20 106.00,100.00 102.67,99.33 101.50,98.50 100.67,97.33 100.17,95.83 100.00,94.00 96.80,94.00 96.13,97.33 95.30,98.50 94.13,99.33 92.63,99.83 90.80,100.00 90.80,105.20" radius="6.00">
        <request index="0" response="00" foes="10" cont="0"/>
        <request index="1" response="01" foes="01" cont="0"/>
    </junction>
    <junction id="J11" type="dead_end" x="0.00" y="100.00" incLanes="E9_0 E9_1" intLanes="" shape="0.00,105.20 0.00,100.00"/>
    <junction id="J12" type="dead_end" x="100.00" y="0.00" incLanes="E10_0" intLanes="" shape="96.80,0.00 100.00,0.00"/>
    <junction id="J2" type="priority" x="500.00" y="100.00" incLanes="-E2_0 -E2_1 E1_0 E1_1 :J2_w1_0" intLanes=":J2_0_0 :J2_1_0 :J2_c0_0" shape="502.00,105.20 502.00,94.80 498.00,94.80 498.00,105.20">
        <request index="0" response="000" foes="100" cont="0"/>
        <request index="1" response="000" foes="100" cont="0"/>
        <request index="2" response="011" foes="011" cont="0"/>
    </junction>
    <junction id="J3" type="dead_end" x="600.00" y="100.00" incLanes="E2_0 E2_1" intLanes="" shape="600.00,100.00 600.00,94.80 600.00,100.00"/>
    <junction id="J4" type="dead_end" x="400.00" y="200.00" incLanes="" intLanes="" shape="400.00,200.00 396.80,200.00"/>
    <junction id="J5" type="dead_end" x="400.00" y="0.00" incLanes="E4_0" intLanes="" shape="396.80,0.00 400.00,0.00"/>
    <junction id="J6" type="priority" x="200.00" y="100.00" incLanes="E8_0 -E5_0 -E5_1 :J6_w1_0" intLanes=":J6_0_0 :J6_c0_0" shape="196.80,110.20 200.00,110.20 200.56,107.42 201.25,106.45 202.22,105.76 203.47,105.34 205.00,105.20 205.00,94.80 202.05,95.19 200.00,96.15 196.80,98.65 194.75,99.61 191.80,100.00 191.80,105.20 194.58,105.76 195.55,106.45 196.24,107.42 196.66,108.67" radius="5.00">
        <request index="0" response="00" foes="10" cont="0"/>
        <request index="1" response="01" foes="01" cont="0"/>
    </junction>
    <junction id="J7" type="dead_end" x="300.00" y="200.00" incLanes="" intLanes="" shape="300.00,200.00 296.80,200.00"/>
    <junction id="J8" type="dead_end" x="300.00" y="0.00" incLanes="E7_0" intLanes="" shape="296.80,0.00 300.00,0.00"/>
    <junction id="J9" type="dead_end" x="200.00" y="200.00" incLanes="" intLanes="" shape="200.00,200.00 196.80,200.00"/>

    <connection from="-E0" to="-E5" fromLane="1" toLane="1" via=":J0_0_0" dir="s" state="M"/>
    <connection from="-E1" to="-E0" fromLane="1" toLane="1" via=":J1_0_0" dir="s" state="M"/>
    <connection from="-E2" to="-E1" fromLane="1" toLane="1" via=":J2_0_0" dir="s" state="M"/>
    <connection from="-E5" to="-E9" fromLane="1" toLane="1" via=":J6_0_0" dir="s" state="M"/>
    <connection from="-E9" to="E9" fromLane="1" toLane="1" via=":J10_0_0" dir="s" state="M"/>
    <connection from="E0" to="E1" fromLane="1" toLane="1" via=":J1_1_0" dir="s" state="M"/>
    <connection from="E1" to="E2" fromLane="1" toLane="1" via=":J2_1_0" dir="s" state="M"/>
    <connection from="E5" to="E0" fromLane="1" toLane="1" via=":J0_1_0" dir="s" state="M"/>

    <connection from=":J0_0" to="-E5" fromLane="0" toLane="1" dir="s" state="M"/>
    <connection from=":J0_1" to="E0" fromLane="0" toLane="1" dir="s" state="M"/>
    <connection from=":J1_0" to="-E0" fromLane="0" toLane="1" dir="s" state="M"/>
    <connection from=":J1_1" to="E1" fromLane="0" toLane="1" dir="s" state="M"/>
    <connection from=":J10_0" to="E9" fromLane="0" toLane="1" dir="s" state="M"/>
    <connection from=":J2_0" to="-E1" fromLane="0" toLane="1" dir="s" state="M"/>
    <connection from=":J2_1" to="E2" fromLane="0" toLane="1" dir="s" state="M"/>
    <connection from=":J6_0" to="-E9" fromLane="0" toLane="1" dir="s" state="M"/>

    <connection from=":J0_c0" to=":J0_w0" fromLane="0" toLane="0" dir="s" state="M"/>
    <connection from=":J0_w0" to="-E5" fromLane="0" toLane="0" dir="s" state="M"/>
    <connection from="E6" to=":J0_w0" fromLane="0" toLane="0" dir="s" state="M"/>
    <connection from="-E0" to=":J0_w0" fromLane="0" toLane="0" dir="s" state="M"/>
    <connection from=":J0_w1" to=":J0_c0" fromLane="0" toLane="0" dir="s" state="m"/>
    <connection from=":J0_w1" to="E0" fromLane="0" toLane="0" dir="s" state="M"/>
    <connection from=":J0_w1" to="E7" fromLane="0" toLane="0" dir="s" state="M"/>
    <connection from="E5" to=":J0_w1" fromLane="0" toLane="0" dir="s" state="M"/>
    <connection from=":J1_c0" to=":J1_w0" fromLane="0" toLane="0" dir="s" state="M"/>
    <connection from=":J1_w0" to="-E0" fromLane="0" toLane="0" dir="s" state="M"/>
    <connection from="E3" to=":J1_w0" fromLane="0" toLane="0" dir="s" state="M"/>
    <connection from="-E1" to=":J1_w0" fromLane="0" toLane="0" dir="s" state="M"/>
    <connection from=":J1_w1" to=":J1_c0" fromLane="0" toLane="0" dir="s" state="m"/>
    <connection from=":J1_w1" to="E1" fromLane="0" toLane="0" dir="s" state="M"/>
    <connection from=":J1_w1" to="E4" fromLane="0" toLane="0" dir="s" state="M"/>
    <connection from="E0" to=":J1_w1" fromLane="0" toLane="0" dir="s" state="M"/>
    <connection from=":J10_c0" to=":J10_w0" fromLane="0" toLane="0" dir="s" state="M"/>
    <connection from=":J10_w0" to="E9" fromLane="0" toLane="0" dir="s" state="M"/>
    <connection from="-E9" to=":J10_w0" fromLane="0" toLane="0" dir="s" state="M"/>
    <connection from=":J10_w1" to=":J10_c0" fromLane="0" toLane="0" dir="s" state="m"/>
    <connection from=":J10_w1" to="E10" fromLane="0" toLane="0" dir="s" state="M"/>
    <connection from=":J2_c0" to=":J2_w0" fromLane="0" toLane="0" dir="s" state="M"/>
    <connection from=":J2_w0" to="-E1" fromLane="0" toLane="0" dir="s" state="M"/>
    <connection from="-E2" to=":J2_w0" fromLane="0" toLane="0" dir="s" state="M"/>
    <connection from=":J2_w1" to=":J2_c0" fromLane="0" toLane="0" dir="s" state="m"/>
    <connection from=":J2_w1" to="E2" fromLane="0" toLane="0" dir="s" state="M"/>
    <connection from="E1" to=":J2_w1" fromLane="0" toLane="0" dir="s" state="M"/>
    <connection from=":J3_w0" to="-E2" fromLane="0" toLane="0" dir="s" state="M"/>
    <connection from="E2" to=":J3_w0" fromLane="0" toLane="0" dir="s" state="M"/>
    <connection from=":J6_c0" to=":J6_w0" fromLane="0" toLane="0" dir="s" state="M"/>
    <connection from=":J6_w0" to="-E9" fromLane="0" toLane="0" dir="s" state="M"/>
    <connection from="E8" to=":J6_w0" fromLane="0" toLane="0" dir="s" state="M"/>
    <connection from="-E5" to=":J6_w0" fromLane="0" toLane="0" dir="s" state="M"/>
    <connection from=":J6_w1" to=":J6_c0" fromLane="0" toLane="0" dir="s" state="m"/>
    <connection from=":J6_w1" to="E5" fromLane="0" toLane="0" dir="s" state="M"/>
</net>
