<?xml version="1.0" encoding="UTF-8"?>

<!-- generated on 2022-09-03 22:29:26 by Eclipse SUMO netconvert Version v1_14_1+0819-bf19e4679c8
This data file and the accompanying materials
are made available under the terms of the Eclipse Public License v2.0
which accompanies this distribution, and is available at
http://www.eclipse.org/legal/epl-v20.html
This file may also be made available under the following Secondary
Licenses when the conditions for such availability set forth in the Eclipse
Public License 2.0 are satisfied: GNU General Public License, version 2
or later which is available at
https://www.gnu.org/licenses/old-licenses/gpl-2.0-standalone.html
SPDX-License-Identifier: EPL-2.0 OR GPL-2.0-or-later
<configuration xmlns:xsi="http://www.w3.org/2001/XMLSchema-instance" xsi:noNamespaceSchemaLocation="http://sumo.dlr.de/xsd/netconvertConfiguration.xsd">

    <input>
        <osm-files value="osm.xml"/>
    </input>

    <output>
        <write-license value="true"/>
        <ptstop-output value="additional.xml"/>
        <ptline-output value="ptlines.xml"/>
        <ptline-clean-up value="true"/>
    </output>

    <projection>
        <proj.utm value="true"/>
    </projection>

    <junctions>
        <no-internal-links value="true"/>
    </junctions>

    <report>
        <xml-validation value="never"/>
    </report>

</configuration>
-->

<additional xmlns:xsi="http://www.w3.org/2001/XMLSchema-instance" xsi:noNamespaceSchemaLocation="http://sumo.dlr.de/xsd/additional_file.xsd">
    <busStop id="-1711953915" name="Ahrensburg, Klaus-Groth-Straße" lane="-11646390_0" startPos="0.00" endPos="15.00" friendlyPos="true" lines="474 569 8110"/>
    <busStop id="-1711953916" name="Ahrensburg, Klaus-Groth-Straße" lane="-11646390_0" startPos="0.00" endPos="15.00" friendlyPos="true" lines="476 769"/>
    <busStop id="-1792502642" name="Ahrensburg, Reesenbüttler Graben" lane="-76424358_0" startPos="65.11" endPos="80.11" friendlyPos="true" lines="669 769"/>
    <busStop id="-2705494849" name="Ahrensburg, Fritz-Reuter-Straße" lane="-39546438_0" startPos="42.50" endPos="57.50" friendlyPos="true" lines="576"/>
    <busStop id="-8341032348" name="Ahrensburg, Grauer Esel" lane="-19431426#9_0" startPos="90.43" endPos="105.43" friendlyPos="true" lines="576"/>
    <busStop id="1711953915" name="Ahrensburg, Klaus-Groth-Straße" lane="11646390_0" startPos="39.04" endPos="54.04" friendlyPos="true" lines="476"/>
    <busStop id="1711953916" name="Ahrensburg, Klaus-Groth-Straße" lane="11646390_0" startPos="39.04" endPos="54.04" friendlyPos="true" lines="569 474 8110 769"/>
    <busStop id="1711974496" name="Ahrensburg, Rathaus" lane="206357901#0_0" startPos="16.78" endPos="31.78" friendlyPos="true" lines="576 476 569 474"/>
    <busStop id="1711974498" name="Ahrensburg, Rathaus" lane="297003189#5_0" startPos="0.00" endPos="13.78" friendlyPos="true" lines="476 474 569 576 8110 769"/>
    <busStop id="2705494849" name="Ahrensburg, Fritz-Reuter-Straße" lane="39546438_0" startPos="103.56" endPos="118.56" friendlyPos="true" lines="576 369 776"/>
    <busStop id="69420884" name="Ahrensburg, Reesenbüttler Graben" lane="76424358_0" startPos="12.26" endPos="27.26" friendlyPos="true" lines="369 769 776"/>
    <busStop id="8341032348" name="Ahrensburg, Grauer Esel" lane="19431426#9_0" startPos="3.05" endPos="18.05" friendlyPos="true" lines="576 769"/>
</additional>
