<?xml version="1.0" encoding="UTF-8"?>

<!-- generated on 2022-10-27 19:38:12.169544 by gtfs2pt.py v1_14_1+2037-b02c27f7349
<configuration>
    <begin value="72000"/>
    <date value="20201111"/>
    <end value="115200"/>
    <gtfs value="gtfs.zip"/>
    <modes value="bus"/>
    <network value="net.net.xml"/>
    <vtype-output value="vehtypes.xml"/>
</configuration>
-->

<routes xmlns:xsi="http://www.w3.org/2001/XMLSchema-instance" xsi:noNamespaceSchemaLocation="http://sumo.dlr.de/xsd/routes_file.xsd">
    <vehicle id="132244371.1" route="132244371" type="bus" depart="106370" line="132244371"/><!--620 Steterburg(Salzgitter) Danziger Straße-->
    <vehicle id="132185783.1" route="132185783" type="bus" depart="105290" line="132185783"/><!--418 Westpark-->
    <vehicle id="132185786.0" route="132185783" type="bus" depart="86090" line="132185783"/><!--418 Westpark-->
    <vehicle id="132185786.trimmed.0" route="132185786.trimmed" type="bus" depart="86570" line="132185786.trimmed"/><!--418 Westpark-->
    <vehicle id="132185978.0" route="132185783" type="bus" depart="91190" line="132185783"/><!--418 Westpark-->
    <vehicle id="132218462.1" route="132218462" type="bus" depart="109010" line="132218462"/><!--730 Braunschweig Rathaus-->
    <vehicle id="132194506.0" route="132194506" type="bus" depart="88910" line="132194506"/><!--429 Braunschweig Hauptbahnhof-->
    <vehicle id="132183536.0" route="132183536" type="bus" depart="87530" line="132183536"/><!--419 Braunschweig Hauptbahnhof-->
    <vehicle id="132183536.trimmed.0" route="132183536.trimmed" type="bus" depart="87530" line="132183536.trimmed"/><!--419 Braunschweig Hauptbahnhof-->
</routes>
