<routes xmlns:xsi="http://www.w3.org/2001/XMLSchema-instance" xsi:noNamespaceSchemaLocation="http://sumo.dlr.de/xsd/routes_file.xsd">
   <vType id="DEFAULT_VEHTYPE" sigma="0" maxSpeed="20"/>

   <route id="horizontal" edges="2fi 2si 1o 1fi 1si 2o 2fi"/>

   <vehicle id="000" route="horizontal" depart="000000" departPos="0"/>
   <vehicle id="001" route="horizontal" depart="001000" departPos="0"/>
   <vehicle id="002" route="horizontal" depart="002000" departPos="0"/>
</routes> 
