<?xml version="1.0" encoding="UTF-8"?>

<!-- generated on 2025-09-11 10:53:27 by Eclipse SUMO netedit Version v1_24_0+0748-bf5b9d8eeee
This data file and the accompanying materials
are made available under the terms of the Eclipse Public License v2.0
which accompanies this distribution, and is available at
http://www.eclipse.org/legal/epl-v20.html
This file may also be made available under the following Secondary
Licenses when the conditions for such availability set forth in the Eclipse
Public License 2.0 are satisfied: GNU General Public License, version 2
or later which is available at
https://www.gnu.org/licenses/old-licenses/gpl-2.0-standalone.html
SPDX-License-Identifier: EPL-2.0 OR GPL-2.0-or-later
<neteditConfiguration xmlns:xsi="http://www.w3.org/2001/XMLSchema-instance" xsi:noNamespaceSchemaLocation="http://sumo.dlr.de/xsd/neteditConfiguration.xsd">

    <input>
        <sumo-net-file value="D:\SUMO\tests\netedit\basic\files\save\joined_junctions\net.net.xml"/>
    </input>

    <output>
        <write-license value="true"/>
    </output>

    <processing>
        <geometry.min-radius.fix.railways value="false"/>
        <geometry.avoid-overlap value="false"/>
        <geometry.max-grade.fix value="false"/>
        <offset.disable-normalization value="true"/>
        <lefthand value="0"/>
    </processing>

    <junctions>
        <no-turnarounds value="true"/>
        <junctions.corner-detail value="5"/>
        <junctions.limit-turn-speed value="5.50"/>
        <rectangular-lane-cut value="0"/>
    </junctions>

    <pedestrian>
        <walkingareas value="0"/>
    </pedestrian>

    <netedit>
        <ignore-supermode-question value="true"/>
        <ignore.additionalelements value="0"/>
        <ignore.routeelements value="0"/>
        <force-saving value="true"/>
    </netedit>

    <visualisation>
        <gui-settings-file value="D:\SUMO\tests\netedit\basic\files\save\joined_junctions\gui-settings.xml"/>
        <window-size value="1280, 720"/>
        <window-pos value="50,50"/>
        <gui-testing value="true"/>
        <gui-testing.setting-output value="D:\SUMO\tests\netedit\basic\files\save\joined_junctions\guisettingsoutput.xml"/>
    </visualisation>

    <report>
        <no-warnings value="true"/>
        <error-log value="D:\SUMO\tests\netedit\basic\files\save\joined_junctions\log.txt"/>
    </report>

</neteditConfiguration>
-->

<edges version="1.20" xmlns:xsi="http://www.w3.org/2001/XMLSchema-instance" xsi:noNamespaceSchemaLocation="http://sumo.dlr.de/xsd/edges_file.xsd">
    <location netOffset="0.00,0.00" convBoundary="-60.00,-30.00,60.00,30.00" origBoundary="-10000000000.000000,-10000000000.000000,10000000000.000000,10000000000.000000" projParameter="+proj=merc +a=6378137 +b=6378137 +lat_ts=0.0 +lon_0=0.0 +x_0=0.0 +y_0=0 +k=1.0 +units=m +nadgrids=@null +wktext +no_defs"/>

    <edge id="-E1" from="clusterJ2_J4" to="clusterJ1_J3_J5_J6" priority="-1" numLanes="1" speed="13.89" shape="-30.00,10.00 -10.00,10.00"/>
    <edge id="-E10" from="J10" to="clusterJ1_J3_J5_J6" priority="-1" numLanes="1" speed="13.89" shape="-10.00,20.00 -10.00,10.00"/>
    <edge id="-E11" from="J11" to="clusterJ1_J3_J5_J6" priority="-1" numLanes="1" speed="13.89" shape="-10.00,-20.00 -10.00,-10.00"/>
    <edge id="-E12" from="J12" to="clusterJ1_J3_J5_J6" priority="-1" numLanes="1" speed="13.89" shape="10.00,-20.00 10.00,-10.00"/>
    <edge id="-E13" from="J13" to="clusterJ2_J4" priority="-1" numLanes="1" speed="13.89" shape="-40.00,10.00 -30.00,10.00"/>
    <edge id="-E14" from="J14" to="clusterJ2_J4" priority="-1" numLanes="1" speed="13.89" shape="-30.00,20.00 -30.00,10.00"/>
    <edge id="-E15" from="J15" to="clusterJ2_J4" priority="-1" numLanes="1" speed="13.89" shape="-40.00,-10.00 -30.00,-10.00"/>
    <edge id="-E16" from="J16" to="clusterJ2_J4" priority="-1" numLanes="1" speed="13.89" shape="-30.00,-20.00 -30.00,-10.00"/>
    <edge id="-E17" from="J17" to="clusterJ7_J8" priority="-1" numLanes="1" speed="13.89" shape="40.00,-10.00 30.00,-10.00"/>
    <edge id="-E18" from="J18" to="clusterJ7_J8" priority="-1" numLanes="1" speed="13.89" shape="30.00,-20.00 30.00,-10.00"/>
    <edge id="-E19" from="J19" to="clusterJ7_J8" priority="-1" numLanes="1" speed="13.89" shape="40.00,10.00 30.00,10.00"/>
    <edge id="-E2" from="clusterJ2_J4" to="clusterJ1_J3_J5_J6" priority="-1" numLanes="1" speed="13.89" shape="-30.00,-10.00 -10.00,-10.00"/>
    <edge id="-E20" from="J20" to="clusterJ7_J8" priority="-1" numLanes="1" speed="13.89" shape="30.00,20.00 30.00,10.00"/>
    <edge id="-E7" from="clusterJ7_J8" to="clusterJ1_J3_J5_J6" priority="-1" numLanes="1" speed="13.89" shape="30.00,10.00 10.00,10.00"/>
    <edge id="-E8" from="clusterJ1_J3_J5_J6" to="clusterJ7_J8" priority="-1" numLanes="1" speed="13.89" shape="10.00,-10.00 30.00,-10.00"/>
    <edge id="-E9" from="J9" to="clusterJ1_J3_J5_J6" priority="-1" numLanes="1" speed="13.89" shape="10.00,20.00 10.00,10.00"/>
    <edge id="E1" from="clusterJ1_J3_J5_J6" to="clusterJ2_J4" priority="-1" numLanes="1" speed="13.89" shape="-10.00,10.00 -30.00,10.00"/>
    <edge id="E10" from="clusterJ1_J3_J5_J6" to="J10" priority="-1" numLanes="1" speed="13.89" shape="-10.00,10.00 -10.00,20.00"/>
    <edge id="E11" from="clusterJ1_J3_J5_J6" to="J11" priority="-1" numLanes="1" speed="13.89" shape="-10.00,-10.00 -10.00,-20.00"/>
    <edge id="E12" from="clusterJ1_J3_J5_J6" to="J12" priority="-1" numLanes="1" speed="13.89" shape="10.00,-10.00 10.00,-20.00"/>
    <edge id="E13" from="clusterJ2_J4" to="J13" priority="-1" numLanes="1" speed="13.89" shape="-30.00,10.00 -40.00,10.00"/>
    <edge id="E14" from="clusterJ2_J4" to="J14" priority="-1" numLanes="1" speed="13.89" shape="-30.00,10.00 -30.00,20.00"/>
    <edge id="E15" from="clusterJ2_J4" to="J15" priority="-1" numLanes="1" speed="13.89" shape="-30.00,-10.00 -40.00,-10.00"/>
    <edge id="E16" from="clusterJ2_J4" to="J16" priority="-1" numLanes="1" speed="13.89" shape="-30.00,-10.00 -30.00,-20.00"/>
    <edge id="E17" from="clusterJ7_J8" to="J17" priority="-1" numLanes="1" speed="13.89" shape="30.00,-10.00 40.00,-10.00"/>
    <edge id="E18" from="clusterJ7_J8" to="J18" priority="-1" numLanes="1" speed="13.89" shape="30.00,-10.00 30.00,-20.00"/>
    <edge id="E19" from="clusterJ7_J8" to="J19" priority="-1" numLanes="1" speed="13.89" shape="30.00,10.00 40.00,10.00"/>
    <edge id="E2" from="clusterJ1_J3_J5_J6" to="clusterJ2_J4" priority="-1" numLanes="1" speed="13.89" shape="-10.00,-10.00 -30.00,-10.00"/>
    <edge id="E20" from="clusterJ7_J8" to="J20" priority="-1" numLanes="1" speed="13.89" shape="30.00,10.00 30.00,20.00"/>
    <edge id="E7" from="clusterJ1_J3_J5_J6" to="clusterJ7_J8" priority="-1" numLanes="1" speed="13.89" shape="10.00,10.00 30.00,10.00"/>
    <edge id="E8" from="clusterJ7_J8" to="clusterJ1_J3_J5_J6" priority="-1" numLanes="1" speed="13.89" shape="30.00,-10.00 10.00,-10.00"/>
    <edge id="E9" from="clusterJ1_J3_J5_J6" to="J9" priority="-1" numLanes="1" speed="13.89" shape="10.00,10.00 10.00,20.00"/>
    <edge id="EdgeExternBot" from="JunctionExtern0" to="JunctionExtern1" priority="-1" numLanes="1" speed="13.89" shape="-60.00,0.00 -45.00,0.00 -45.00,-25.00 -40.00,-30.00 40.00,-30.00 45.00,-25.00 45.00,0.00 60.00,0.00" length="175.00" width="3.00" disallow="pedestrian"/>
    <edge id="EdgeExternTop" from="JunctionExtern1" to="JunctionExtern0" priority="-1" numLanes="1" speed="13.89" shape="60.00,0.00 45.00,0.00 45.00,25.00 40.00,30.00 -40.00,30.00 -45.00,25.00 -45.00,0.00 -60.00,0.00" length="175.00" width="3.00" disallow="pedestrian"/>
</edges>
