<?xml version="1.0" encoding="UTF-8"?>

<!-- generated on Tue Mar 25 17:02:13 2014 by SUMO netconvert Version dev-SVN-r16023
<?xml version="1.0" encoding="UTF-8"?>

<configuration xmlns:xsi="http://www.w3.org/2001/XMLSchema-instance" xsi:noNamespaceSchemaLocation="http://sumo.dlr.de/xsd/netconvertConfiguration.xsd">

    <input>
        <node-files value="input_plain.nod.xml"/>
        <edge-files value="input_plain.edg.xml"/>
    </input>

    <output>
        <output-file value="net.net.xml"/>
        <plain-output-prefix value="plain"/>
    </output>

    <report>
        <xml-validation value="never"/>
    </report>

</configuration>
-->

<connections version="0.13" xmlns:xsi="http://www.w3.org/2001/XMLSchema-instance" xsi:noNamespaceSchemaLocation="http://sumo.dlr.de/xsd/connections_file.xsd">
    <connection from="gneE0" to="gneE4" fromLane="0" toLane="0"/>
    <connection from="gneE0" to="gneE4" fromLane="0" toLane="1"/>
    <connection from="gneE0" to="gneE2" fromLane="0" toLane="0"/>
    <connection from="gneE0" to="gneE2" fromLane="1" toLane="1"/>

    <connection from="gneE4" to="gneE5" fromLane="1" toLane="1"/>

    <connection from="gneE5" to="gneE2" fromLane="0" toLane="0"/>
    <connection from="gneE5" to="gneE2" fromLane="1" toLane="1"/>
    <connection from="gneE5" to="gneE4" fromLane="1" toLane="1"/>

</connections>
