<?xml version="1.0"?>

<!-- generated on 11/05/09 14:43:56 by SUMO sumo Version dev-SVN-r7945
<configuration>

    <input>
        <net-file value="net.net.xml"/>
        <additional-files value="input_routes.rou.xml,input_additional.add.xml,input_additional2.add.xml"/>
    </input>

    <time>
        <begin value="0"/>
        <end value="150"/>
    </time>

    <report>
        <no-duration-log value="true"/>
        <no-step-log value="true"/>
    </report>

</configuration>
-->

<netstats>
   <interval begin="0" end="15" id="dump_15">
      <edge id="4/1to3/1" sampledSeconds="23.00" traveltime="39.05" density="3.93" occupancy="1.96" waitingTime="0.00" speed="10.00" departed="2" arrived="0" entered="0" left="0" laneChangedFrom="0" laneChangedTo="0"/>
   </interval>
   <interval begin="15" end="30" id="dump_15">
      <edge id="4/1to3/1" sampledSeconds="30.00" traveltime="39.05" density="5.12" occupancy="2.56" waitingTime="0.00" speed="10.00" departed="0" arrived="0" entered="0" left="0" laneChangedFrom="0" laneChangedTo="0"/>
   </interval>
   <interval begin="30" end="45" id="dump_15">
      <edge id="3/1to2/1" sampledSeconds="24.90" traveltime="39.05" density="4.25" occupancy="2.13" waitingTime="0.00" speed="10.00" departed="0" arrived="0" entered="2" left="0" laneChangedFrom="0" laneChangedTo="0"/>
      <edge id="4/1to3/1" sampledSeconds="5.10" traveltime="39.05" density="0.87" occupancy="0.44" waitingTime="0.00" speed="10.00" departed="0" arrived="0" entered="0" left="2" laneChangedFrom="0" laneChangedTo="0"/>
   </interval>
   <interval begin="45" end="60" id="dump_15">
      <edge id="3/1to2/1" sampledSeconds="30.00" traveltime="39.05" density="5.12" occupancy="2.56" waitingTime="0.00" speed="10.00" departed="0" arrived="0" entered="0" left="0" laneChangedFrom="0" laneChangedTo="0"/>
   </interval>
   <interval begin="60" end="75" id="dump_15">
      <edge id="2/1to1/1" sampledSeconds="6.80" traveltime="39.05" density="1.16" occupancy="0.58" waitingTime="0.00" speed="10.00" departed="0" arrived="0" entered="2" left="0" laneChangedFrom="0" laneChangedTo="0"/>
      <edge id="3/1to2/1" sampledSeconds="23.20" traveltime="39.05" density="3.96" occupancy="1.98" waitingTime="0.00" speed="10.00" departed="0" arrived="0" entered="0" left="2" laneChangedFrom="0" laneChangedTo="0"/>
   </interval>
   <interval begin="75" end="90" id="dump_15">
      <edge id="2/1to1/1" sampledSeconds="30.00" traveltime="39.05" density="5.12" occupancy="2.56" waitingTime="0.00" speed="10.00" departed="0" arrived="0" entered="0" left="0" laneChangedFrom="0" laneChangedTo="0"/>
   </interval>
   <interval begin="90" end="105" id="dump_15">
      <edge id="2/1to1/1" sampledSeconds="30.00" traveltime="39.05" density="5.12" occupancy="2.56" waitingTime="0.00" speed="10.00" departed="0" arrived="0" entered="0" left="0" laneChangedFrom="0" laneChangedTo="0"/>
   </interval>
   <interval begin="105" end="120" id="dump_15">
      <edge id="1/1to0/1" sampledSeconds="1.70" traveltime="39.05" density="0.29" occupancy="0.15" waitingTime="0.00" speed="10.00" departed="0" arrived="2" entered="2" left="0" laneChangedFrom="0" laneChangedTo="0"/>
      <edge id="2/1to1/1" sampledSeconds="11.30" traveltime="39.05" density="1.93" occupancy="0.96" waitingTime="0.00" speed="10.00" departed="0" arrived="0" entered="0" left="2" laneChangedFrom="0" laneChangedTo="0"/>
   </interval>
   <interval begin="120" end="135" id="dump_15">
   </interval>
   <interval begin="135" end="150" id="dump_15">
   </interval>
</netstats>
