<?xml version="1.0" encoding="UTF-8"?>


<routes xmlns:xsi="http://www.w3.org/2001/XMLSchema-instance" xsi:noNamespaceSchemaLocation="http://sumo.dlr.de/xsd/routes_file.xsd">
    <vType id="default" vClass="passenger" color="red"/>

    <trip id="veh1" type="default" depart="1" departPos="1" arrivalPos="80" arrivalSpeed="0.00" from="gneE0" to="gneE3"/>
    <trip id="veh2" type="default" depart="2" departPos="1" arrivalPos="80" arrivalSpeed="0.00" from="gneE0" to="gneE3"/>
    <trip id="veh3" type="default" depart="3" departPos="1" arrivalPos="80" arrivalSpeed="0.00" from="gneE0" to="gneE3"/>
    <trip id="veh4" type="default" depart="4" departPos="1" arrivalPos="80" arrivalSpeed="0.00" from="gneE0" to="gneE3"/>
    <trip id="veh5" type="default" depart="5" departPos="1" arrivalPos="80" arrivalSpeed="0.00" from="gneE0" to="gneE3"/>
    <trip id="veh6" type="default" depart="6" departPos="1" arrivalPos="80" arrivalSpeed="0.00" from="gneE0" to="gneE3"/>
    <trip id="veh7" type="default" depart="7" departPos="1" arrivalPos="80" arrivalSpeed="0.00" from="gneE0" to="gneE3"/>
    <trip id="veh8" type="default" depart="8" departPos="1" arrivalPos="80" arrivalSpeed="0.00" from="gneE0" to="gneE3"/>
    <trip id="veh9" type="default" depart="9" departPos="1" arrivalPos="80" arrivalSpeed="0.00" from="gneE0" to="gneE3"/>
    <trip id="veh10" type="default" depart="10" departPos="1" arrivalPos="80" arrivalSpeed="0.00" from="gneE0" to="gneE3"/>
    <trip id="veh11" type="default" depart="11" departPos="1" arrivalPos="80" arrivalSpeed="0.00" from="gneE0" to="gneE3"/>
    <trip id="veh12" type="default" depart="12" departPos="1" arrivalPos="80" arrivalSpeed="0.00" from="gneE0" to="gneE3"/>
    <trip id="veh13" type="default" depart="13" departPos="1" arrivalPos="80" arrivalSpeed="0.00" from="gneE0" to="gneE3"/>
    <trip id="veh14" type="default" depart="14" departPos="1" arrivalPos="80" arrivalSpeed="0.00" from="gneE0" to="gneE3"/>
    <trip id="veh15" type="default" depart="15" departPos="1" arrivalPos="80" arrivalSpeed="0.00" from="gneE0" to="gneE3"/>
    <trip id="veh16" type="default" depart="16" departPos="1" arrivalPos="80" arrivalSpeed="0.00" from="gneE0" to="gneE3"/>
    <trip id="veh17" type="default" depart="17" departPos="1" arrivalPos="80" arrivalSpeed="0.00" from="gneE0" to="gneE3"/>
    <trip id="veh18" type="default" depart="18" departPos="1" arrivalPos="80" arrivalSpeed="0.00" from="gneE0" to="gneE3"/>
    <trip id="veh19" type="default" depart="19" departPos="1" arrivalPos="80" arrivalSpeed="0.00" from="gneE0" to="gneE3"/>
    <trip id="veh20" type="default" depart="20" departPos="1" arrivalPos="80" arrivalSpeed="0.00" from="gneE0" to="gneE3"/>
    <trip id="veh21" type="default" depart="21" departPos="1" arrivalPos="80" arrivalSpeed="0.00" from="gneE0" to="gneE3"/>
    <trip id="veh22" type="default" depart="22" departPos="1" arrivalPos="80" arrivalSpeed="0.00" from="gneE0" to="gneE3"/>
    <trip id="veh23" type="default" depart="23" departPos="1" arrivalPos="80" arrivalSpeed="0.00" from="gneE0" to="gneE3"/>
    <trip id="veh24" type="default" depart="24" departPos="1" arrivalPos="80" arrivalSpeed="0.00" from="gneE0" to="gneE3"/>
    <trip id="veh25" type="default" depart="25" departPos="1" arrivalPos="80" arrivalSpeed="0.00" from="gneE0" to="gneE3"/>
    <trip id="veh26" type="default" depart="26" departPos="1" arrivalPos="80" arrivalSpeed="0.00" from="gneE0" to="gneE3"/>
    <trip id="veh27" type="default" depart="27" departPos="1" arrivalPos="80" arrivalSpeed="0.00" from="gneE0" to="gneE3"/>
    <trip id="veh28" type="default" depart="28" departPos="1" arrivalPos="80" arrivalSpeed="0.00" from="gneE0" to="gneE3"/>
    <trip id="veh29" type="default" depart="29" departPos="1" arrivalPos="80" arrivalSpeed="0.00" from="gneE0" to="gneE3"/>
    <trip id="veh30" type="default" depart="30" departPos="1" arrivalPos="80" arrivalSpeed="0.00" from="gneE0" to="gneE3"/>
    <trip id="veh31" type="default" depart="31" departPos="1" arrivalPos="80" arrivalSpeed="0.00" from="gneE0" to="gneE3"/>
    <trip id="veh32" type="default" depart="32" departPos="1" arrivalPos="80" arrivalSpeed="0.00" from="gneE0" to="gneE3"/>
    <trip id="veh33" type="default" depart="33" departPos="1" arrivalPos="80" arrivalSpeed="0.00" from="gneE0" to="gneE3"/>
    <trip id="veh34" type="default" depart="34" departPos="1" arrivalPos="80" arrivalSpeed="0.00" from="gneE0" to="gneE3"/>
    <trip id="veh35" type="default" depart="35" departPos="1" arrivalPos="80" arrivalSpeed="0.00" from="gneE0" to="gneE3"/>
    <trip id="veh36" type="default" depart="36" departPos="1" arrivalPos="80" arrivalSpeed="0.00" from="gneE0" to="gneE3"/>
    <trip id="veh37" type="default" depart="37" departPos="1" arrivalPos="80" arrivalSpeed="0.00" from="gneE0" to="gneE3"/>
    <trip id="veh38" type="default" depart="38" departPos="1" arrivalPos="80" arrivalSpeed="0.00" from="gneE0" to="gneE3"/>
    <trip id="veh39" type="default" depart="39" departPos="1" arrivalPos="80" arrivalSpeed="0.00" from="gneE0" to="gneE3"/>
    <trip id="veh40" type="default" depart="40" departPos="1" arrivalPos="80" arrivalSpeed="0.00" from="gneE0" to="gneE3"/>
    <trip id="veh41" type="default" depart="41" departPos="1" arrivalPos="80" arrivalSpeed="0.00" from="gneE0" to="gneE3"/>
    <trip id="veh42" type="default" depart="42" departPos="1" arrivalPos="80" arrivalSpeed="0.00" from="gneE0" to="gneE3"/>
    <trip id="veh43" type="default" depart="43" departPos="1" arrivalPos="80" arrivalSpeed="0.00" from="gneE0" to="gneE3"/>
    <trip id="veh44" type="default" depart="44" departPos="1" arrivalPos="80" arrivalSpeed="0.00" from="gneE0" to="gneE3"/>
    <trip id="veh45" type="default" depart="45" departPos="1" arrivalPos="80" arrivalSpeed="0.00" from="gneE0" to="gneE3"/>
    <trip id="veh46" type="default" depart="46" departPos="1" arrivalPos="80" arrivalSpeed="0.00" from="gneE0" to="gneE3"/>
    <trip id="veh47" type="default" depart="47" departPos="1" arrivalPos="80" arrivalSpeed="0.00" from="gneE0" to="gneE3"/>
    <trip id="veh48" type="default" depart="48" departPos="1" arrivalPos="80" arrivalSpeed="0.00" from="gneE0" to="gneE3"/>
    <trip id="veh49" type="default" depart="49" departPos="1" arrivalPos="80" arrivalSpeed="0.00" from="gneE0" to="gneE3"/>
    <trip id="veh50" type="default" depart="50" departPos="1" arrivalPos="80" arrivalSpeed="0.00" from="gneE0" to="gneE3"/>
    <trip id="veh51" type="default" depart="51" departPos="1" arrivalPos="80" arrivalSpeed="0.00" from="gneE0" to="gneE3"/>
    <trip id="veh52" type="default" depart="52" departPos="1" arrivalPos="80" arrivalSpeed="0.00" from="gneE0" to="gneE3"/>
    <trip id="veh53" type="default" depart="53" departPos="1" arrivalPos="80" arrivalSpeed="0.00" from="gneE0" to="gneE3"/>
    <trip id="veh54" type="default" depart="54" departPos="1" arrivalPos="80" arrivalSpeed="0.00" from="gneE0" to="gneE3"/>
    <trip id="veh55" type="default" depart="55" departPos="1" arrivalPos="80" arrivalSpeed="0.00" from="gneE0" to="gneE3"/>
    <trip id="veh56" type="default" depart="56" departPos="1" arrivalPos="80" arrivalSpeed="0.00" from="gneE0" to="gneE3"/>
    <trip id="veh57" type="default" depart="57" departPos="1" arrivalPos="80" arrivalSpeed="0.00" from="gneE0" to="gneE3"/>
    <trip id="veh58" type="default" depart="58" departPos="1" arrivalPos="80" arrivalSpeed="0.00" from="gneE0" to="gneE3"/>
    <trip id="veh59" type="default" depart="59" departPos="1" arrivalPos="80" arrivalSpeed="0.00" from="gneE0" to="gneE3"/>
    <trip id="veh60" type="default" depart="60" departPos="1" arrivalPos="80" arrivalSpeed="0.00" from="gneE0" to="gneE3"/>
    <trip id="veh61" type="default" depart="61" departPos="1" arrivalPos="80" arrivalSpeed="0.00" from="gneE0" to="gneE3"/>
    <trip id="veh62" type="default" depart="62" departPos="1" arrivalPos="80" arrivalSpeed="0.00" from="gneE0" to="gneE3"/>
    <trip id="veh63" type="default" depart="63" departPos="1" arrivalPos="80" arrivalSpeed="0.00" from="gneE0" to="gneE3"/>
    <trip id="veh64" type="default" depart="64" departPos="1" arrivalPos="80" arrivalSpeed="0.00" from="gneE0" to="gneE3"/>
    <trip id="veh65" type="default" depart="65" departPos="1" arrivalPos="80" arrivalSpeed="0.00" from="gneE0" to="gneE3"/>
    <trip id="veh66" type="default" depart="66" departPos="1" arrivalPos="80" arrivalSpeed="0.00" from="gneE0" to="gneE3"/>
    <trip id="veh67" type="default" depart="67" departPos="1" arrivalPos="80" arrivalSpeed="0.00" from="gneE0" to="gneE3"/>
    <trip id="veh68" type="default" depart="68" departPos="1" arrivalPos="80" arrivalSpeed="0.00" from="gneE0" to="gneE3"/>
    <trip id="veh69" type="default" depart="69" departPos="1" arrivalPos="80" arrivalSpeed="0.00" from="gneE0" to="gneE3"/>
    <trip id="veh70" type="default" depart="70" departPos="1" arrivalPos="80" arrivalSpeed="0.00" from="gneE0" to="gneE3"/>
    <trip id="veh71" type="default" depart="71" departPos="1" arrivalPos="80" arrivalSpeed="0.00" from="gneE0" to="gneE3"/>
    <trip id="veh72" type="default" depart="72" departPos="1" arrivalPos="80" arrivalSpeed="0.00" from="gneE0" to="gneE3"/>
    <trip id="veh73" type="default" depart="73" departPos="1" arrivalPos="80" arrivalSpeed="0.00" from="gneE0" to="gneE3"/>
    <trip id="veh74" type="default" depart="74" departPos="1" arrivalPos="80" arrivalSpeed="0.00" from="gneE0" to="gneE3"/>
    <trip id="veh75" type="default" depart="75" departPos="1" arrivalPos="80" arrivalSpeed="0.00" from="gneE0" to="gneE3"/>
    <trip id="veh76" type="default" depart="76" departPos="1" arrivalPos="80" arrivalSpeed="0.00" from="gneE0" to="gneE3"/>
    <trip id="veh77" type="default" depart="77" departPos="1" arrivalPos="80" arrivalSpeed="0.00" from="gneE0" to="gneE3"/>
    <trip id="veh78" type="default" depart="78" departPos="1" arrivalPos="80" arrivalSpeed="0.00" from="gneE0" to="gneE3"/>
    <trip id="veh79" type="default" depart="79" departPos="1" arrivalPos="80" arrivalSpeed="0.00" from="gneE0" to="gneE3"/>
    <trip id="veh80" type="default" depart="80" departPos="1" arrivalPos="80" arrivalSpeed="0.00" from="gneE0" to="gneE3"/>
    <trip id="veh81" type="default" depart="81" departPos="1" arrivalPos="80" arrivalSpeed="0.00" from="gneE0" to="gneE3"/>
    <trip id="veh82" type="default" depart="82" departPos="1" arrivalPos="80" arrivalSpeed="0.00" from="gneE0" to="gneE3"/>
    <trip id="veh83" type="default" depart="83" departPos="1" arrivalPos="80" arrivalSpeed="0.00" from="gneE0" to="gneE3"/>
    <trip id="veh84" type="default" depart="84" departPos="1" arrivalPos="80" arrivalSpeed="0.00" from="gneE0" to="gneE3"/>
    <trip id="veh85" type="default" depart="85" departPos="1" arrivalPos="80" arrivalSpeed="0.00" from="gneE0" to="gneE3"/>
    <trip id="veh86" type="default" depart="86" departPos="1" arrivalPos="80" arrivalSpeed="0.00" from="gneE0" to="gneE3"/>
    <trip id="veh87" type="default" depart="87" departPos="1" arrivalPos="80" arrivalSpeed="0.00" from="gneE0" to="gneE3"/>
    <trip id="veh88" type="default" depart="88" departPos="1" arrivalPos="80" arrivalSpeed="0.00" from="gneE0" to="gneE3"/>
    <trip id="veh89" type="default" depart="89" departPos="1" arrivalPos="80" arrivalSpeed="0.00" from="gneE0" to="gneE3"/>
    <trip id="veh90" type="default" depart="90" departPos="1" arrivalPos="80" arrivalSpeed="0.00" from="gneE0" to="gneE3"/>
    <trip id="veh91" type="default" depart="91" departPos="1" arrivalPos="80" arrivalSpeed="0.00" from="gneE0" to="gneE3"/>
    <trip id="veh92" type="default" depart="92" departPos="1" arrivalPos="80" arrivalSpeed="0.00" from="gneE0" to="gneE3"/>
    <trip id="veh93" type="default" depart="93" departPos="1" arrivalPos="80" arrivalSpeed="0.00" from="gneE0" to="gneE3"/>
    <trip id="veh94" type="default" depart="94" departPos="1" arrivalPos="80" arrivalSpeed="0.00" from="gneE0" to="gneE3"/>
    <trip id="veh95" type="default" depart="95" departPos="1" arrivalPos="80" arrivalSpeed="0.00" from="gneE0" to="gneE3"/>
    <trip id="veh96" type="default" depart="96" departPos="1" arrivalPos="80" arrivalSpeed="0.00" from="gneE0" to="gneE3"/>
    <trip id="veh97" type="default" depart="97" departPos="1" arrivalPos="80" arrivalSpeed="0.00" from="gneE0" to="gneE3"/>
    <trip id="veh98" type="default" depart="98" departPos="1" arrivalPos="80" arrivalSpeed="0.00" from="gneE0" to="gneE3"/>
    <trip id="veh99" type="default" depart="99" departPos="1" arrivalPos="80" arrivalSpeed="0.00" from="gneE0" to="gneE3"/>
    <trip id="veh100" type="default" depart="100" departPos="1" arrivalPos="80" arrivalSpeed="0.00" from="gneE0" to="gneE3"/>
    <trip id="veh101" type="default" depart="101" departPos="1" arrivalPos="80" arrivalSpeed="0.00" from="gneE0" to="gneE3"/>
    <trip id="veh102" type="default" depart="102" departPos="1" arrivalPos="80" arrivalSpeed="0.00" from="gneE0" to="gneE3"/>
    <trip id="veh103" type="default" depart="103" departPos="1" arrivalPos="80" arrivalSpeed="0.00" from="gneE0" to="gneE3"/>
    <trip id="veh104" type="default" depart="104" departPos="1" arrivalPos="80" arrivalSpeed="0.00" from="gneE0" to="gneE3"/>
    <trip id="veh105" type="default" depart="105" departPos="1" arrivalPos="80" arrivalSpeed="0.00" from="gneE0" to="gneE3"/>
    <trip id="veh106" type="default" depart="106" departPos="1" arrivalPos="80" arrivalSpeed="0.00" from="gneE0" to="gneE3"/>
    <trip id="veh107" type="default" depart="107" departPos="1" arrivalPos="80" arrivalSpeed="0.00" from="gneE0" to="gneE3"/>
    <trip id="veh108" type="default" depart="108" departPos="1" arrivalPos="80" arrivalSpeed="0.00" from="gneE0" to="gneE3"/>
    <trip id="veh109" type="default" depart="109" departPos="1" arrivalPos="80" arrivalSpeed="0.00" from="gneE0" to="gneE3"/>
    <trip id="veh110" type="default" depart="110" departPos="1" arrivalPos="80" arrivalSpeed="0.00" from="gneE0" to="gneE3"/>
    <trip id="veh111" type="default" depart="111" departPos="1" arrivalPos="80" arrivalSpeed="0.00" from="gneE0" to="gneE3"/>
    <trip id="veh112" type="default" depart="112" departPos="1" arrivalPos="80" arrivalSpeed="0.00" from="gneE0" to="gneE3"/>
    <trip id="veh113" type="default" depart="113" departPos="1" arrivalPos="80" arrivalSpeed="0.00" from="gneE0" to="gneE3"/>
    <trip id="veh114" type="default" depart="114" departPos="1" arrivalPos="80" arrivalSpeed="0.00" from="gneE0" to="gneE3"/>
    <trip id="veh115" type="default" depart="115" departPos="1" arrivalPos="80" arrivalSpeed="0.00" from="gneE0" to="gneE3"/>
    <trip id="veh116" type="default" depart="116" departPos="1" arrivalPos="80" arrivalSpeed="0.00" from="gneE0" to="gneE3"/>
    <trip id="veh117" type="default" depart="117" departPos="1" arrivalPos="80" arrivalSpeed="0.00" from="gneE0" to="gneE3"/>
    <trip id="veh118" type="default" depart="118" departPos="1" arrivalPos="80" arrivalSpeed="0.00" from="gneE0" to="gneE3"/>
    <trip id="veh119" type="default" depart="119" departPos="1" arrivalPos="80" arrivalSpeed="0.00" from="gneE0" to="gneE3"/>
    <trip id="veh120" type="default" depart="120" departPos="1" arrivalPos="80" arrivalSpeed="0.00" from="gneE0" to="gneE3"/>
    <trip id="veh121" type="default" depart="121" departPos="1" arrivalPos="80" arrivalSpeed="0.00" from="gneE0" to="gneE3"/>
    <trip id="veh122" type="default" depart="122" departPos="1" arrivalPos="80" arrivalSpeed="0.00" from="gneE0" to="gneE3"/>
    <trip id="veh123" type="default" depart="123" departPos="1" arrivalPos="80" arrivalSpeed="0.00" from="gneE0" to="gneE3"/>
    <trip id="veh124" type="default" depart="124" departPos="1" arrivalPos="80" arrivalSpeed="0.00" from="gneE0" to="gneE3"/>
    <trip id="veh125" type="default" depart="125" departPos="1" arrivalPos="80" arrivalSpeed="0.00" from="gneE0" to="gneE3"/>
    <trip id="veh126" type="default" depart="126" departPos="1" arrivalPos="80" arrivalSpeed="0.00" from="gneE0" to="gneE3"/>
    <trip id="veh127" type="default" depart="127" departPos="1" arrivalPos="80" arrivalSpeed="0.00" from="gneE0" to="gneE3"/>
    <trip id="veh128" type="default" depart="128" departPos="1" arrivalPos="80" arrivalSpeed="0.00" from="gneE0" to="gneE3"/>
    <trip id="veh129" type="default" depart="129" departPos="1" arrivalPos="80" arrivalSpeed="0.00" from="gneE0" to="gneE3"/>
    <trip id="veh130" type="default" depart="130" departPos="1" arrivalPos="80" arrivalSpeed="0.00" from="gneE0" to="gneE3"/>
    <trip id="veh131" type="default" depart="131" departPos="1" arrivalPos="80" arrivalSpeed="0.00" from="gneE0" to="gneE3"/>
    <trip id="veh132" type="default" depart="132" departPos="1" arrivalPos="80" arrivalSpeed="0.00" from="gneE0" to="gneE3"/>
    <trip id="veh133" type="default" depart="133" departPos="1" arrivalPos="80" arrivalSpeed="0.00" from="gneE0" to="gneE3"/>
    <trip id="veh134" type="default" depart="134" departPos="1" arrivalPos="80" arrivalSpeed="0.00" from="gneE0" to="gneE3"/>
    <trip id="veh135" type="default" depart="135" departPos="1" arrivalPos="80" arrivalSpeed="0.00" from="gneE0" to="gneE3"/>
    <trip id="veh136" type="default" depart="136" departPos="1" arrivalPos="80" arrivalSpeed="0.00" from="gneE0" to="gneE3"/>
    <trip id="veh137" type="default" depart="137" departPos="1" arrivalPos="80" arrivalSpeed="0.00" from="gneE0" to="gneE3"/>
    <trip id="veh138" type="default" depart="138" departPos="1" arrivalPos="80" arrivalSpeed="0.00" from="gneE0" to="gneE3"/>
    <trip id="veh139" type="default" depart="139" departPos="1" arrivalPos="80" arrivalSpeed="0.00" from="gneE0" to="gneE3"/>
    <trip id="veh140" type="default" depart="140" departPos="1" arrivalPos="80" arrivalSpeed="0.00" from="gneE0" to="gneE3"/>
    <trip id="veh141" type="default" depart="141" departPos="1" arrivalPos="80" arrivalSpeed="0.00" from="gneE0" to="gneE3"/>
    <trip id="veh142" type="default" depart="142" departPos="1" arrivalPos="80" arrivalSpeed="0.00" from="gneE0" to="gneE3"/>
    <trip id="veh143" type="default" depart="143" departPos="1" arrivalPos="80" arrivalSpeed="0.00" from="gneE0" to="gneE3"/>
    <trip id="veh144" type="default" depart="144" departPos="1" arrivalPos="80" arrivalSpeed="0.00" from="gneE0" to="gneE3"/>
    <trip id="veh145" type="default" depart="145" departPos="1" arrivalPos="80" arrivalSpeed="0.00" from="gneE0" to="gneE3"/>
    <trip id="veh146" type="default" depart="146" departPos="1" arrivalPos="80" arrivalSpeed="0.00" from="gneE0" to="gneE3"/>
    <trip id="veh147" type="default" depart="147" departPos="1" arrivalPos="80" arrivalSpeed="0.00" from="gneE0" to="gneE3"/>
    <trip id="veh148" type="default" depart="148" departPos="1" arrivalPos="80" arrivalSpeed="0.00" from="gneE0" to="gneE3"/>
    <trip id="veh149" type="default" depart="149" departPos="1" arrivalPos="80" arrivalSpeed="0.00" from="gneE0" to="gneE3"/>
    <trip id="veh150" type="default" depart="150" departPos="1" arrivalPos="80" arrivalSpeed="0.00" from="gneE0" to="gneE3"/>
    <trip id="veh151" type="default" depart="151" departPos="1" arrivalPos="80" arrivalSpeed="0.00" from="gneE0" to="gneE3"/>
    <trip id="veh152" type="default" depart="152" departPos="1" arrivalPos="80" arrivalSpeed="0.00" from="gneE0" to="gneE3"/>
    <trip id="veh153" type="default" depart="153" departPos="1" arrivalPos="80" arrivalSpeed="0.00" from="gneE0" to="gneE3"/>
    <trip id="veh154" type="default" depart="154" departPos="1" arrivalPos="80" arrivalSpeed="0.00" from="gneE0" to="gneE3"/>
    <trip id="veh155" type="default" depart="155" departPos="1" arrivalPos="80" arrivalSpeed="0.00" from="gneE0" to="gneE3"/>
    <trip id="veh156" type="default" depart="156" departPos="1" arrivalPos="80" arrivalSpeed="0.00" from="gneE0" to="gneE3"/>
    <trip id="veh157" type="default" depart="157" departPos="1" arrivalPos="80" arrivalSpeed="0.00" from="gneE0" to="gneE3"/>
    <trip id="veh158" type="default" depart="158" departPos="1" arrivalPos="80" arrivalSpeed="0.00" from="gneE0" to="gneE3"/>
    <trip id="veh159" type="default" depart="159" departPos="1" arrivalPos="80" arrivalSpeed="0.00" from="gneE0" to="gneE3"/>
    <trip id="veh160" type="default" depart="160" departPos="1" arrivalPos="80" arrivalSpeed="0.00" from="gneE0" to="gneE3"/>
    <trip id="veh161" type="default" depart="161" departPos="1" arrivalPos="80" arrivalSpeed="0.00" from="gneE0" to="gneE3"/>
    <trip id="veh162" type="default" depart="162" departPos="1" arrivalPos="80" arrivalSpeed="0.00" from="gneE0" to="gneE3"/>
    <trip id="veh163" type="default" depart="163" departPos="1" arrivalPos="80" arrivalSpeed="0.00" from="gneE0" to="gneE3"/>
    <trip id="veh164" type="default" depart="164" departPos="1" arrivalPos="80" arrivalSpeed="0.00" from="gneE0" to="gneE3"/>
    <trip id="veh165" type="default" depart="165" departPos="1" arrivalPos="80" arrivalSpeed="0.00" from="gneE0" to="gneE3"/>
    <trip id="veh166" type="default" depart="166" departPos="1" arrivalPos="80" arrivalSpeed="0.00" from="gneE0" to="gneE3"/>
    <trip id="veh167" type="default" depart="167" departPos="1" arrivalPos="80" arrivalSpeed="0.00" from="gneE0" to="gneE3"/>
    <trip id="veh168" type="default" depart="168" departPos="1" arrivalPos="80" arrivalSpeed="0.00" from="gneE0" to="gneE3"/>
    <trip id="veh169" type="default" depart="169" departPos="1" arrivalPos="80" arrivalSpeed="0.00" from="gneE0" to="gneE3"/>
    <trip id="veh170" type="default" depart="170" departPos="1" arrivalPos="80" arrivalSpeed="0.00" from="gneE0" to="gneE3"/>
    <trip id="veh171" type="default" depart="171" departPos="1" arrivalPos="80" arrivalSpeed="0.00" from="gneE0" to="gneE3"/>
    <trip id="veh172" type="default" depart="172" departPos="1" arrivalPos="80" arrivalSpeed="0.00" from="gneE0" to="gneE3"/>
    <trip id="veh173" type="default" depart="173" departPos="1" arrivalPos="80" arrivalSpeed="0.00" from="gneE0" to="gneE3"/>
    <trip id="veh174" type="default" depart="174" departPos="1" arrivalPos="80" arrivalSpeed="0.00" from="gneE0" to="gneE3"/>
    <trip id="veh175" type="default" depart="175" departPos="1" arrivalPos="80" arrivalSpeed="0.00" from="gneE0" to="gneE3"/>
    <trip id="veh176" type="default" depart="176" departPos="1" arrivalPos="80" arrivalSpeed="0.00" from="gneE0" to="gneE3"/>
    <trip id="veh177" type="default" depart="177" departPos="1" arrivalPos="80" arrivalSpeed="0.00" from="gneE0" to="gneE3"/>
    <trip id="veh178" type="default" depart="178" departPos="1" arrivalPos="80" arrivalSpeed="0.00" from="gneE0" to="gneE3"/>
    <trip id="veh179" type="default" depart="179" departPos="1" arrivalPos="80" arrivalSpeed="0.00" from="gneE0" to="gneE3"/>
    <trip id="veh180" type="default" depart="180" departPos="1" arrivalPos="80" arrivalSpeed="0.00" from="gneE0" to="gneE3"/>
    <trip id="veh181" type="default" depart="181" departPos="1" arrivalPos="80" arrivalSpeed="0.00" from="gneE0" to="gneE3"/>
    <trip id="veh182" type="default" depart="182" departPos="1" arrivalPos="80" arrivalSpeed="0.00" from="gneE0" to="gneE3"/>
    <trip id="veh183" type="default" depart="183" departPos="1" arrivalPos="80" arrivalSpeed="0.00" from="gneE0" to="gneE3"/>
    <trip id="veh184" type="default" depart="184" departPos="1" arrivalPos="80" arrivalSpeed="0.00" from="gneE0" to="gneE3"/>
    <trip id="veh185" type="default" depart="185" departPos="1" arrivalPos="80" arrivalSpeed="0.00" from="gneE0" to="gneE3"/>
    <trip id="veh186" type="default" depart="186" departPos="1" arrivalPos="80" arrivalSpeed="0.00" from="gneE0" to="gneE3"/>
    <trip id="veh187" type="default" depart="187" departPos="1" arrivalPos="80" arrivalSpeed="0.00" from="gneE0" to="gneE3"/>
    <trip id="veh188" type="default" depart="188" departPos="1" arrivalPos="80" arrivalSpeed="0.00" from="gneE0" to="gneE3"/>
    <trip id="veh189" type="default" depart="189" departPos="1" arrivalPos="80" arrivalSpeed="0.00" from="gneE0" to="gneE3"/>
    <trip id="veh190" type="default" depart="190" departPos="1" arrivalPos="80" arrivalSpeed="0.00" from="gneE0" to="gneE3"/>
    <trip id="veh191" type="default" depart="191" departPos="1" arrivalPos="80" arrivalSpeed="0.00" from="gneE0" to="gneE3"/>
    <trip id="veh192" type="default" depart="192" departPos="1" arrivalPos="80" arrivalSpeed="0.00" from="gneE0" to="gneE3"/>
    <trip id="veh193" type="default" depart="193" departPos="1" arrivalPos="80" arrivalSpeed="0.00" from="gneE0" to="gneE3"/>
    <trip id="veh194" type="default" depart="194" departPos="1" arrivalPos="80" arrivalSpeed="0.00" from="gneE0" to="gneE3"/>
    <trip id="veh195" type="default" depart="195" departPos="1" arrivalPos="80" arrivalSpeed="0.00" from="gneE0" to="gneE3"/>
    <trip id="veh196" type="default" depart="196" departPos="1" arrivalPos="80" arrivalSpeed="0.00" from="gneE0" to="gneE3"/>
    <trip id="veh197" type="default" depart="197" departPos="1" arrivalPos="80" arrivalSpeed="0.00" from="gneE0" to="gneE3"/>
    <trip id="veh198" type="default" depart="198" departPos="1" arrivalPos="80" arrivalSpeed="0.00" from="gneE0" to="gneE3"/>
    <trip id="veh199" type="default" depart="199" departPos="1" arrivalPos="80" arrivalSpeed="0.00" from="gneE0" to="gneE3"/>
    <trip id="veh200" type="default" depart="200" departPos="1" arrivalPos="80" arrivalSpeed="0.00" from="gneE0" to="gneE3"/>
    <trip id="veh201" type="default" depart="201" departPos="1" arrivalPos="80" arrivalSpeed="0.00" from="gneE0" to="gneE3"/>
    <trip id="veh202" type="default" depart="202" departPos="1" arrivalPos="80" arrivalSpeed="0.00" from="gneE0" to="gneE3"/>
    <trip id="veh203" type="default" depart="203" departPos="1" arrivalPos="80" arrivalSpeed="0.00" from="gneE0" to="gneE3"/>
    <trip id="veh204" type="default" depart="204" departPos="1" arrivalPos="80" arrivalSpeed="0.00" from="gneE0" to="gneE3"/>
    <trip id="veh205" type="default" depart="205" departPos="1" arrivalPos="80" arrivalSpeed="0.00" from="gneE0" to="gneE3"/>
    <trip id="veh206" type="default" depart="206" departPos="1" arrivalPos="80" arrivalSpeed="0.00" from="gneE0" to="gneE3"/>
    <trip id="veh207" type="default" depart="207" departPos="1" arrivalPos="80" arrivalSpeed="0.00" from="gneE0" to="gneE3"/>
    <trip id="veh208" type="default" depart="208" departPos="1" arrivalPos="80" arrivalSpeed="0.00" from="gneE0" to="gneE3"/>
    <trip id="veh209" type="default" depart="209" departPos="1" arrivalPos="80" arrivalSpeed="0.00" from="gneE0" to="gneE3"/>
    <trip id="veh210" type="default" depart="210" departPos="1" arrivalPos="80" arrivalSpeed="0.00" from="gneE0" to="gneE3"/>
    <trip id="veh211" type="default" depart="211" departPos="1" arrivalPos="80" arrivalSpeed="0.00" from="gneE0" to="gneE3"/>
    <trip id="veh212" type="default" depart="212" departPos="1" arrivalPos="80" arrivalSpeed="0.00" from="gneE0" to="gneE3"/>
    <trip id="veh213" type="default" depart="213" departPos="1" arrivalPos="80" arrivalSpeed="0.00" from="gneE0" to="gneE3"/>
    <trip id="veh214" type="default" depart="214" departPos="1" arrivalPos="80" arrivalSpeed="0.00" from="gneE0" to="gneE3"/>
    <trip id="veh215" type="default" depart="215" departPos="1" arrivalPos="80" arrivalSpeed="0.00" from="gneE0" to="gneE3"/>
    <trip id="veh216" type="default" depart="216" departPos="1" arrivalPos="80" arrivalSpeed="0.00" from="gneE0" to="gneE3"/>
    <trip id="veh217" type="default" depart="217" departPos="1" arrivalPos="80" arrivalSpeed="0.00" from="gneE0" to="gneE3"/>
    <trip id="veh218" type="default" depart="218" departPos="1" arrivalPos="80" arrivalSpeed="0.00" from="gneE0" to="gneE3"/>
    <trip id="veh219" type="default" depart="219" departPos="1" arrivalPos="80" arrivalSpeed="0.00" from="gneE0" to="gneE3"/>
    <trip id="veh220" type="default" depart="220" departPos="1" arrivalPos="80" arrivalSpeed="0.00" from="gneE0" to="gneE3"/>
    <trip id="veh221" type="default" depart="221" departPos="1" arrivalPos="80" arrivalSpeed="0.00" from="gneE0" to="gneE3"/>
    <trip id="veh222" type="default" depart="222" departPos="1" arrivalPos="80" arrivalSpeed="0.00" from="gneE0" to="gneE3"/>
    <trip id="veh223" type="default" depart="223" departPos="1" arrivalPos="80" arrivalSpeed="0.00" from="gneE0" to="gneE3"/>
    <trip id="veh224" type="default" depart="224" departPos="1" arrivalPos="80" arrivalSpeed="0.00" from="gneE0" to="gneE3"/>
    <trip id="veh225" type="default" depart="225" departPos="1" arrivalPos="80" arrivalSpeed="0.00" from="gneE0" to="gneE3"/>
    <trip id="veh226" type="default" depart="226" departPos="1" arrivalPos="80" arrivalSpeed="0.00" from="gneE0" to="gneE3"/>
    <trip id="veh227" type="default" depart="227" departPos="1" arrivalPos="80" arrivalSpeed="0.00" from="gneE0" to="gneE3"/>
    <trip id="veh228" type="default" depart="228" departPos="1" arrivalPos="80" arrivalSpeed="0.00" from="gneE0" to="gneE3"/>
    <trip id="veh229" type="default" depart="229" departPos="1" arrivalPos="80" arrivalSpeed="0.00" from="gneE0" to="gneE3"/>
    <trip id="veh230" type="default" depart="230" departPos="1" arrivalPos="80" arrivalSpeed="0.00" from="gneE0" to="gneE3"/>
    <trip id="veh231" type="default" depart="231" departPos="1" arrivalPos="80" arrivalSpeed="0.00" from="gneE0" to="gneE3"/>
    <trip id="veh232" type="default" depart="232" departPos="1" arrivalPos="80" arrivalSpeed="0.00" from="gneE0" to="gneE3"/>
    <trip id="veh233" type="default" depart="233" departPos="1" arrivalPos="80" arrivalSpeed="0.00" from="gneE0" to="gneE3"/>
    <trip id="veh234" type="default" depart="234" departPos="1" arrivalPos="80" arrivalSpeed="0.00" from="gneE0" to="gneE3"/>
    <trip id="veh235" type="default" depart="235" departPos="1" arrivalPos="80" arrivalSpeed="0.00" from="gneE0" to="gneE3"/>
    <trip id="veh236" type="default" depart="236" departPos="1" arrivalPos="80" arrivalSpeed="0.00" from="gneE0" to="gneE3"/>
    <trip id="veh237" type="default" depart="237" departPos="1" arrivalPos="80" arrivalSpeed="0.00" from="gneE0" to="gneE3"/>