<?xml version="1.0" encoding="UTF-8"?>

<!-- generated on 2025-07-16 08:59:28 by Eclipse SUMO sumo Version v1_23_1+1098-b5f7c6a5135
<sumoConfiguration xmlns:xsi="http://www.w3.org/2001/XMLSchema-instance" xsi:noNamespaceSchemaLocation="http://sumo.dlr.de/xsd/sumoConfiguration.xsd">

    <input>
        <net-file value="net.net.xml"/>
        <route-files value="input_routes.rou.xml"/>
    </input>

    <output>
        <tripinfo-output value="tripinfo.xml"/>
        <save-state.times value="30"/>
        <save-state.files value="state.xml"/>
    </output>

    <time>
        <end value="31"/>
    </time>

    <processing>
        <default.speeddev value="0"/>
    </processing>

    <report>
        <verbose value="true"/>
        <log value="log.txt"/>
        <duration-log.disable value="true"/>
        <no-step-log value="true"/>
    </report>

    <mesoscopic>
        <mesosim value="true"/>
    </mesoscopic>

</sumoConfiguration>
-->

<snapshot type="meso" version="v1_23_1+1098-b5f7c6a5135" time="30.00" xmlns:xsi="http://www.w3.org/2001/XMLSchema-instance" xsi:noNamespaceSchemaLocation="http://sumo.dlr.de/xsd/state_file.xsd">
    <delay number="1" begin="2" end="1" depart="5.00" time="22.00"/>
    <vType id="t0" sigma="0"/>
    <vehicle id="v1.0" type="t0" depart="2.00" route="!v1#1" distance="7 0" speedFactor="1.0000" state="194 7000 1 0 1 0 30028 22829 9223372036854774807">
        <device id="tripinfo_v1.0" state="beg_0 0.811124 7 0 0 0 0 -1 -1000 NONE -1 0 -1"/>
        <rem id="tripinfo_v1.0" time="22829" pos="100.00"/>
    </vehicle>
    <segment id="beg:0">
        <vehicles time="24260" blockTime="-9223372036854775808" value=""/>
    </segment>
    <segment id="middle:0">
        <vehicles time="24498" blockTime="17298" value=""/>
    </segment>
    <segment id="middle:1">
        <vehicles time="21398" blockTime="24497" value="v1.0"/>
    </segment>
</snapshot>
