<?xml version="1.0" encoding="UTF-8"?>

<!-- generated on 2023-06-19 12:12:57 by Eclipse SUMO sumo Version v1_17_0+1015-ff0718a
<configuration xmlns:xsi="http://www.w3.org/2001/XMLSchema-instance" xsi:noNamespaceSchemaLocation="http://sumo.dlr.de/xsd/sumoConfiguration.xsd">

    <input>
        <net-file value="net.net.xml"/>
        <route-files value="input_routes.rou.xml"/>
    </input>

    <output>
        <tripinfo-output value="tripinfo.xml"/>
        <save-state.times value="30"/>
        <save-state.files value="state.xml"/>
    </output>

    <time>
        <end value="31"/>
    </time>

    <processing>
        <default.speeddev value="0"/>
    </processing>

    <report>
        <verbose value="true"/>
        <log value="log.txt"/>
        <duration-log.disable value="true"/>
        <no-step-log value="true"/>
    </report>

</configuration>
-->

<snapshot xmlns:xsi="http://www.w3.org/2001/XMLSchema-instance" xsi:noNamespaceSchemaLocation="http://sumo.dlr.de/xsd/state_file.xsd" version="v1_17_0+1015-ff0718a" time="30.00" type="micro">
    <route id="!v0#0" state="0" edges="beg middle end"/>
    <route id="!v1#0" state="1" edges="beg middle end"/>
    <route id="!v1#1" state="1" edges="beg middle"/>
    <routeDistribution id="!v0" state="0" routes="!v0#0 !v0#1" probabilities="0.30 0.70"/>
    <delay number="0" begin="2" end="2" depart="2.00" time="38.00"/>
    <vType id="t0" sigma="0"/>
</snapshot>
