<?xml version="1.0" encoding="UTF-8"?>

<!-- generated on 2022-01-07 11:34:26 by Eclipse SUMO sumo Version v1_11_0+0910-f03f1d4
This data file and the accompanying materials
are made available under the terms of the Eclipse Public License v2.0
which accompanies this distribution, and is available at
http://www.eclipse.org/legal/epl-v20.html
SPDX-License-Identifier: EPL-2.0
<configuration xmlns:xsi="http://www.w3.org/2001/XMLSchema-instance" xsi:noNamespaceSchemaLocation="http://sumo.dlr.de/xsd/sumoConfiguration.xsd">

    <input>
        <net-file value="net.net.xml"/>
        <route-files value="input_routes.rou.xml"/>
        <additional-files value="input_additional.add.xml,input_additional2.add.xml"/>
    </input>

    <output>
        <write-license value="true"/>
    </output>

    <processing>
        <default.speeddev value="0"/>
    </processing>

    <report>
        <verbose value="true"/>
        <xml-validation value="never"/>
        <xml-validation.routes value="never"/>
        <duration-log.statistics value="true"/>
        <no-step-log value="true"/>
    </report>

</configuration>
-->

<tlsStates xmlns:xsi="http://www.w3.org/2001/XMLSchema-instance" xsi:noNamespaceSchemaLocation="http://sumo.dlr.de/xsd/tlsstates_file.xsd">
    <tlsState time="0.00" id="C0" programID="custom" phase="0" state="GGggrrrrGGggrrrr"/>
    <tlsState time="0.00" id="B0" programID="custom" phase="0" state="GGggrrrrGGggrrrr"/>
    <tlsState time="37.00" id="B0" programID="custom" phase="1" state="yyyyrrrryyyyrrrr"/>
    <tlsState time="40.00" id="B0" programID="custom" phase="2" state="rrrrGGggrrrrGGgg"/>
    <tlsState time="52.00" id="C0" programID="custom" phase="1" state="yyyyrrrryyyyrrrr"/>
    <tlsState time="55.00" id="C0" programID="custom" phase="2" state="rrrrGGggrrrrGGgg"/>
    <tlsState time="120.00" id="C0" programID="custom" phase="3" state="rrrryyyyrrrryyyy"/>
    <tlsState time="120.00" id="B0" programID="custom" phase="3" state="rrrryyyyrrrryyyy"/>
    <tlsState time="123.00" id="C0" programID="custom" phase="0" state="GGggrrrrGGggrrrr"/>
    <tlsState time="123.00" id="B0" programID="custom" phase="0" state="GGggrrrrGGggrrrr"/>
    <tlsState time="130.00" id="B0" programID="custom" phase="1" state="yyyyrrrryyyyrrrr"/>
    <tlsState time="133.00" id="B0" programID="custom" phase="2" state="rrrrGGggrrrrGGgg"/>
    <tlsState time="151.00" id="C0" programID="custom" phase="1" state="yyyyrrrryyyyrrrr"/>
    <tlsState time="154.00" id="C0" programID="custom" phase="2" state="rrrrGGggrrrrGGgg"/>
    <tlsState time="223.00" id="B0" programID="custom" phase="3" state="rrrryyyyrrrryyyy"/>
    <tlsState time="226.00" id="B0" programID="custom" phase="0" state="GGggrrrrGGggrrrr"/>
    <tlsState time="243.00" id="C0" programID="custom" phase="3" state="rrrryyyyrrrryyyy"/>
    <tlsState time="246.00" id="C0" programID="custom" phase="0" state="GGggrrrrGGggrrrr"/>
    <tlsState time="259.00" id="B0" programID="custom" phase="1" state="yyyyrrrryyyyrrrr"/>
    <tlsState time="262.00" id="B0" programID="custom" phase="2" state="rrrrGGggrrrrGGgg"/>
    <tlsState time="277.00" id="C0" programID="custom" phase="1" state="yyyyrrrryyyyrrrr"/>
    <tlsState time="280.00" id="C0" programID="custom" phase="2" state="rrrrGGggrrrrGGgg"/>
    <tlsState time="346.00" id="B0" programID="custom" phase="3" state="rrrryyyyrrrryyyy"/>
    <tlsState time="349.00" id="B0" programID="custom" phase="0" state="GGggrrrrGGggrrrr"/>
    <tlsState time="366.00" id="C0" programID="custom" phase="3" state="rrrryyyyrrrryyyy"/>
    <tlsState time="369.00" id="C0" programID="custom" phase="0" state="GGggrrrrGGggrrrr"/>
    <tlsState time="378.00" id="B0" programID="custom" phase="1" state="yyyyrrrryyyyrrrr"/>
    <tlsState time="381.00" id="B0" programID="custom" phase="2" state="rrrrGGggrrrrGGgg"/>
    <tlsState time="400.00" id="C0" programID="custom" phase="1" state="yyyyrrrryyyyrrrr"/>
    <tlsState time="403.00" id="C0" programID="custom" phase="2" state="rrrrGGggrrrrGGgg"/>
    <tlsState time="469.00" id="B0" programID="custom" phase="3" state="rrrryyyyrrrryyyy"/>
    <tlsState time="472.00" id="B0" programID="custom" phase="0" state="GGggrrrrGGggrrrr"/>
    <tlsState time="489.00" id="C0" programID="custom" phase="3" state="rrrryyyyrrrryyyy"/>
    <tlsState time="492.00" id="C0" programID="custom" phase="0" state="GGggrrrrGGggrrrr"/>
    <tlsState time="506.00" id="B0" programID="custom" phase="1" state="yyyyrrrryyyyrrrr"/>
    <tlsState time="509.00" id="B0" programID="custom" phase="2" state="rrrrGGggrrrrGGgg"/>
    <tlsState time="525.00" id="C0" programID="custom" phase="1" state="yyyyrrrryyyyrrrr"/>
    <tlsState time="528.00" id="C0" programID="custom" phase="2" state="rrrrGGggrrrrGGgg"/>
    <tlsState time="592.00" id="B0" programID="custom" phase="3" state="rrrryyyyrrrryyyy"/>
    <tlsState time="595.00" id="B0" programID="custom" phase="0" state="GGggrrrrGGggrrrr"/>
    <tlsState time="612.00" id="C0" programID="custom" phase="3" state="rrrryyyyrrrryyyy"/>
    <tlsState time="615.00" id="C0" programID="custom" phase="0" state="GGggrrrrGGggrrrr"/>
    <tlsState time="630.00" id="B0" programID="custom" phase="1" state="yyyyrrrryyyyrrrr"/>
    <tlsState time="633.00" id="B0" programID="custom" phase="2" state="rrrrGGggrrrrGGgg"/>
    <tlsState time="646.00" id="C0" programID="custom" phase="1" state="yyyyrrrryyyyrrrr"/>
    <tlsState time="649.00" id="C0" programID="custom" phase="2" state="rrrrGGggrrrrGGgg"/>
    <tlsState time="715.00" id="B0" programID="custom" phase="3" state="rrrryyyyrrrryyyy"/>
    <tlsState time="718.00" id="B0" programID="custom" phase="0" state="GGggrrrrGGggrrrr"/>
    <tlsState time="735.00" id="C0" programID="custom" phase="3" state="rrrryyyyrrrryyyy"/>
    <tlsState time="738.00" id="C0" programID="custom" phase="0" state="GGggrrrrGGggrrrr"/>
    <tlsState time="754.00" id="B0" programID="custom" phase="1" state="yyyyrrrryyyyrrrr"/>
    <tlsState time="757.00" id="B0" programID="custom" phase="2" state="rrrrGGggrrrrGGgg"/>
    <tlsState time="771.00" id="C0" programID="custom" phase="1" state="yyyyrrrryyyyrrrr"/>
    <tlsState time="774.00" id="C0" programID="custom" phase="2" state="rrrrGGggrrrrGGgg"/>
    <tlsState time="838.00" id="B0" programID="custom" phase="3" state="rrrryyyyrrrryyyy"/>
    <tlsState time="841.00" id="B0" programID="custom" phase="0" state="GGggrrrrGGggrrrr"/>
    <tlsState time="858.00" id="C0" programID="custom" phase="3" state="rrrryyyyrrrryyyy"/>
    <tlsState time="861.00" id="C0" programID="custom" phase="0" state="GGggrrrrGGggrrrr"/>
    <tlsState time="875.00" id="B0" programID="custom" phase="1" state="yyyyrrrryyyyrrrr"/>
    <tlsState time="878.00" id="B0" programID="custom" phase="2" state="rrrrGGggrrrrGGgg"/>
    <tlsState time="892.00" id="C0" programID="custom" phase="1" state="yyyyrrrryyyyrrrr"/>
    <tlsState time="895.00" id="C0" programID="custom" phase="2" state="rrrrGGggrrrrGGgg"/>
    <tlsState time="961.00" id="B0" programID="custom" phase="3" state="rrrryyyyrrrryyyy"/>
    <tlsState time="964.00" id="B0" programID="custom" phase="0" state="GGggrrrrGGggrrrr"/>
    <tlsState time="981.00" id="C0" programID="custom" phase="3" state="rrrryyyyrrrryyyy"/>
    <tlsState time="984.00" id="C0" programID="custom" phase="0" state="GGggrrrrGGggrrrr"/>
    <tlsState time="997.00" id="B0" programID="custom" phase="1" state="yyyyrrrryyyyrrrr"/>
    <tlsState time="1000.00" id="B0" programID="custom" phase="2" state="rrrrGGggrrrrGGgg"/>
    <tlsState time="1017.00" id="C0" programID="custom" phase="1" state="yyyyrrrryyyyrrrr"/>
    <tlsState time="1020.00" id="C0" programID="custom" phase="2" state="rrrrGGggrrrrGGgg"/>
    <tlsState time="1084.00" id="B0" programID="custom" phase="3" state="rrrryyyyrrrryyyy"/>
    <tlsState time="1087.00" id="B0" programID="custom" phase="0" state="GGggrrrrGGggrrrr"/>
    <tlsState time="1104.00" id="C0" programID="custom" phase="3" state="rrrryyyyrrrryyyy"/>
    <tlsState time="1107.00" id="C0" programID="custom" phase="0" state="GGggrrrrGGggrrrr"/>
    <tlsState time="1119.00" id="B0" programID="custom" phase="1" state="yyyyrrrryyyyrrrr"/>
    <tlsState time="1122.00" id="B0" programID="custom" phase="2" state="rrrrGGggrrrrGGgg"/>
    <tlsState time="1138.00" id="C0" programID="custom" phase="1" state="yyyyrrrryyyyrrrr"/>
    <tlsState time="1141.00" id="C0" programID="custom" phase="2" state="rrrrGGggrrrrGGgg"/>
    <tlsState time="1207.00" id="B0" programID="custom" phase="3" state="rrrryyyyrrrryyyy"/>
    <tlsState time="1210.00" id="B0" programID="custom" phase="0" state="GGggrrrrGGggrrrr"/>
    <tlsState time="1227.00" id="C0" programID="custom" phase="3" state="rrrryyyyrrrryyyy"/>
    <tlsState time="1230.00" id="C0" programID="custom" phase="0" state="GGggrrrrGGggrrrr"/>
    <tlsState time="1243.00" id="B0" programID="custom" phase="1" state="yyyyrrrryyyyrrrr"/>
    <tlsState time="1246.00" id="B0" programID="custom" phase="2" state="rrrrGGggrrrrGGgg"/>
    <tlsState time="1264.00" id="C0" programID="custom" phase="1" state="yyyyrrrryyyyrrrr"/>
    <tlsState time="1267.00" id="C0" programID="custom" phase="2" state="rrrrGGggrrrrGGgg"/>
    <tlsState time="1330.00" id="B0" programID="custom" phase="3" state="rrrryyyyrrrryyyy"/>
    <tlsState time="1333.00" id="B0" programID="custom" phase="0" state="GGggrrrrGGggrrrr"/>
    <tlsState time="1350.00" id="C0" programID="custom" phase="3" state="rrrryyyyrrrryyyy"/>
    <tlsState time="1353.00" id="C0" programID="custom" phase="0" state="GGggrrrrGGggrrrr"/>
    <tlsState time="1366.00" id="B0" programID="custom" phase="1" state="yyyyrrrryyyyrrrr"/>
    <tlsState time="1369.00" id="B0" programID="custom" phase="2" state="rrrrGGggrrrrGGgg"/>
    <tlsState time="1386.00" id="C0" programID="custom" phase="1" state="yyyyrrrryyyyrrrr"/>
    <tlsState time="1389.00" id="C0" programID="custom" phase="2" state="rrrrGGggrrrrGGgg"/>
    <tlsState time="1453.00" id="B0" programID="custom" phase="3" state="rrrryyyyrrrryyyy"/>
    <tlsState time="1456.00" id="B0" programID="custom" phase="0" state="GGggrrrrGGggrrrr"/>
    <tlsState time="1473.00" id="C0" programID="custom" phase="3" state="rrrryyyyrrrryyyy"/>
    <tlsState time="1476.00" id="C0" programID="custom" phase="0" state="GGggrrrrGGggrrrr"/>
    <tlsState time="1487.00" id="B0" programID="custom" phase="1" state="yyyyrrrryyyyrrrr"/>
    <tlsState time="1490.00" id="B0" programID="custom" phase="2" state="rrrrGGggrrrrGGgg"/>
    <tlsState time="1510.00" id="C0" programID="custom" phase="1" state="yyyyrrrryyyyrrrr"/>
    <tlsState time="1513.00" id="C0" programID="custom" phase="2" state="rrrrGGggrrrrGGgg"/>
    <tlsState time="1576.00" id="B0" programID="custom" phase="3" state="rrrryyyyrrrryyyy"/>
    <tlsState time="1579.00" id="B0" programID="custom" phase="0" state="GGggrrrrGGggrrrr"/>
    <tlsState time="1596.00" id="C0" programID="custom" phase="3" state="rrrryyyyrrrryyyy"/>
    <tlsState time="1599.00" id="C0" programID="custom" phase="0" state="GGggrrrrGGggrrrr"/>
    <tlsState time="1611.00" id="B0" programID="custom" phase="1" state="yyyyrrrryyyyrrrr"/>
    <tlsState time="1614.00" id="B0" programID="custom" phase="2" state="rrrrGGggrrrrGGgg"/>
    <tlsState time="1631.00" id="C0" programID="custom" phase="1" state="yyyyrrrryyyyrrrr"/>
    <tlsState time="1634.00" id="C0" programID="custom" phase="2" state="rrrrGGggrrrrGGgg"/>
    <tlsState time="1699.00" id="B0" programID="custom" phase="3" state="rrrryyyyrrrryyyy"/>
    <tlsState time="1702.00" id="B0" programID="custom" phase="0" state="GGggrrrrGGggrrrr"/>
    <tlsState time="1719.00" id="C0" programID="custom" phase="3" state="rrrryyyyrrrryyyy"/>
    <tlsState time="1722.00" id="C0" programID="custom" phase="0" state="GGggrrrrGGggrrrr"/>
    <tlsState time="1739.00" id="B0" programID="custom" phase="1" state="yyyyrrrryyyyrrrr"/>
    <tlsState time="1742.00" id="B0" programID="custom" phase="2" state="rrrrGGggrrrrGGgg"/>
    <tlsState time="1753.00" id="C0" programID="custom" phase="1" state="yyyyrrrryyyyrrrr"/>
    <tlsState time="1756.00" id="C0" programID="custom" phase="2" state="rrrrGGggrrrrGGgg"/>
    <tlsState time="1822.00" id="B0" programID="custom" phase="3" state="rrrryyyyrrrryyyy"/>
    <tlsState time="1825.00" id="B0" programID="custom" phase="0" state="GGggrrrrGGggrrrr"/>
    <tlsState time="1842.00" id="C0" programID="custom" phase="3" state="rrrryyyyrrrryyyy"/>
    <tlsState time="1845.00" id="C0" programID="custom" phase="0" state="GGggrrrrGGggrrrr"/>
    <tlsState time="1858.00" id="B0" programID="custom" phase="1" state="yyyyrrrryyyyrrrr"/>
    <tlsState time="1861.00" id="B0" programID="custom" phase="2" state="rrrrGGggrrrrGGgg"/>
    <tlsState time="1878.00" id="C0" programID="custom" phase="1" state="yyyyrrrryyyyrrrr"/>
    <tlsState time="1881.00" id="C0" programID="custom" phase="2" state="rrrrGGggrrrrGGgg"/>
    <tlsState time="1945.00" id="B0" programID="custom" phase="3" state="rrrryyyyrrrryyyy"/>
    <tlsState time="1948.00" id="B0" programID="custom" phase="0" state="GGggrrrrGGggrrrr"/>
    <tlsState time="1965.00" id="C0" programID="custom" phase="3" state="rrrryyyyrrrryyyy"/>
    <tlsState time="1968.00" id="C0" programID="custom" phase="0" state="GGggrrrrGGggrrrr"/>
    <tlsState time="1981.00" id="B0" programID="custom" phase="1" state="yyyyrrrryyyyrrrr"/>
    <tlsState time="1984.00" id="B0" programID="custom" phase="2" state="rrrrGGggrrrrGGgg"/>
    <tlsState time="1999.00" id="C0" programID="custom" phase="1" state="yyyyrrrryyyyrrrr"/>
    <tlsState time="2002.00" id="C0" programID="custom" phase="2" state="rrrrGGggrrrrGGgg"/>
    <tlsState time="2068.00" id="B0" programID="custom" phase="3" state="rrrryyyyrrrryyyy"/>
    <tlsState time="2071.00" id="B0" programID="custom" phase="0" state="GGggrrrrGGggrrrr"/>
    <tlsState time="2088.00" id="C0" programID="custom" phase="3" state="rrrryyyyrrrryyyy"/>
    <tlsState time="2091.00" id="C0" programID="custom" phase="0" state="GGggrrrrGGggrrrr"/>
    <tlsState time="2105.00" id="B0" programID="custom" phase="1" state="yyyyrrrryyyyrrrr"/>
    <tlsState time="2108.00" id="B0" programID="custom" phase="2" state="rrrrGGggrrrrGGgg"/>
    <tlsState time="2127.00" id="C0" programID="custom" phase="1" state="yyyyrrrryyyyrrrr"/>
    <tlsState time="2130.00" id="C0" programID="custom" phase="2" state="rrrrGGggrrrrGGgg"/>
    <tlsState time="2191.00" id="B0" programID="custom" phase="3" state="rrrryyyyrrrryyyy"/>
    <tlsState time="2194.00" id="B0" programID="custom" phase="0" state="GGggrrrrGGggrrrr"/>
    <tlsState time="2211.00" id="C0" programID="custom" phase="3" state="rrrryyyyrrrryyyy"/>
    <tlsState time="2214.00" id="C0" programID="custom" phase="0" state="GGggrrrrGGggrrrr"/>
    <tlsState time="2227.00" id="B0" programID="custom" phase="1" state="yyyyrrrryyyyrrrr"/>
    <tlsState time="2230.00" id="B0" programID="custom" phase="2" state="rrrrGGggrrrrGGgg"/>
    <tlsState time="2245.00" id="C0" programID="custom" phase="1" state="yyyyrrrryyyyrrrr"/>
    <tlsState time="2248.00" id="C0" programID="custom" phase="2" state="rrrrGGggrrrrGGgg"/>
    <tlsState time="2314.00" id="B0" programID="custom" phase="3" state="rrrryyyyrrrryyyy"/>
    <tlsState time="2317.00" id="B0" programID="custom" phase="0" state="GGggrrrrGGggrrrr"/>
    <tlsState time="2334.00" id="C0" programID="custom" phase="3" state="rrrryyyyrrrryyyy"/>
    <tlsState time="2337.00" id="C0" programID="custom" phase="0" state="GGggrrrrGGggrrrr"/>
    <tlsState time="2351.00" id="B0" programID="custom" phase="1" state="yyyyrrrryyyyrrrr"/>
    <tlsState time="2354.00" id="B0" programID="custom" phase="2" state="rrrrGGggrrrrGGgg"/>
    <tlsState time="2368.00" id="C0" programID="custom" phase="1" state="yyyyrrrryyyyrrrr"/>
    <tlsState time="2371.00" id="C0" programID="custom" phase="2" state="rrrrGGggrrrrGGgg"/>
    <tlsState time="2437.00" id="B0" programID="custom" phase="3" state="rrrryyyyrrrryyyy"/>
    <tlsState time="2440.00" id="B0" programID="custom" phase="0" state="GGggrrrrGGggrrrr"/>
    <tlsState time="2457.00" id="C0" programID="custom" phase="3" state="rrrryyyyrrrryyyy"/>
    <tlsState time="2460.00" id="C0" programID="custom" phase="0" state="GGggrrrrGGggrrrr"/>
    <tlsState time="2471.00" id="B0" programID="custom" phase="1" state="yyyyrrrryyyyrrrr"/>
    <tlsState time="2474.00" id="B0" programID="custom" phase="2" state="rrrrGGggrrrrGGgg"/>
    <tlsState time="2492.00" id="C0" programID="custom" phase="1" state="yyyyrrrryyyyrrrr"/>
    <tlsState time="2495.00" id="C0" programID="custom" phase="2" state="rrrrGGggrrrrGGgg"/>
    <tlsState time="2560.00" id="B0" programID="custom" phase="3" state="rrrryyyyrrrryyyy"/>
    <tlsState time="2563.00" id="B0" programID="custom" phase="0" state="GGggrrrrGGggrrrr"/>
    <tlsState time="2580.00" id="C0" programID="custom" phase="3" state="rrrryyyyrrrryyyy"/>
    <tlsState time="2583.00" id="C0" programID="custom" phase="0" state="GGggrrrrGGggrrrr"/>
    <tlsState time="2597.00" id="B0" programID="custom" phase="1" state="yyyyrrrryyyyrrrr"/>
    <tlsState time="2600.00" id="B0" programID="custom" phase="2" state="rrrrGGggrrrrGGgg"/>
    <tlsState time="2614.00" id="C0" programID="custom" phase="1" state="yyyyrrrryyyyrrrr"/>
    <tlsState time="2617.00" id="C0" programID="custom" phase="2" state="rrrrGGggrrrrGGgg"/>
    <tlsState time="2683.00" id="B0" programID="custom" phase="3" state="rrrryyyyrrrryyyy"/>
    <tlsState time="2686.00" id="B0" programID="custom" phase="0" state="GGggrrrrGGggrrrr"/>
    <tlsState time="2703.00" id="C0" programID="custom" phase="3" state="rrrryyyyrrrryyyy"/>
    <tlsState time="2706.00" id="C0" programID="custom" phase="0" state="GGggrrrrGGggrrrr"/>
    <tlsState time="2719.00" id="B0" programID="custom" phase="1" state="yyyyrrrryyyyrrrr"/>
    <tlsState time="2722.00" id="B0" programID="custom" phase="2" state="rrrrGGggrrrrGGgg"/>
    <tlsState time="2737.00" id="C0" programID="custom" phase="1" state="yyyyrrrryyyyrrrr"/>
    <tlsState time="2740.00" id="C0" programID="custom" phase="2" state="rrrrGGggrrrrGGgg"/>
    <tlsState time="2806.00" id="B0" programID="custom" phase="3" state="rrrryyyyrrrryyyy"/>
    <tlsState time="2809.00" id="B0" programID="custom" phase="0" state="GGggrrrrGGggrrrr"/>
    <tlsState time="2826.00" id="C0" programID="custom" phase="3" state="rrrryyyyrrrryyyy"/>
    <tlsState time="2829.00" id="C0" programID="custom" phase="0" state="GGggrrrrGGggrrrr"/>
    <tlsState time="2840.00" id="B0" programID="custom" phase="1" state="yyyyrrrryyyyrrrr"/>
    <tlsState time="2843.00" id="B0" programID="custom" phase="2" state="rrrrGGggrrrrGGgg"/>
    <tlsState time="2861.00" id="C0" programID="custom" phase="1" state="yyyyrrrryyyyrrrr"/>
    <tlsState time="2864.00" id="C0" programID="custom" phase="2" state="rrrrGGggrrrrGGgg"/>
    <tlsState time="2929.00" id="B0" programID="custom" phase="3" state="rrrryyyyrrrryyyy"/>
    <tlsState time="2932.00" id="B0" programID="custom" phase="0" state="GGggrrrrGGggrrrr"/>
    <tlsState time="2949.00" id="C0" programID="custom" phase="3" state="rrrryyyyrrrryyyy"/>
    <tlsState time="2952.00" id="C0" programID="custom" phase="0" state="GGggrrrrGGggrrrr"/>
    <tlsState time="2967.00" id="B0" programID="custom" phase="1" state="yyyyrrrryyyyrrrr"/>
    <tlsState time="2970.00" id="B0" programID="custom" phase="2" state="rrrrGGggrrrrGGgg"/>
    <tlsState time="2985.00" id="C0" programID="custom" phase="1" state="yyyyrrrryyyyrrrr"/>
    <tlsState time="2988.00" id="C0" programID="custom" phase="2" state="rrrrGGggrrrrGGgg"/>
    <tlsState time="3052.00" id="B0" programID="custom" phase="3" state="rrrryyyyrrrryyyy"/>
    <tlsState time="3055.00" id="B0" programID="custom" phase="0" state="GGggrrrrGGggrrrr"/>
    <tlsState time="3072.00" id="C0" programID="custom" phase="3" state="rrrryyyyrrrryyyy"/>
    <tlsState time="3075.00" id="C0" programID="custom" phase="0" state="GGggrrrrGGggrrrr"/>
    <tlsState time="3086.00" id="B0" programID="custom" phase="1" state="yyyyrrrryyyyrrrr"/>
    <tlsState time="3089.00" id="B0" programID="custom" phase="2" state="rrrrGGggrrrrGGgg"/>
    <tlsState time="3106.00" id="C0" programID="custom" phase="1" state="yyyyrrrryyyyrrrr"/>
    <tlsState time="3109.00" id="C0" programID="custom" phase="2" state="rrrrGGggrrrrGGgg"/>
    <tlsState time="3175.00" id="B0" programID="custom" phase="3" state="rrrryyyyrrrryyyy"/>
    <tlsState time="3178.00" id="B0" programID="custom" phase="0" state="GGggrrrrGGggrrrr"/>
    <tlsState time="3195.00" id="C0" programID="custom" phase="3" state="rrrryyyyrrrryyyy"/>
    <tlsState time="3198.00" id="C0" programID="custom" phase="0" state="GGggrrrrGGggrrrr"/>
    <tlsState time="3212.00" id="B0" programID="custom" phase="1" state="yyyyrrrryyyyrrrr"/>
    <tlsState time="3215.00" id="B0" programID="custom" phase="2" state="rrrrGGggrrrrGGgg"/>
    <tlsState time="3229.00" id="C0" programID="custom" phase="1" state="yyyyrrrryyyyrrrr"/>
    <tlsState time="3232.00" id="C0" programID="custom" phase="2" state="rrrrGGggrrrrGGgg"/>
    <tlsState time="3298.00" id="B0" programID="custom" phase="3" state="rrrryyyyrrrryyyy"/>
    <tlsState time="3301.00" id="B0" programID="custom" phase="0" state="GGggrrrrGGggrrrr"/>
    <tlsState time="3318.00" id="C0" programID="custom" phase="3" state="rrrryyyyrrrryyyy"/>
    <tlsState time="3321.00" id="C0" programID="custom" phase="0" state="GGggrrrrGGggrrrr"/>
    <tlsState time="3334.00" id="B0" programID="custom" phase="1" state="yyyyrrrryyyyrrrr"/>
    <tlsState time="3337.00" id="B0" programID="custom" phase="2" state="rrrrGGggrrrrGGgg"/>
    <tlsState time="3354.00" id="C0" programID="custom" phase="1" state="yyyyrrrryyyyrrrr"/>
    <tlsState time="3357.00" id="C0" programID="custom" phase="2" state="rrrrGGggrrrrGGgg"/>
    <tlsState time="3421.00" id="B0" programID="custom" phase="3" state="rrrryyyyrrrryyyy"/>
    <tlsState time="3424.00" id="B0" programID="custom" phase="0" state="GGggrrrrGGggrrrr"/>
    <tlsState time="3441.00" id="C0" programID="custom" phase="3" state="rrrryyyyrrrryyyy"/>
    <tlsState time="3444.00" id="C0" programID="custom" phase="0" state="GGggrrrrGGggrrrr"/>
    <tlsState time="3456.00" id="B0" programID="custom" phase="1" state="yyyyrrrryyyyrrrr"/>
    <tlsState time="3459.00" id="B0" programID="custom" phase="2" state="rrrrGGggrrrrGGgg"/>
    <tlsState time="3477.00" id="C0" programID="custom" phase="1" state="yyyyrrrryyyyrrrr"/>
    <tlsState time="3480.00" id="C0" programID="custom" phase="2" state="rrrrGGggrrrrGGgg"/>
    <tlsState time="3544.00" id="B0" programID="custom" phase="3" state="rrrryyyyrrrryyyy"/>
    <tlsState time="3547.00" id="B0" programID="custom" phase="0" state="GGggrrrrGGggrrrr"/>
    <tlsState time="3564.00" id="C0" programID="custom" phase="3" state="rrrryyyyrrrryyyy"/>
    <tlsState time="3567.00" id="C0" programID="custom" phase="0" state="GGggrrrrGGggrrrr"/>
    <tlsState time="3580.00" id="B0" programID="custom" phase="1" state="yyyyrrrryyyyrrrr"/>
    <tlsState time="3583.00" id="B0" programID="custom" phase="2" state="rrrrGGggrrrrGGgg"/>
    <tlsState time="3600.00" id="C0" programID="custom" phase="1" state="yyyyrrrryyyyrrrr"/>
    <tlsState time="3603.00" id="C0" programID="custom" phase="2" state="rrrrGGggrrrrGGgg"/>
    <tlsState time="3667.00" id="B0" programID="custom" phase="3" state="rrrryyyyrrrryyyy"/>
    <tlsState time="3670.00" id="B0" programID="custom" phase="0" state="GGggrrrrGGggrrrr"/>
    <tlsState time="3687.00" id="C0" programID="custom" phase="3" state="rrrryyyyrrrryyyy"/>
    <tlsState time="3690.00" id="C0" programID="custom" phase="0" state="GGggrrrrGGggrrrr"/>
</tlsStates>
