<routes xmlns:xsi="http://www.w3.org/2001/XMLSchema-instance" xsi:noNamespaceSchemaLocation="http://sumo-sim.org/xsd/routes_file.xsd">
    <vehicle id="0" depart="0">
        <route edges="-500+0.+0+0 +0+0.+500+0 +500+0.+1000+0"/>
        <stop lane="+500+0.+1000+0_0" endPos="50" duration="20"/>
    </vehicle>
</routes>