<?xml version="1.0" encoding="UTF-8"?>

<!-- generated on 05/02/13 14:17:19 by SUMO sumo Version 0.17.0
<?xml version="1.0" encoding="UTF-8"?>

<configuration xmlns:xsi="http://www.w3.org/2001/XMLSchema-instance" xsi:noNamespaceSchemaLocation="http://sumo-sim.org/xsd/sumoConfiguration.xsd">

    <input>
        <net-file value="net.net.xml"/>
        <route-files value="input_routes.rou.xml"/>
        <additional-files value="input_additional.add.xml"/>
    </input>

    <report>
        <no-duration-log value="true"/>
        <no-step-log value="true"/>
    </report>

</configuration>
-->

<instantE1>
    <instantOut id="test" time="26.49" state="enter" vehID="veh0" speed="10.04" length="5.00" type="DEFAULT_VEHTYPE"/>
    <instantOut id="test" time="26.99" state="leave" vehID="veh0" speed="11.48" length="5.00" type="DEFAULT_VEHTYPE" occupancy="0.50"/>
</instantE1>
