<additional xmlns:xsi="http://www.w3.org/2001/XMLSchema-instance" xsi:noNamespaceSchemaLocation="http://sumo-sim.org/xsd/additional_file.xsd">

    <instantInductionLoop id="test" lane="1si_0" pos="0" file="detector.xml"/>

</additional>
