<?xml version="1.0" encoding="UTF-8"?>

<!-- generated on 17.08.2019 10:30:45 by Eclipse SUMO netedit Version v1_2_0+1623-45f6df626d
<configuration xmlns:xsi="http://www.w3.org/2001/XMLSchema-instance" xsi:noNamespaceSchemaLocation="http://sumo.dlr.de/xsd/netconvertConfiguration.xsd">

    <input>
        <sumo-net-file value="C:/Users/SUMO-Test/.texttest/tmp/netedit.gui.16Aug111532.2916/netedit.gui/demandElements/flow/inspect_selection/departPosLat/random\input_net.net.xml"/>
    </input>

    <output>
        <output-file value="C:/Users/SUMO-Test/.texttest/tmp/netedit.gui.16Aug111532.2916/netedit.gui/demandElements/flow/inspect_selection/departPosLat/random\net.net.xml"/>
    </output>

    <processing>
        <geometry.max-grade.fix value="false"/>
        <offset.disable-normalization value="true"/>
        <opposites.guess.fix-lengths value="true"/>
        <lefthand value="false"/>
    </processing>

    <junctions>
        <no-turnarounds value="true"/>
        <junctions.corner-detail value="5"/>
        <junctions.limit-turn-speed value="5.5"/>
        <rectangular-lane-cut value="false"/>
    </junctions>

    <pedestrian>
        <walkingareas value="false"/>
    </pedestrian>

    <netedit>
        <additional-files value="C:/Users/SUMO-Test/.texttest/tmp/netedit.gui.16Aug111532.2916/netedit.gui/demandElements/flow/inspect_selection/departPosLat/random\additionals.xml"/>
        <additionals-output value="C:/Users/SUMO-Test/.texttest/tmp/netedit.gui.16Aug111532.2916/netedit.gui/demandElements/flow/inspect_selection/departPosLat/random\additionals.xml"/>
        <route-files value="C:/Users/SUMO-Test/.texttest/tmp/netedit.gui.16Aug111532.2916/netedit.gui/demandElements/flow/inspect_selection/departPosLat/random\routes.xml"/>
        <demandelements-output value="C:/Users/SUMO-Test/.texttest/tmp/netedit.gui.16Aug111532.2916/netedit.gui/demandElements/flow/inspect_selection/departPosLat/random\routes.xml"/>
    </netedit>

    <visualisation>
        <gui-settings-file value="C:/Users/SUMO-Test/.texttest/tmp/netedit.gui.16Aug111532.2916/netedit.gui/demandElements/flow/inspect_selection/departPosLat/random\gui-settings.xml"/>
        <window-size value="700,500"/>
        <window-pos value="50,50"/>
        <gui-testing value="true"/>
        <gui-testing-debug value="true"/>
        <gui-testing-debug-gl value="true"/>
    </visualisation>

    <report>
        <no-warnings value="true"/>
        <error-log value="C:/Users/SUMO-Test/.texttest/tmp/netedit.gui.16Aug111532.2916/netedit.gui/demandElements/flow/inspect_selection/departPosLat/random\log.txt"/>
    </report>

</configuration>
-->

<routes xmlns:xsi="http://www.w3.org/2001/XMLSchema-instance" xsi:noNamespaceSchemaLocation="http://sumo.dlr.de/xsd/routes_file.xsd">
    <flow id="flowA" begin="0.00" departLane="0" departPos="2.00" departPosLat="random" departSpeed="12.00" arrivalLane="0" arrivalPos="3.00" arrivalPosLat="3.00" arrivalSpeed="12.00" color="red" line="line A" personNumber="1" containerNumber="5" from="gneE2" to="gneE5" end="26.00" number="14"/>
    <flow id="flowB" begin="5.00" departLane="free" departPos="random" departPosLat="random" departSpeed="speedLimit" arrivalLane="current" arrivalPos="random" arrivalPosLat="right" arrivalSpeed="current" color="blue" line="line B" personNumber="2" containerNumber="10" from="gneE4" to="gneE5" end="36.00" number="18"/>
</routes>
