<?xml version="1.0" encoding="UTF-8"?>

<!-- generated on Fri 13 Apr 2018 11:28:35 AM CEST by Netedit Version b643ea2
<configuration xmlns:xsi="http://www.w3.org/2001/XMLSchema-instance" xsi:noNamespaceSchemaLocation="http://sumo.dlr.de/xsd/netconvertConfiguration.xsd">

    <input>
        <sumo-net-file value="net.net.xml"/>
    </input>

    <output>
        <output-file value="/scr1/sumo/tests/netconvert/function/junctions.join/circle2/input_net.net.xml"/>
    </output>

    <processing>
        <no-internal-links value="true"/>
        <no-turnarounds value="true"/>
        <offset.disable-normalization value="true"/>
        <lefthand value="false"/>
        <junctions.corner-detail value="0"/>
        <rectangular-lane-cut value="false"/>
        <walkingareas value="false"/>
    </processing>

</configuration>
-->

<net version="0.27" xmlns:xsi="http://www.w3.org/2001/XMLSchema-instance" xsi:noNamespaceSchemaLocation="http://sumo.dlr.de/xsd/net_file.xsd">

    <location netOffset="-395408.93,-5809112.45" convBoundary="4379.95,90.90,4488.29,194.06" origBoundary="13.453860,52.423029,13.575739,52.459735" projParameter="+proj=utm +zone=33 +ellps=WGS84 +datum=WGS84 +units=m +no_defs"/>

    <type id="highway.bridleway" priority="1" numLanes="1" speed="2.78" allow="pedestrian" oneway="1" width="2.00"/>
    <type id="highway.bus_guideway" priority="1" numLanes="1" speed="8.33" allow="bus" oneway="1"/>
    <type id="highway.cycleway" priority="1" numLanes="1" speed="5.56" allow="bicycle" oneway="1" width="1.00"/>
    <type id="highway.footway" priority="1" numLanes="1" speed="8.33" allow="pedestrian" oneway="1" width="2.00"/>
    <type id="highway.ford" priority="1" numLanes="1" speed="2.78" allow="army" oneway="0"/>
    <type id="highway.living_street" priority="3" numLanes="1" speed="2.78" disallow="tram rail_urban rail rail_electric ship" oneway="0"/>
    <type id="highway.motorway" priority="13" numLanes="3" speed="44.44" disallow="bicycle pedestrian" oneway="1"/>
    <type id="highway.motorway_link" priority="12" numLanes="1" speed="22.22" disallow="bicycle pedestrian" oneway="1"/>
    <type id="highway.path" priority="1" numLanes="1" speed="2.78" allow="pedestrian" oneway="1" width="2.00"/>
    <type id="highway.pedestrian" priority="1" numLanes="1" speed="8.33" allow="pedestrian" oneway="1" width="2.00"/>
    <type id="highway.primary" priority="9" numLanes="2" speed="27.78" disallow="pedestrian" oneway="0" sidewalkWidth="3.00"/>
    <type id="highway.primary_link" priority="8" numLanes="1" speed="22.22" disallow="pedestrian" oneway="0" sidewalkWidth="3.00"/>
    <type id="highway.raceway" priority="14" numLanes="2" speed="83.33" allow="vip" oneway="0"/>
    <type id="highway.residential" priority="4" numLanes="1" speed="13.89" disallow="pedestrian" oneway="0" sidewalkWidth="2.00"/>
    <type id="highway.secondary" priority="7" numLanes="2" speed="27.78" disallow="pedestrian" oneway="0" sidewalkWidth="3.00"/>
    <type id="highway.secondary_link" priority="6" numLanes="1" speed="22.22" disallow="pedestrian" oneway="0" sidewalkWidth="3.00"/>
    <type id="highway.service" priority="2" numLanes="1" speed="5.56" allow="delivery pedestrian" oneway="0"/>
    <type id="highway.services" priority="1" numLanes="1" speed="8.33" disallow="tram rail_urban rail rail_electric ship" oneway="0"/>
    <type id="highway.stairs" priority="1" numLanes="1" speed="1.39" allow="pedestrian" oneway="1" width="2.00"/>
    <type id="highway.step" priority="1" numLanes="1" speed="1.39" allow="pedestrian" oneway="1" width="2.00"/>
    <type id="highway.steps" priority="1" numLanes="1" speed="1.39" allow="pedestrian" oneway="1" width="2.00"/>
    <type id="highway.tertiary" priority="6" numLanes="1" speed="22.22" disallow="pedestrian" oneway="0" sidewalkWidth="3.00"/>
    <type id="highway.tertiary_link" priority="5" numLanes="1" speed="22.22" disallow="pedestrian" oneway="0" sidewalkWidth="2.00"/>
    <type id="highway.track" priority="1" numLanes="1" speed="5.56" disallow="tram rail_urban rail rail_electric ship" oneway="0"/>
    <type id="highway.trunk" priority="11" numLanes="2" speed="27.78" disallow="bicycle pedestrian" oneway="0"/>
    <type id="highway.trunk_link" priority="10" numLanes="1" speed="22.22" disallow="bicycle pedestrian" oneway="0"/>
    <type id="highway.unclassified" priority="5" numLanes="1" speed="22.22" disallow="pedestrian" oneway="0" sidewalkWidth="2.00"/>
    <type id="highway.unsurfaced" priority="1" numLanes="1" speed="8.33" disallow="tram rail_urban rail rail_electric ship" oneway="0"/>
    <type id="railway.light_rail" priority="15" numLanes="1" speed="27.78" allow="rail_urban" oneway="1"/>
    <type id="railway.preserved" priority="15" numLanes="1" speed="27.78" allow="rail" oneway="1"/>
    <type id="railway.rail" priority="15" numLanes="1" speed="83.33" allow="rail" oneway="1"/>
    <type id="railway.subway" priority="15" numLanes="1" speed="27.78" allow="rail_urban" oneway="1"/>
    <type id="railway.tram" priority="15" numLanes="1" speed="27.78" allow="tram" oneway="1"/>

    <edge id="-143308673#0" from="1853142973" to="1568241232" priority="2" type="highway.service" shape="4469.43,188.80 4466.76,175.12 4460.99,161.71">
        <lane id="-143308673#0_0" index="0" allow="delivery pedestrian" speed="2.78" length="28.54" shape="4467.86,189.11 4465.22,175.59 4462.19,168.54"/>
    </edge>
    <edge id="-152709214" from="1654992589" to="1654992651" priority="2" type="highway.service" shape="4379.95,106.53 4395.69,94.72 4412.32,91.23 4428.49,90.90 4444.32,153.14 4454.47,164.08">
        <lane id="-152709214_0" index="0" allow="delivery pedestrian" speed="5.56" length="131.99" shape="4378.99,105.25 4395.01,93.23 4412.14,89.63 4429.73,89.27 4445.77,152.35 4449.86,156.76"/>
    </edge>
    <edge id="-169076556#0" from="1568241232" to="1568241231" priority="4" type="highway.residential">
        <lane id="-169076556#0_0" index="0" allow="pedestrian" speed="13.89" length="29.54" width="2.00" shape="4463.80,156.00 4486.69,146.55"/>
        <lane id="-169076556#0_1" index="1" disallow="pedestrian" speed="13.89" length="29.54" shape="4464.79,158.41 4487.68,148.95"/>
    </edge>
    <edge id="-169076556#1" from="1654992651" to="1568241232" priority="4" type="highway.residential">
        <lane id="-169076556#1_0" index="0" allow="pedestrian" speed="13.89" length="6.94" width="2.00" shape="4455.42,159.27 4455.65,159.18"/>
        <lane id="-169076556#1_1" index="1" disallow="pedestrian" speed="13.89" length="6.94" shape="4456.30,161.71 4456.54,161.63"/>
    </edge>
    <edge id="-169076556#2" from="283018497" to="1654992651" priority="4" type="highway.residential">
        <lane id="-169076556#2_0" index="0" allow="pedestrian" speed="13.89" length="19.46" width="2.00" shape="4438.06,165.57 4446.30,162.58"/>
        <lane id="-169076556#2_1" index="1" disallow="pedestrian" speed="13.89" length="19.46" shape="4438.95,168.01 4447.18,165.02"/>
    </edge>
    <edge id="-169076556#3" from="280095054" to="283018497" priority="4" type="highway.residential" shape="4394.12,174.41 4419.25,173.91 4436.18,170.72">
        <lane id="-169076556#3_0" index="0" allow="pedestrian" speed="13.89" length="42.36" width="2.00" shape="4394.04,170.21 4418.82,169.72 4430.38,167.54"/>
        <lane id="-169076556#3_1" index="1" disallow="pedestrian" speed="13.89" length="42.36" shape="4394.09,172.81 4419.08,172.31 4430.86,170.09"/>
    </edge>
    <edge id="-25944536" from="283018514" to="283018497" priority="2" type="highway.service" shape="4436.40,194.06 4438.12,188.51 4436.18,170.72">
        <lane id="-25944536_0" index="0" allow="delivery pedestrian" speed="5.56" length="23.71" shape="4434.87,193.59 4436.49,188.35 4435.34,177.82"/>
    </edge>
    <edge id="143308673#0" from="1568241232" to="1853142973" priority="2" type="highway.service" shape="4460.99,161.71 4466.76,175.12 4469.43,188.80">
        <lane id="143308673#0_0" index="0" allow="delivery pedestrian" speed="2.78" length="28.54" shape="4465.13,167.28 4468.30,174.65 4471.00,188.49"/>
    </edge>
    <edge id="152709214" from="1654992651" to="1654992589" priority="2" type="highway.service" shape="4454.47,164.08 4444.32,153.14 4428.49,90.90 4412.32,91.23 4395.69,94.72 4379.95,106.53">
        <lane id="152709214_0" index="0" allow="delivery pedestrian" speed="5.56" length="131.99" shape="4447.52,158.94 4442.87,153.93 4427.25,92.53 4412.50,92.83 4396.37,96.21 4380.91,107.81"/>
    </edge>
    <edge id="169076556#0" from="1568241231" to="1568241232" priority="4" type="highway.residential">
        <lane id="169076556#0_0" index="0" allow="pedestrian" speed="13.89" length="29.54" width="2.00" shape="4489.89,154.31 4467.01,163.77"/>
        <lane id="169076556#0_1" index="1" disallow="pedestrian" speed="13.89" length="29.54" shape="4488.90,151.91 4466.01,161.36"/>
    </edge>
    <edge id="169076556#1" from="1568241232" to="1654992651" priority="4" type="highway.residential">
        <lane id="169076556#1_0" index="0" allow="pedestrian" speed="13.89" length="6.94" width="2.00" shape="4458.52,167.08 4458.28,167.16"/>
        <lane id="169076556#1_1" index="1" disallow="pedestrian" speed="13.89" length="6.94" shape="4457.63,164.63 4457.40,164.72"/>
    </edge>
    <edge id="169076556#2" from="1654992651" to="283018497" priority="4" type="highway.residential">
        <lane id="169076556#2_0" index="0" allow="pedestrian" speed="13.89" length="19.46" width="2.00" shape="4449.16,170.47 4440.93,173.47"/>
        <lane id="169076556#2_1" index="1" disallow="pedestrian" speed="13.89" length="19.46" shape="4448.28,168.03 4440.04,171.02"/>
    </edge>
    <edge id="169076556#3" from="283018497" to="280095054" priority="4" type="highway.residential" shape="4436.18,170.72 4419.25,173.91 4394.12,174.41">
        <lane id="169076556#3_0" index="0" allow="pedestrian" speed="13.89" length="42.36" width="2.00" shape="4431.93,175.79 4419.68,178.10 4394.20,178.61"/>
        <lane id="169076556#3_1" index="1" disallow="pedestrian" speed="13.89" length="42.36" shape="4431.45,173.24 4419.42,175.51 4394.15,176.01"/>
    </edge>
    <edge id="25944536" from="283018497" to="283018514" priority="2" type="highway.service" shape="4436.18,170.72 4438.12,188.51 4436.40,194.06">
        <lane id="25944536_0" index="0" allow="delivery pedestrian" speed="5.56" length="23.71" shape="4438.53,177.47 4439.75,188.67 4437.93,194.53"/>
    </edge>

    <junction id="1568241231" type="priority" x="4488.29" y="150.43" incLanes="-169076556#0_0 -169076556#0_1" intLanes="" shape="4488.29,150.43 4486.30,145.62 4488.29,150.43">
        <request index="0" response="0" foes="0"/>
    </junction>
    <junction id="1568241232" type="priority" x="4460.99" y="161.71" incLanes="-143308673#0_0 169076556#0_0 169076556#0_1 -169076556#1_0 -169076556#1_1" intLanes="" shape="4460.72,169.17 4466.60,166.64 4467.39,164.69 4463.42,155.08 4455.07,158.33 4458.63,168.10">
        <request index="0" response="000010000" foes="100010000"/>
        <request index="1" response="011010000" foes="011110000"/>
        <request index="2" response="010001000" foes="010001000"/>
        <request index="3" response="000000000" foes="010000100"/>
        <request index="4" response="000000000" foes="110000011"/>
        <request index="5" response="001000010" foes="001000010"/>
        <request index="6" response="000000000" foes="000100010"/>
        <request index="7" response="000011000" foes="000011110"/>
        <request index="8" response="000010001" foes="000010001"/>
    </junction>
    <junction id="1654992589" type="priority" x="4379.95" y="106.53" incLanes="152709214_0" intLanes="" shape="4379.95,106.53 4381.87,109.09 4379.95,106.53">
        <request index="0" response="0" foes="0"/>
    </junction>
    <junction id="1654992651" type="priority" x="4454.47" y="164.08" incLanes="169076556#1_0 169076556#1_1 -152709214_0 -169076556#2_0 -169076556#2_1" intLanes="" shape="4458.86,168.02 4455.31,158.24 4451.04,155.67 4446.35,160.03 4445.96,161.64 4449.50,171.41">
        <request index="0" response="000000000" foes="100010000"/>
        <request index="1" response="011000000" foes="011110000"/>
        <request index="2" response="010001000" foes="010001000"/>
        <request index="3" response="010000000" foes="010000100"/>
        <request index="4" response="010000011" foes="110000011"/>
        <request index="5" response="001000010" foes="001000010"/>
        <request index="6" response="000000000" foes="000100010"/>
        <request index="7" response="000000000" foes="000011110"/>
        <request index="8" response="000010001" foes="000010001"/>
    </junction>
    <junction id="1853142973" type="priority" x="4469.43" y="188.80" incLanes="143308673#0_0" intLanes="" shape="4469.43,188.80 4472.57,188.19 4469.43,188.80">
        <request index="0" response="0" foes="0"/>
    </junction>
    <junction id="280095054" type="priority" x="4394.12" y="174.41" incLanes="169076556#3_0 169076556#3_1" intLanes="" shape="4394.12,174.41 4394.22,179.61 4394.12,174.41">
        <request index="0" response="0" foes="0"/>
    </junction>
    <junction id="283018497" type="priority" x="4436.18" y="170.72" incLanes="-25944536_0 169076556#2_0 169076556#2_1 -169076556#3_0 -169076556#3_1" intLanes="" shape="4433.75,177.99 4440.12,177.30 4441.27,174.41 4437.72,164.63 4430.19,166.56 4432.12,176.78">
        <request index="0" response="000010000" foes="100010000"/>
        <request index="1" response="011010000" foes="011110000"/>
        <request index="2" response="010001000" foes="010001000"/>
        <request index="3" response="000000000" foes="010000100"/>
        <request index="4" response="000000000" foes="110000011"/>
        <request index="5" response="001000010" foes="001000010"/>
        <request index="6" response="000000000" foes="000100010"/>
        <request index="7" response="000011000" foes="000011110"/>
        <request index="8" response="000010001" foes="000010001"/>
    </junction>
    <junction id="283018514" type="right_before_left" x="4436.40" y="194.06" incLanes="25944536_0" intLanes="" shape="4436.40,194.06 4439.46,195.01 4436.40,194.06">
        <request index="0" response="0" foes="0"/>
    </junction>

    <connection from="-143308673#0" to="169076556#1" fromLane="0" toLane="1" dir="r" state="m"/>
    <connection from="-143308673#0" to="-169076556#0" fromLane="0" toLane="1" dir="l" state="m"/>
    <connection from="-143308673#0" to="143308673#0" fromLane="0" toLane="0" dir="t" state="m"/>
    <connection from="-152709214" to="-169076556#1" fromLane="0" toLane="1" dir="r" state="m"/>
    <connection from="-152709214" to="169076556#2" fromLane="0" toLane="1" dir="l" state="m"/>
    <connection from="-152709214" to="152709214" fromLane="0" toLane="0" dir="t" state="m"/>
    <connection from="-169076556#0" to="169076556#0" fromLane="1" toLane="1" dir="t" state="M"/>
    <connection from="-169076556#1" to="-169076556#0" fromLane="1" toLane="1" dir="s" state="M"/>
    <connection from="-169076556#1" to="143308673#0" fromLane="1" toLane="0" dir="l" state="m"/>
    <connection from="-169076556#1" to="169076556#1" fromLane="1" toLane="1" dir="t" state="m"/>
    <connection from="-169076556#2" to="152709214" fromLane="1" toLane="0" dir="r" state="M"/>
    <connection from="-169076556#2" to="-169076556#1" fromLane="1" toLane="1" dir="s" state="M"/>
    <connection from="-169076556#2" to="169076556#2" fromLane="1" toLane="1" dir="t" state="m"/>
    <connection from="-169076556#3" to="-169076556#2" fromLane="1" toLane="1" dir="s" state="M"/>
    <connection from="-169076556#3" to="25944536" fromLane="1" toLane="0" dir="l" state="m"/>
    <connection from="-169076556#3" to="169076556#3" fromLane="1" toLane="1" dir="t" state="m"/>
    <connection from="-25944536" to="169076556#3" fromLane="0" toLane="1" dir="r" state="m"/>
    <connection from="-25944536" to="-169076556#2" fromLane="0" toLane="1" dir="l" state="m"/>
    <connection from="-25944536" to="25944536" fromLane="0" toLane="0" dir="t" state="m"/>
    <connection from="143308673#0" to="-143308673#0" fromLane="0" toLane="0" dir="t" state="M"/>
    <connection from="152709214" to="-152709214" fromLane="0" toLane="0" dir="t" state="M"/>
    <connection from="169076556#0" to="143308673#0" fromLane="1" toLane="0" dir="r" state="M"/>
    <connection from="169076556#0" to="169076556#1" fromLane="1" toLane="1" dir="s" state="M"/>
    <connection from="169076556#0" to="-169076556#0" fromLane="1" toLane="1" dir="t" state="m"/>
    <connection from="169076556#1" to="169076556#2" fromLane="1" toLane="1" dir="s" state="M"/>
    <connection from="169076556#1" to="152709214" fromLane="1" toLane="0" dir="l" state="m"/>
    <connection from="169076556#1" to="-169076556#1" fromLane="1" toLane="1" dir="t" state="m"/>
    <connection from="169076556#2" to="25944536" fromLane="1" toLane="0" dir="r" state="M"/>
    <connection from="169076556#2" to="169076556#3" fromLane="1" toLane="1" dir="s" state="M"/>
    <connection from="169076556#2" to="-169076556#2" fromLane="1" toLane="1" dir="t" state="m"/>
    <connection from="169076556#3" to="-169076556#3" fromLane="1" toLane="1" dir="t" state="M"/>
    <connection from="25944536" to="-25944536" fromLane="0" toLane="0" dir="t" state="="/>


</net>
