<?xml version="1.0"?>

<!-- generated on 10/14/09 14:54:55 by SUMO duarouter Version dev-SVN-r7857
<configuration>

    <input>
        <net-file value="input_net.net.xml"/>
        <weights value="input_weights.dump.xml"/>
        <trip-defs value="input_trips.trips.xml"/>
    </input>

    <output>
        <output-file value="routes.rou.xml"/>
        <exit-times value="true"/>
    </output>

    <time>
        <begin value="0"/>
        <end value="86400"/>
    </time>

</configuration>
-->

<routes>
   <vehicle id="0" type="0" depart="888">
      <route edges="beg middle end rend" exitTimes="898.00 973.00 990.93 1008.92 "/>
   </vehicle>
   <vehicle id="1" type="0" depart="892">
      <route edges="beg beg2left left left2end end rend" exitTimes="902.00 912.00 952.00 972.00 989.93 1007.92 "/>
   </vehicle>
</routes>
