<?xml version="1.0" encoding="UTF-8"?>

<!-- generated on Wed 12 Feb 2020 03:16:31 PM CET by Eclipse SUMO netedit Version v1_5_0+0030-33ecf87
<configuration xmlns:xsi="http://www.w3.org/2001/XMLSchema-instance" xsi:noNamespaceSchemaLocation="http://sumo.dlr.de/xsd/netconvertConfiguration.xsd">

    <input>
        <sumo-net-file value="/scr1/sumo/tests/sumo/sublane_model/motorway/strategic_stay_and_speedgain2/net.net.xml"/>
    </input>

    <output>
        <output-file value="/scr1/sumo/tests/sumo/sublane_model/motorway/strategic_stay_and_speedgain2/net.net.xml"/>
    </output>

    <processing>
        <geometry.min-radius.fix.railways value="false"/>
        <geometry.max-grade.fix value="false"/>
        <offset.disable-normalization value="true"/>
        <lefthand value="false"/>
    </processing>

    <junctions>
        <no-internal-links value="false"/>
        <no-turnarounds value="true"/>
        <junctions.corner-detail value="0"/>
        <junctions.limit-turn-speed value="-1"/>
        <rectangular-lane-cut value="false"/>
    </junctions>

    <pedestrian>
        <walkingareas value="false"/>
    </pedestrian>

    <report>
        <aggregate-warnings value="5"/>
    </report>

</configuration>
-->

<net version="1.3" xmlns:xsi="http://www.w3.org/2001/XMLSchema-instance" xsi:noNamespaceSchemaLocation="http://sumo.dlr.de/xsd/net_file.xsd">

    <location netOffset="0.00,0.00" convBoundary="0.00,0.00,600.00,0.00" origBoundary="-10000000000.00,-10000000000.00,10000000000.00,10000000000.00" projParameter="!"/>

    <edge id=":C_0" function="internal">
        <lane id=":C_0_0" index="0" speed="36.00" length="20.00" shape="490.00,0.00 510.00,0.00"/>
    </edge>

    <edge id="beg" from="gneJ0" to="C" priority="1" spreadType="center">
        <lane id="beg_0" index="0" speed="36.00" length="490.00" shape="0.00,-3.20 490.00,-3.20"/>
        <lane id="beg_1" index="1" speed="36.00" length="490.00" shape="0.00,0.00 490.00,0.00"/>
        <lane id="beg_2" index="2" speed="36.00" length="490.00" shape="0.00,3.20 490.00,3.20"/>
    </edge>
    <edge id="end" from="C" to="gneJ2" priority="1" spreadType="center">
        <lane id="end_0" index="0" speed="36.00" length="90.00" shape="510.00,0.00 600.00,0.00"/>
    </edge>

    <junction id="C" type="unregulated" x="500.00" y="0.00" incLanes="beg_0 beg_1 beg_2" intLanes=":C_0_0" shape="510.00,1.60 510.00,-1.60 490.00,-4.80 490.00,4.80" radius="10.00"/>
    <junction id="gneJ0" type="dead_end" x="0.00" y="0.00" incLanes="" intLanes="" shape="0.00,4.80 0.00,-4.80"/>
    <junction id="gneJ2" type="dead_end" x="600.00" y="0.00" incLanes="end_0" intLanes="" shape="600.00,-1.60 600.00,1.60"/>

    <connection from="beg" to="end" fromLane="1" toLane="0" via=":C_0_0" dir="s" state="M"/>

    <connection from=":C_0" to="end" fromLane="0" toLane="0" dir="s" state="M"/>

</net>
