<?xml version="1.0" encoding="UTF-8"?>

<!-- generated on 2023-03-01 13:04:21 by Eclipse SUMO sumo Version v1_16_0+0850-438bb8b
This data file and the accompanying materials
are made available under the terms of the Eclipse Public License v2.0
which accompanies this distribution, and is available at
http://www.eclipse.org/legal/epl-v20.html
This file may also be made available under the following Secondary
Licenses when the conditions for such availability set forth in the Eclipse
Public License 2.0 are satisfied: GNU General Public License, version 2
or later which is available at
https://www.gnu.org/licenses/old-licenses/gpl-2.0-standalone.html
SPDX-License-Identifier: EPL-2.0 OR GPL-2.0-or-later
<configuration xmlns:xsi="http://www.w3.org/2001/XMLSchema-instance" xsi:noNamespaceSchemaLocation="http://sumo.dlr.de/xsd/sumoConfiguration.xsd">

    <input>
        <net-file value="net.net.xml"/>
        <route-files value="input_routes.rou.xml"/>
        <additional-files value="input_additional.add.xml"/>
    </input>

    <output>
        <write-license value="true"/>
    </output>

    <processing>
        <default.speeddev value="0"/>
    </processing>

    <report>
        <xml-validation value="never"/>
        <duration-log.disable value="true"/>
        <no-step-log value="true"/>
    </report>

</configuration>
-->

<e3Detector xmlns:xsi="http://www.w3.org/2001/XMLSchema-instance" xsi:noNamespaceSchemaLocation="http://sumo.dlr.de/xsd/det_e3_file.xsd">
   <interval begin="0.00" end="300.00" id="e3_C" meanTravelTime="54.29" meanOverlapTravelTime="56.04" meanSpeed="6.04" meanHaltsPerVehicle="1.13" meanTimeLoss="37.97" vehicleSum="264" meanSpeedWithin="5.46" meanHaltsPerVehicleWithin="1.55" meanDurationWithin="57.99" vehicleSumWithin="96" meanIntervalSpeedWithin="5.46" meanIntervalHaltsPerVehicleWithin="1.55" meanIntervalDurationWithin="57.99" meanTimeLossWithin="43.95"/>
   <interval begin="300.00" end="600.00" id="e3_C" meanTravelTime="82.67" meanOverlapTravelTime="84.57" meanSpeed="4.58" meanHaltsPerVehicle="1.82" meanTimeLoss="66.56" vehicleSum="324" meanSpeedWithin="3.69" meanHaltsPerVehicleWithin="2.66" meanDurationWithin="91.47" vehicleSumWithin="128" meanIntervalSpeedWithin="3.69" meanIntervalHaltsPerVehicleWithin="2.66" meanIntervalDurationWithin="91.46" meanTimeLossWithin="79.37"/>
   <interval begin="600.00" end="900.00" id="e3_C" meanTravelTime="114.28" meanOverlapTravelTime="116.20" meanSpeed="4.67" meanHaltsPerVehicle="2.72" meanTimeLoss="98.27" vehicleSum="283" meanSpeedWithin="4.54" meanHaltsPerVehicleWithin="2.95" meanDurationWithin="112.04" vehicleSumWithin="86" meanIntervalSpeedWithin="4.53" meanIntervalHaltsPerVehicleWithin="2.77" meanIntervalDurationWithin="108.05" meanTimeLossWithin="93.82"/>
   <interval begin="900.00" end="1158.00" id="e3_C" meanTravelTime="140.32" meanOverlapTravelTime="141.90" meanSpeed="4.07" meanHaltsPerVehicle="3.48" meanTimeLoss="123.39" vehicleSum="129" meanSpeedWithin="-1.00" meanHaltsPerVehicleWithin="-1.00" meanDurationWithin="-1.00" vehicleSumWithin="0" meanIntervalSpeedWithin="-1.00" meanIntervalHaltsPerVehicleWithin="-1.00" meanIntervalDurationWithin="-1.00" meanTimeLossWithin="-1.00"/>
</e3Detector>
