<?xml version="1.0" encoding="UTF-8"?>

<!-- generated on 2025-05-05 13:27:16 by Eclipse SUMO netedit Version v1_22_0+1864-3b6a10afb88
-->

<routes xmlns:xsi="http://www.w3.org/2001/XMLSchema-instance" xsi:noNamespaceSchemaLocation="http://sumo.dlr.de/xsd/routes_file.xsd">
    <!-- VTypes -->
    <vType id="train" length="50.00" vClass="rail"/>
    <vType id="train_slow" length="50.00" maxSpeed="22.22" vClass="rail"/>
    <!-- Routes -->
    <route id="r_branch" edges="E0 E1 E2 E3 E4b E5b E6b E7c E8c E9c"/>
    <route id="r_main" edges="E0 E1 E2 E3 E4 E5 E6 E7 E8 E9"/>
    <route id="r_main2" edges="E0x E3x E4 E5 E6 E7 E8 E9"/>
</routes>
