<?xml version="1.0" encoding="UTF-8"?>

<!-- generated on 2022-06-03 12:04:19 by Eclipse SUMO netedit Version v1_13_0+0593-81dd51a759b
-->

<routes xmlns:xsi="http://www.w3.org/2001/XMLSchema-instance" xsi:noNamespaceSchemaLocation="http://sumo.dlr.de/xsd/routes_file.xsd">
    <!-- Vehicles, persons and containers (sorted by depart) -->
    <containerFlow id="p_0" begin="0.00" end="23.00" containersPerHour="10.00">
        <tranship from="gneE2" to="gneE5"/>
    </containerFlow>
    <containerFlow id="p_5" begin="0.00" end="23.00" containersPerHour="20.30">
        <tranship from="gneE2" to="gneE5"/>
    </containerFlow>
    <containerFlow id="p_6" begin="0.00" end="23.00" containersPerHour="2.30">
        <tranship from="gneE2" to="gneE5"/>
    </containerFlow>
    <containerFlow id="p_7" begin="0.00" end="23.00" containersPerHour="1.70">
        <tranship from="gneE2" to="gneE5"/>
    </containerFlow>
</routes>
