<?xml version="1.0" encoding="UTF-8"?>
<!-- generated on 2020-03-10 13:44:46.593437 by routeSampler.py v1_5_0+0599-3f66299
  options: -r input_routes2.rou.xml -t input_turns.xml -o out.rou.xml <doubleminus>optimize 2
-->
<routes xmlns:xsi="http://www.w3.org/2001/XMLSchema-instance" xsi:noNamespaceSchemaLocation="http://sumo.dlr.de/xsd/routes_file.xsd">
<!-- begin="0.0" end="99.0" -->
    <vehicle id="0" depart="0.00">
        <route edges="109.80.00 -109 -109.80.00 -11 -11.80.00 5"/>
    </vehicle>
    <vehicle id="1" depart="1.87">
        <route edges="45 -68 -43 -43.80.00 -27 -27.80.00 -3 -3.180.00 15 15.180.00"/>
    </vehicle>
    <vehicle id="2" depart="3.74">
        <route edges="75.121.42 -64 -64.80.00 -31 -31.80.00 -23 -23.80.00 -11"/>
    </vehicle>
    <vehicle id="3" depart="5.60">
        <route edges="-37 -37.80.00 31 31.80.00 64 64.80.00 -64"/>
    </vehicle>
    <vehicle id="4" depart="7.47">
        <route edges="-131 -131.180.00 -109 -109.80.00 -11 -11.80.00 3 3.180.00 27"/>
    </vehicle>
    <vehicle id="5" depart="9.34">
        <route edges="144 144.121.42 -15 -15.180.00 3 3.180.00 -71 -55 -55.80.00"/>
    </vehicle>
    <vehicle id="6" depart="11.21">
        <route edges="31.80.00 -31 -31.80.00 -23 -23.80.00 -11 -11.80.00 3 3.180.00 27 27.80.00 -27 -27.80.00"/>
    </vehicle>
    <vehicle id="7" depart="13.08">
        <route edges="-60 -60.80.00 -31 -31.80.00 -23 -23.80.00 -11 -11.80.00 3 3.180.00 -3 -3.180.00"/>
    </vehicle>
    <vehicle id="8" depart="14.94">
        <route edges="-92 -92.180.00 75 75.121.42 120 120.180.00 123 123.121.42 -15 -15.180.00"/>
    </vehicle>
    <vehicle id="9" depart="16.81">
        <route edges="123 123.121.42 -123 -123.121.42 -109 -109.80.00 23 23.80.00 31 31.80.00 64 64.80.00"/>
    </vehicle>
    <vehicle id="10" depart="18.68">
        <route edges="-58.121.42 -31 -31.80.00 -23 -23.80.00 -11 -11.80.00 3 3.180.00 27"/>
    </vehicle>
    <vehicle id="11" depart="20.55">
        <route edges="144 144.121.42 -15 -15.180.00 3 3.180.00 -71 -55 -55.80.00"/>
    </vehicle>
    <vehicle id="12" depart="22.42">
        <route edges="120 120.180.00 -109 -109.80.00 23 23.80.00 -23"/>
    </vehicle>
    <vehicle id="13" depart="24.28">
        <route edges="-75 -75.121.42 -60 -60.80.00 -31 -31.80.00 -23 -23.80.00 23 23.80.00"/>
    </vehicle>
    <vehicle id="14" depart="26.15">
        <route edges="-37 -37.80.00 -23 -23.80.00 109 109.80.00 131 131.180.00"/>
    </vehicle>
    <vehicle id="15" depart="28.02">
        <route edges="144 144.121.42 -123 -123.121.42 -120 -120.180.00 120"/>
    </vehicle>
    <vehicle id="16" depart="29.89">
        <route edges="3 3.180.00 -3 -3.180.00 11 11.80.00"/>
    </vehicle>
    <vehicle id="17" depart="31.75">
        <route edges="-58 -58.121.42 -31 -31.80.00 -23 -23.80.00 -11 -11.80.00 3 3.180.00 27 27.80.00 43 68 -45 -45.80.00"/>
    </vehicle>
    <vehicle id="18" depart="33.62">
        <route edges="-131 -131.180.00 -109 -109.80.00 -11 -11.80.00 3 3.180.00 27 27.80.00 43 68 -45 -45.80.00"/>
    </vehicle>
    <vehicle id="19" depart="35.49">
        <route edges="144 144.121.42 -123 -123.121.42 -120 -120.180.00 120"/>
    </vehicle>
    <vehicle id="20" depart="37.36">
        <route edges="-43 -43.80.00 -27 -27.80.00 -3 -3.180.00 11 11.80.00 23 23.80.00 31 31.80.00 60 60.80.00 -60 -60.80.00"/>
    </vehicle>
    <vehicle id="21" depart="39.23">
        <route edges="43 68 -45 -45.80.00 -27 -27.80.00 27 27.80.00 45"/>
    </vehicle>
    <vehicle id="22" depart="41.09">
        <route edges="-92.180.00 -60 -60.80.00 -31 -31.80.00 -23 -23.80.00 -11 -11.80.00 3 3.180.00 -3 -3.180.00"/>
    </vehicle>
    <vehicle id="23" depart="42.96">
        <route edges="-60 -60.80.00 -31 -31.80.00 -23 -23.80.00 -11 -11.80.00 3 3.180.00 -3 -3.180.00"/>
    </vehicle>
    <vehicle id="24" depart="44.83">
        <route edges="27 27.80.00 -27 -27.80.00 -3 -3.180.00 15 15.180.00 -144 -144.121.42 -131"/>
    </vehicle>
    <vehicle id="25" depart="46.70">
        <route edges="-27 -27.80.00 27 27.80.00 43 68 -45"/>
    </vehicle>
    <vehicle id="26" depart="48.57">
        <route edges="-58 -58.121.42 -31 -31.80.00 -23 -23.80.00 -11 -11.80.00 3 3.180.00 27 27.80.00 43 68 -45 -45.80.00"/>
    </vehicle>
    <vehicle id="27" depart="50.43">
        <route edges="-131 -131.180.00 -109 -109.80.00 -11 -11.80.00 3 3.180.00 27"/>
    </vehicle>
    <vehicle id="28" depart="52.30">
        <route edges="27 27.80.00 -27 -27.80.00 -3 -3.180.00 15 15.180.00 -144 -144.121.42 -131"/>
    </vehicle>
    <vehicle id="29" depart="54.17">
        <route edges="45 -68 -43 -43.80.00 -27 -27.80.00 -3 -3.180.00 15 15.180.00"/>
    </vehicle>
    <vehicle id="30" depart="56.04">
        <route edges="144 144.121.42 -15 -15.180.00 3 3.180.00 -71 -55 -55.80.00"/>
    </vehicle>
    <vehicle id="31" depart="57.91">
        <route edges="-37 -37.80.00 -23 -23.80.00 109 109.80.00 131 131.180.00"/>
    </vehicle>
    <vehicle id="32" depart="59.77">
        <route edges="-27.80.00 -3 -3.180.00 11 11.80.00 23 23.80.00 31 31.80.00 60 60.80.00 75 75.121.42"/>
    </vehicle>
    <vehicle id="33" depart="61.64">
        <route edges="-27 -27.80.00 27 27.80.00 43 68 -45"/>
    </vehicle>
    <vehicle id="34" depart="63.51">
        <route edges="3 3.180.00 -3 -3.180.00 11 11.80.00"/>
    </vehicle>
    <vehicle id="35" depart="65.38">
        <route edges="-45 -45.80.00 -27 -27.80.00 -3 -3.180.00 3"/>
    </vehicle>
    <vehicle id="36" depart="67.25">
        <route edges="-79 -79.80.00 75 75.121.42 120 120.180.00 -120 -120.180.00"/>
    </vehicle>
    <vehicle id="37" depart="69.11">
        <route edges="15 15.180.00 -123 -123.121.42 -120 -120.180.00 -75 -75.121.42 -60"/>
    </vehicle>
    <vehicle id="38" depart="70.98">
        <route edges="31.80.00 -31 -31.80.00 -23 -23.80.00 -11 -11.80.00 3 3.180.00 27 27.80.00 -27 -27.80.00"/>
    </vehicle>
    <vehicle id="39" depart="72.85">
        <route edges="-3.180.00 11 11.80.00 109 109.80.00 123"/>
    </vehicle>
    <vehicle id="40" depart="74.72">
        <route edges="109.80.00 -109 -109.80.00 -11 -11.80.00 5"/>
    </vehicle>
    <vehicle id="41" depart="76.58">
        <route edges="45 -68 -43 -43.80.00 -27 -27.80.00 -3 -3.180.00 15 15.180.00"/>
    </vehicle>
    <vehicle id="42" depart="78.45">
        <route edges="-3.180.00 11 11.80.00 109 109.80.00 123"/>
    </vehicle>
    <vehicle id="43" depart="80.32">
        <route edges="-58.121.42 -31 -31.80.00 -23 -23.80.00 -11 -11.80.00 3 3.180.00 27"/>
    </vehicle>
    <vehicle id="44" depart="82.19">
        <route edges="15.180.00 -15 -15.180.00 3 3.180.00 27 27.80.00 -27"/>
    </vehicle>
    <vehicle id="45" depart="84.06">
        <route edges="-37 -37.80.00 -23 -23.80.00 109 109.80.00 131 131.180.00"/>
    </vehicle>
    <vehicle id="46" depart="85.92">
        <route edges="75.121.42 -64 -64.80.00 -31 -31.80.00 -23 -23.80.00 -11"/>
    </vehicle>
    <vehicle id="47" depart="87.79">
        <route edges="-60 -60.80.00 -31 -31.80.00 -23 -23.80.00 -11 -11.80.00 3 3.180.00 -3 -3.180.00"/>
    </vehicle>
    <vehicle id="48" depart="89.66">
        <route edges="-27.80.00 -3 -3.180.00 11 11.80.00 23 23.80.00 31 31.80.00 60 60.80.00 75 75.121.42"/>
    </vehicle>
    <vehicle id="49" depart="91.53">
        <route edges="75.121.42 -64 -64.80.00 -31 -31.80.00 -23 -23.80.00 -11"/>
    </vehicle>
    <vehicle id="50" depart="93.40">
        <route edges="15 15.180.00 -123 -123.121.42 -120 -120.180.00 -75 -75.121.42 -60"/>
    </vehicle>
    <vehicle id="51" depart="95.26">
        <route edges="-15 -15.180.00 15 15.180.00"/>
    </vehicle>
    <vehicle id="52" depart="97.13">
        <route edges="-79 -79.80.00 75 75.121.42 120 120.180.00 -120 -120.180.00"/>
    </vehicle>
</routes>
