<?xml version="1.0" encoding="UTF-8"?>

<!-- generated on 2025-03-12 14:02:40 by Eclipse SUMO netedit Version v1_22_0+0808-91687f8467b
This data file and the accompanying materials
are made available under the terms of the Eclipse Public License v2.0
which accompanies this distribution, and is available at
http://www.eclipse.org/legal/epl-v20.html
This file may also be made available under the following Secondary
Licenses when the conditions for such availability set forth in the Eclipse
Public License 2.0 are satisfied: GNU General Public License, version 2
or later which is available at
https://www.gnu.org/licenses/old-licenses/gpl-2.0-standalone.html
SPDX-License-Identifier: EPL-2.0 OR GPL-2.0-or-later
-->

<additional xmlns:xsi="http://www.w3.org/2001/XMLSchema-instance" xsi:noNamespaceSchemaLocation="http://sumo.dlr.de/xsd/additional_file.xsd">
    <!-- StoppingPlaces -->
    <busStop id="busStop_01" name="busStop" lane="EdgeCenter1_1" startPos="5.00" endPos="10.00" lines="lineA lineB"/>
    <busStop id="busStop_02" name="busStop" lane="EdgeCenter1_1" startPos="15.00" endPos="20.00" friendlyPos="1" lines="lineA lineB"/>
    <busStop id="busStop_03" name="busStop" lane="EdgeCenter1_1" startPos="-10.00" endPos="-20.00" friendlyPos="1" lines="lineA lineB"/>
    <busStop id="busStop_04" name="busStop" lane="EdgeCenter1_1" startPos="-20.00" endPos="-10.00" friendlyPos="1" lines="lineA lineB"/>
    <busStop id="busStop_05" name="busStop" lane="EdgeCenter1_1" startPos="200.00" endPos="300.00" friendlyPos="1" lines="lineA lineB"/>
    <busStop id="busStop_06" name="busStop" lane="EdgeCenter1_1" startPos="50.00" endPos="20.00" friendlyPos="1" lines="lineA lineB"/>
    <busStop id="busStop_07" name="busStop" lane="EdgeCenter1_1" startPos="20.00" endPos="20.00" friendlyPos="1" lines="lineA lineB"/>
</additional>
