<?xml version="1.0" encoding="UTF-8"?>

<!-- generated on 01/19/18 11:32:06 by SUMO marouter Version v0_31_0+1647-6d8dc768ae
-->

<configuration xmlns:xsi="http://www.w3.org/2001/XMLSchema-instance" xsi:noNamespaceSchemaLocation="http://sumo.dlr.de/xsd/marouterConfiguration.xsd">

    <input>
        <net-file value="input_net.net.xml"/>
        <additional-files value="input_taz.taz.xml"/>
        <od-matrix-files value="input_od_o.fma"/>
    </input>

    <output>
        <output-file value="routes.rou.xml"/>
    </output>

</configuration>
