<?xml version="1.0" encoding="UTF-8"?>

<!-- generated on 2025-09-01 20:00:41 by Eclipse SUMO netconvert Version v1_24_0+0537-7db11dde4fd
<netconvertConfiguration xmlns:xsi="http://www.w3.org/2001/XMLSchema-instance" xsi:noNamespaceSchemaLocation="http://sumo.dlr.de/xsd/netconvertConfiguration.xsd">

    <input>
        <sumo-net-file value="input_net.net.xml"/>
        <node-files value="net.nod.xml"/>
        <edge-files value="net.edg.xml"/>
    </input>

    <output>
        <output-file value="net.net.xml"/>
        <output.street-names value="true"/>
    </output>

    <processing>
        <geometry.min-radius.fix.railways value="false"/>
        <geometry.avoid-overlap value="false"/>
        <geometry.max-grade.fix value="false"/>
        <offset.disable-normalization value="true"/>
        <lefthand value="0"/>
    </processing>

    <junctions>
        <no-internal-links value="true"/>
        <no-turnarounds value="true"/>
        <junctions.corner-detail value="5"/>
        <junctions.limit-turn-speed value="5.50"/>
        <rectangular-lane-cut value="0"/>
    </junctions>

    <pedestrian>
        <walkingareas value="0"/>
    </pedestrian>

</netconvertConfiguration>
-->

<net version="1.20" junctionCornerDetail="5" limitTurnSpeed="5.50" avoidOverlap="0" xmlns:xsi="http://www.w3.org/2001/XMLSchema-instance" xsi:noNamespaceSchemaLocation="http://sumo.dlr.de/xsd/net_file.xsd">

    <location netOffset="-403040.31,-5788711.14" convBoundary="-505.33,0.00,2036.17,460.00" origBoundary="13.574416,52.240912,13.691479,52.413950" projParameter="+proj=utm +zone=33 +ellps=WGS84 +datum=WGS84 +units=m +no_defs"/>

    <type id="railway.light_rail" priority="19" numLanes="1" speed="27.78" allow="rail_urban" oneway="1"/>
    <type id="railway.rail" priority="20" numLanes="1" speed="44.44" allow="rail" oneway="1"/>

    <edge id="-121902849" from="42145788" to="374388207" name="6142" priority="20" type="railway.rail" spreadType="center" length="85.51" bidi="33142249">
        <lane id="-121902849_0" index="0" allow="rail rail_electric rail_fast" speed="27.78" length="85.51" shape="1009.40,80.00 1062.07,80.00">
            <param key="origId" value="121902849 8602141 33142249"/>
        </lane>
    </edge>
    <edge id="-124449286#0" from="1363480435" to="4395255491" priority="20" type="railway.rail" spreadType="center" length="270.18" shape="1191.88,240.00 1121.23,420.00 1027.24,420.00" bidi="441828377">
        <lane id="-124449286#0_0" index="0" allow="rail rail_electric rail_fast" speed="44.44" length="270.18" shape="1190.93,242.41 1121.23,420.00 1027.24,420.00">
            <param key="origId" value="124449286 742458425 742458426 441828378 441828377"/>
        </lane>
    </edge>
    <edge id="-124449286#2" from="428994711" to="1363480434" priority="20" type="railway.rail" spreadType="center" length="8.44" bidi="124449286#2">
        <lane id="-124449286#2_0" index="0" allow="rail rail_electric rail_fast" speed="44.44" length="8.44" shape="1220.09,160.00 1217.33,160.00">
            <param key="origId" value="124449286"/>
        </lane>
    </edge>
    <edge id="-153134060#0" from="10707784192" to="296021288" name="6007" priority="19" type="railway.light_rail" spreadType="center" length="412.89" bidi="153134060#0">
        <lane id="-153134060#0_0" index="0" allow="rail_urban" speed="22.22" length="412.89" shape="102.68,100.00 84.84,100.00">
            <param key="origId" value="153134060"/>
        </lane>
    </edge>
    <edge id="-153134060#1" from="296020389" to="10707784192" name="6007" priority="19" type="railway.light_rail" spreadType="center" length="33.49" bidi="153134060#1">
        <lane id="-153134060#1_0" index="0" allow="rail_urban" speed="22.22" length="33.49" shape="122.68,100.00 102.68,100.00">
            <param key="origId" value="153134060"/>
        </lane>
    </edge>
    <edge id="-153134060#2" from="10707835705" to="296020389" name="6007" priority="19" type="railway.light_rail" spreadType="center" length="760.71" bidi="153134060#2">
        <lane id="-153134060#2_0" index="0" allow="rail_urban" speed="22.22" length="760.71" shape="163.14,100.00 122.68,100.00">
            <param key="origId" value="153134060"/>
        </lane>
    </edge>
    <edge id="-153134060#3" from="10707835708" to="10707835705" name="6007" priority="19" type="railway.light_rail" spreadType="center" length="535.10" bidi="153134060#3">
        <lane id="-153134060#3_0" index="0" allow="rail_urban" speed="22.22" length="535.10" shape="183.14,100.00 163.14,100.00">
            <param key="origId" value="153134060"/>
        </lane>
    </edge>
    <edge id="-153134060#4" from="10707835717" to="10707835708" name="6007" priority="19" type="railway.light_rail" spreadType="center" length="791.57" bidi="153134060#4">
        <lane id="-153134060#4_0" index="0" allow="rail_urban" speed="22.22" length="791.57" shape="323.31,100.00 183.14,100.00">
            <param key="origId" value="153134060"/>
        </lane>
    </edge>
    <edge id="-153134060#5" from="418008014" to="10707835717" name="6007" priority="19" type="railway.light_rail" spreadType="center" length="177.48" bidi="153134060#5">
        <lane id="-153134060#5_0" index="0" allow="rail_urban" speed="22.22" length="177.48" shape="381.15,100.00 323.31,100.00">
            <param key="origId" value="153134060"/>
        </lane>
    </edge>
    <edge id="-176623658#0" from="4395205108" to="4360022513" name="6520" priority="20" type="railway.rail" spreadType="center" length="3110.07" shape="1900.42,440.00 943.81,440.00 923.81,420.00" bidi="-8044249">
        <lane id="-176623658#0_0" index="0" allow="rail" speed="22.22" length="3110.07" shape="1900.42,440.00 943.81,440.00 924.28,420.47">
            <param key="origId" value="176623658 5650950 10414934 8044249"/>
        </lane>
    </edge>
    <edge id="-176623658#1" from="4359951274" to="4395205108" name="6520" priority="20" type="railway.rail" spreadType="center" length="394.40" bidi="176623658#1">
        <lane id="-176623658#1_0" index="0" allow="rail" speed="22.22" length="394.40" shape="1932.48,440.00 1900.42,440.00">
            <param key="origId" value="176623658"/>
        </lane>
    </edge>
    <edge id="-23369315" from="293605248" to="1363480438" name="6007" priority="19" type="railway.light_rail" spreadType="center" length="141.49" bidi="294730185">
        <lane id="-23369315_0" index="0" allow="rail_urban" speed="22.22" length="141.49" shape="1107.45,120.00 1008.62,120.00">
            <param key="origId" value="23369315 23369316 294730185"/>
        </lane>
    </edge>
    <edge id="-254025498" from="2598612721" to="295049179" priority="20" type="railway.rail" spreadType="center" length="134.72" shape="1751.04,80.00 1771.04,100.00 1792.00,100.00" bidi="254025498">
        <lane id="-254025498_0" index="0" allow="rail rail_electric rail_fast" speed="27.78" length="134.72" shape="1754.83,83.79 1771.04,100.00 1786.64,100.00">
            <param key="origId" value="254025498"/>
        </lane>
    </edge>
    <edge id="-254033615#0" from="295049177" to="295049179" name="6142" priority="20" type="railway.rail" spreadType="center" length="113.39" bidi="254033615#0">
        <lane id="-254033615#0_0" index="0" allow="rail rail_electric rail_fast" speed="44.44" length="113.39" shape="1773.53,118.47 1788.21,103.79">
            <param key="origId" value="254033615"/>
        </lane>
    </edge>
    <edge id="-255228345#0" from="10707835741" to="428356234" name="6007" priority="19" type="railway.light_rail" spreadType="center" length="433.23" bidi="255228345#0">
        <lane id="-255228345#0_0" index="0" allow="rail_urban" speed="22.22" length="433.23" shape="590.66,100.00 532.82,100.00">
            <param key="origId" value="255228345"/>
        </lane>
    </edge>
    <edge id="-255228346#0" from="10707835725" to="418008014" priority="19" type="railway.light_rail" spreadType="center" length="239.32" bidi="255228346#0">
        <lane id="-255228346#0_0" index="0" allow="rail_urban" speed="27.78" length="239.32" shape="453.68,100.00 388.67,100.00">
            <param key="origId" value="255228346"/>
        </lane>
        <param key="railway:track_ref" value="3"/>
    </edge>
    <edge id="-255228346#1" from="10707835734" to="10707835725" priority="19" type="railway.light_rail" spreadType="center" length="167.30" bidi="255228346#1">
        <lane id="-255228346#1_0" index="0" allow="rail_urban" speed="27.78" length="167.30" shape="504.29,100.00 453.68,100.00">
            <param key="origId" value="255228346"/>
        </lane>
        <param key="railway:track_ref" value="3"/>
    </edge>
    <edge id="-255228346#2" from="428356234" to="10707835734" priority="19" type="railway.light_rail" spreadType="center" length="153.76" bidi="255228346#2">
        <lane id="-255228346#2_0" index="0" allow="rail_urban" speed="27.78" length="153.76" shape="525.30,100.00 504.29,100.00">
            <param key="origId" value="255228346"/>
        </lane>
        <param key="railway:track_ref" value="3"/>
    </edge>
    <edge id="-255228348#0" from="428356234" to="10707835735" name="6007" priority="19" type="railway.light_rail" spreadType="center" length="153.51" bidi="255228348#0">
        <lane id="-255228348#0_0" index="0" allow="rail_urban" speed="22.22" length="153.51" shape="526.87,103.79 511.13,119.53">
            <param key="origId" value="255228348"/>
        </lane>
        <param key="railway:track_ref" value="4"/>
    </edge>
    <edge id="-255228348#1" from="10707835735" to="10707835726" name="6007" priority="19" type="railway.light_rail" spreadType="center" length="167.93" bidi="255228348#1">
        <lane id="-255228348#1_0" index="0" allow="rail_urban" speed="22.22" length="167.93" shape="510.00,120.00 460.34,120.00">
            <param key="origId" value="255228348"/>
        </lane>
        <param key="railway:track_ref" value="4"/>
    </edge>
    <edge id="-255228348#2" from="10707835726" to="418008014" name="6007" priority="19" type="railway.light_rail" spreadType="center" length="239.06" shape="460.34,120.00 403.31,120.00 383.31,100.00" bidi="255228348#2">
        <lane id="-255228348#2_0" index="0" allow="rail_urban" speed="22.22" length="239.06" shape="460.34,120.00 403.31,120.00 387.10,103.79">
            <param key="origId" value="255228348"/>
        </lane>
        <param key="railway:track_ref" value="4"/>
    </edge>
    <edge id="-26926962" from="295049993" to="295049529" priority="20" type="railway.rail" spreadType="center" length="990.20" bidi="121902859">
        <lane id="-26926962_0" index="0" allow="rail" speed="44.44" length="990.20" shape="1920.42,160.00 1716.40,160.00">
            <param key="origId" value="26926962 121902859"/>
        </lane>
    </edge>
    <edge id="-26927036" from="293604102" to="42132826" name="6520" priority="20" type="railway.rail" spreadType="center" length="561.79" shape="1154.62,180.00 1045.69,400.00 956.77,400.00" bidi="314928807#1">
        <lane id="-26927036_0" index="0" allow="rail" speed="13.89" length="561.79" shape="1152.81,183.65 1045.69,400.00 956.77,400.00">
            <param key="origId" value="26927036 314928807"/>
        </lane>
    </edge>
    <edge id="-294730182" from="293605247" to="293604102" name="6520" priority="20" type="railway.rail" spreadType="center" length="48.21" bidi="742458424">
        <lane id="-294730182_0" index="0" allow="rail" speed="44.44" length="48.21" shape="1172.79,143.66 1155.73,177.77">
            <param key="origId" value="294730182 742458423 742458424"/>
        </lane>
    </edge>
    <edge id="-294730183" from="428759039" to="293605248" name="6007" priority="19" type="railway.light_rail" spreadType="center" length="240.97" bidi="742458420">
        <lane id="-294730183_0" index="0" allow="rail_urban" speed="22.22" length="240.97" shape="1287.61,120.00 1118.17,120.00">
            <param key="origId" value="294730183 742458419 742458420"/>
        </lane>
        <param key="railway:track_ref" value="2"/>
    </edge>
    <edge id="-295348086" from="2990609221" to="296021449" priority="19" type="railway.light_rail" spreadType="center" length="90.09" bidi="295348086">
        <lane id="-295348086_0" index="0" allow="rail_urban" speed="27.78" length="90.09" shape="-36.21,116.21 -23.79,103.79">
            <param key="origId" value="295348086"/>
        </lane>
    </edge>
    <edge id="-314928807#0" from="42132826" to="291831407" name="6520" priority="20" type="railway.rail" spreadType="center" length="209.96" bidi="314928807#0" distance="57310.36">
        <lane id="-314928807#0_0" index="0" allow="rail" speed="13.89" length="209.96" shape="956.77,400.00 909.58,400.00">
            <param key="origId" value="314928807"/>
        </lane>
    </edge>
    <edge id="-314928808" from="291831407" to="42132803" name="6520" priority="20" type="railway.rail" spreadType="center" length="117.45" bidi="314928808">
        <lane id="-314928808_0" index="0" allow="rail" speed="5.56" length="117.45" shape="909.58,400.00 904.15,400.00">
            <param key="origId" value="314928808"/>
        </lane>
    </edge>
    <edge id="-326225735#0" from="10707835751" to="10707835741" name="6007" priority="19" type="railway.light_rail" spreadType="center" length="1053.19" bidi="255228345#1">
        <lane id="-326225735#0_0" index="0" allow="rail_urban" speed="22.22" length="1053.19" shape="630.66,100.00 590.66,100.00">
            <param key="origId" value="326225735 326225725 255228345"/>
        </lane>
    </edge>
    <edge id="-326225735#1" from="1363480438" to="10707835751" name="6007" priority="19" type="railway.light_rail" spreadType="center" length="440.94" shape="1006.46,120.00 986.46,100.00 630.66,100.00" bidi="326225735#1">
        <lane id="-326225735#1_0" index="0" allow="rail_urban" speed="22.22" length="440.94" shape="1002.67,116.21 986.46,100.00 630.66,100.00">
            <param key="origId" value="326225735"/>
        </lane>
    </edge>
    <edge id="-33141915#0" from="10707518655" to="295049177" name="6142" priority="20" type="railway.rail" spreadType="center" length="238.02" bidi="254033615#1">
        <lane id="-33141915#0_0" index="0" allow="rail rail_electric rail_fast" speed="44.44" length="238.02" shape="1614.65,120.00 1766.64,120.00">
            <param key="origId" value="33141915 121902856 254033615"/>
        </lane>
    </edge>
    <edge id="-33142145#0" from="4395254268" to="10707518655" name="6142" priority="20" type="railway.rail" spreadType="center" length="660.60" shape="1222.75,140.00 1593.99,140.00 1613.99,120.00" bidi="33141915#1">
        <lane id="-33142145#0_0" index="0" allow="rail rail_electric rail_fast" speed="44.44" length="660.60" shape="1222.75,140.00 1593.99,140.00 1613.52,120.47">
            <param key="origId" value="33142145 33141915"/>
        </lane>
        <param key="railway:track_ref" value="3"/>
    </edge>
    <edge id="-33142145#1" from="293605247" to="4395254268" name="6142" priority="20" type="railway.rail" spreadType="center" length="73.62" bidi="33142145#1">
        <lane id="-33142145#1_0" index="0" allow="rail rail_electric rail_fast" speed="44.44" length="73.62" shape="1179.98,140.00 1222.75,140.00">
            <param key="origId" value="33142145"/>
        </lane>
        <param key="railway:track_ref" value="3"/>
    </edge>
    <edge id="-334912225#0" from="10707518645" to="4395826741" name="6142" priority="20" type="railway.rail" spreadType="center" length="349.07" bidi="742458418#1">
        <lane id="-334912225#0_0" index="0" allow="rail rail_electric rail_fast" speed="27.78" length="349.07" shape="1394.83,80.00 1136.45,80.00">
            <param key="origId" value="334912225 78766917 742458417 742458418"/>
        </lane>
    </edge>
    <edge id="-334912225#1" from="10707518656" to="10707518645" name="6142" priority="20" type="railway.rail" spreadType="center" length="426.80" bidi="334912225#1">
        <lane id="-334912225#1_0" index="0" allow="rail rail_electric rail_fast" speed="27.78" length="426.80" shape="1590.63,80.00 1394.83,80.00">
            <param key="origId" value="334912225"/>
        </lane>
    </edge>
    <edge id="-334912225#2" from="2598612721" to="10707518656" name="6142" priority="20" type="railway.rail" spreadType="center" length="235.60" bidi="334912225#2">
        <lane id="-334912225#2_0" index="0" allow="rail rail_electric rail_fast" speed="27.78" length="235.60" shape="1748.88,80.00 1590.63,80.00">
            <param key="origId" value="334912225"/>
        </lane>
    </edge>
    <edge id="-347977095" from="428647707" to="3542016595" priority="20" type="railway.rail" spreadType="center" length="190.85" shape="837.62,400.00 817.62,420.00 789.11,420.00" bidi="347977095">
        <lane id="-347977095_0" index="0" allow="rail" speed="44.44" length="190.85" shape="833.83,403.79 817.62,420.00 789.11,420.00">
            <param key="origId" value="347977095"/>
        </lane>
    </edge>
    <edge id="-36853643#0" from="10712435854" to="59143907" name="6007" priority="19" type="railway.light_rail" spreadType="center" length="38.23" bidi="36853643#0">
        <lane id="-36853643#0_0" index="0" allow="rail_urban" speed="27.78" length="38.23" shape="40.60,100.00 20.60,100.00">
            <param key="origId" value="36853643"/>
        </lane>
    </edge>
    <edge id="-36853643#1" from="296021288" to="10712435854" name="6007" priority="19" type="railway.light_rail" spreadType="center" length="298.89" bidi="36853643#1">
        <lane id="-36853643#1_0" index="0" allow="rail_urban" speed="27.78" length="298.89" shape="77.32,100.00 40.60,100.00">
            <param key="origId" value="36853643"/>
        </lane>
    </edge>
    <edge id="-36867992" from="428648323" to="428648322" priority="20" type="railway.rail" spreadType="center" length="35.91" bidi="36867992">
        <lane id="-36867992_0" index="0" allow="rail" speed="44.44" length="35.91" shape="747.98,320.00 754.33,320.00">
            <param key="origId" value="36867992"/>
        </lane>
    </edge>
    <edge id="-392159899#1" from="295049179" to="295049181" name="6142" priority="20" type="railway.rail" spreadType="center" length="38.66" bidi="392159899#1">
        <lane id="-392159899#1_0" index="0" allow="rail rail_electric rail_fast" speed="27.78" length="38.66" shape="1794.16,100.00 1809.84,100.00">
            <param key="origId" value="392159899"/>
        </lane>
    </edge>
    <edge id="-438267819" from="42132803" to="4360022513" name="6520" priority="20" type="railway.rail" spreadType="center" length="103.20" shape="901.42,400.00 912.61,420.00 923.81,420.00" bidi="438267819">
        <lane id="-438267819_0" index="0" allow="rail" speed="22.22" length="103.20" shape="902.75,402.38 912.61,420.00 923.15,420.00">
            <param key="origId" value="438267819"/>
        </lane>
    </edge>
    <edge id="-441932166#3" from="10712435852" to="296021449" name="6007" priority="19" type="railway.light_rail" spreadType="center" length="173.21" bidi="441932166#3">
        <lane id="-441932166#3_0" index="0" allow="rail_urban" speed="22.22" length="173.21" shape="0.00,100.00 -17.84,100.00">
            <param key="origId" value="441932166"/>
        </lane>
    </edge>
    <edge id="-441932166#4" from="59143907" to="10712435852" name="6007" priority="19" type="railway.light_rail" spreadType="center" length="132.93" bidi="441932166#4">
        <lane id="-441932166#4_0" index="0" allow="rail_urban" speed="22.22" length="132.93" shape="20.60,100.00 0.00,100.00">
            <param key="origId" value="441932166"/>
        </lane>
    </edge>
    <edge id="-441932169#2" from="10712634699" to="2990609221" name="6007" priority="19" type="railway.light_rail" spreadType="center" length="247.85" bidi="441932169#2">
        <lane id="-441932169#2_0" index="0" allow="rail_urban" speed="22.22" length="247.85" shape="-60.00,120.00 -42.16,120.00">
            <param key="origId" value="441932169"/>
        </lane>
    </edge>
    <edge id="-441932169#3" from="296020248" to="10712634699" name="6007" priority="19" type="railway.light_rail" spreadType="center" length="16.96" bidi="441932169#3">
        <lane id="-441932169#3_0" index="0" allow="rail_urban" speed="22.22" length="16.96" shape="-76.68,120.00 -60.00,120.00">
            <param key="origId" value="441932169"/>
        </lane>
    </edge>
    <edge id="-441932169#4" from="10713196734" to="296020248" name="6007" priority="19" type="railway.light_rail" spreadType="center" length="394.82" bidi="441932169#4">
        <lane id="-441932169#4_0" index="0" allow="rail_urban" speed="22.22" length="394.82" shape="-94.88,120.00 -76.68,120.00">
            <param key="origId" value="441932169"/>
        </lane>
    </edge>
    <edge id="-46843152" from="293605247" to="1363480434" priority="20" type="railway.rail" spreadType="center" length="61.89" shape="1174.62,140.00 1194.62,160.00 1214.62,160.00" bidi="46843152">
        <lane id="-46843152_0" index="0" allow="rail rail_electric rail_fast" speed="44.44" length="61.89" shape="1178.41,143.79 1194.62,160.00 1211.00,160.00">
            <param key="origId" value="46843152"/>
        </lane>
    </edge>
    <edge id="-742458418#0" from="4395826741" to="374388207" name="6142" priority="20" type="railway.rail" spreadType="center" length="80.66" bidi="742458418#0">
        <lane id="-742458418#0_0" index="0" allow="rail rail_electric rail_fast" speed="27.78" length="80.66" shape="1136.45,80.00 1069.59,80.00">
            <param key="origId" value="742458418"/>
        </lane>
    </edge>
    <edge id="-802024940" from="428760212" to="428759039" name="6007" priority="19" type="railway.light_rail" spreadType="center" length="140.13" bidi="802024940">
        <lane id="-802024940_0" index="0" allow="rail_urban" speed="27.78" length="140.13" shape="1402.40,120.00 1287.61,120.00">
            <param key="origId" value="802024940"/>
        </lane>
        <param key="railway:track_ref" value="2"/>
    </edge>
    <edge id="-8044249" from="4360022513" to="4395205108" name="6520" priority="20" type="railway.rail" spreadType="center" length="3110.07" shape="923.81,420.00 943.81,440.00 1900.42,440.00" bidi="-176623658#0">
        <lane id="-8044249_0" index="0" allow="rail" speed="22.22" length="3110.07" shape="924.28,420.47 943.81,440.00 1900.42,440.00">
            <param key="origId" value="8044249 10414934 5650950 176623658"/>
        </lane>
    </edge>
    <edge id="1015347135" from="9366243678" to="9366243676" priority="20" type="railway.rail" spreadType="center" length="47.08">
        <lane id="1015347135_0" index="0" allow="rail" speed="44.44" length="47.08" shape="745.23,180.00 753.70,180.00">
            <param key="origId" value="1015347135"/>
        </lane>
    </edge>
    <edge id="1119144140" from="10235401871" to="10235401872" priority="20" type="railway.rail" spreadType="center" length="6.06">
        <lane id="1119144140_0" index="0" allow="rail" speed="44.44" length="6.06" shape="484.29,0.00 480.34,0.00">
            <param key="origId" value="1119144140"/>
        </lane>
    </edge>
    <edge id="1119144141#0" from="10235401873" to="10235401874" priority="20" type="railway.rail" spreadType="center" length="526.34">
        <lane id="1119144141#0_0" index="0" allow="rail" speed="44.44" length="526.34" shape="424.97,20.00 273.81,20.00">
            <param key="origId" value="1119144141"/>
        </lane>
    </edge>
    <edge id="1119144141#1" from="10235401874" to="10235401875" priority="20" type="railway.rail" spreadType="center" length="34.01">
        <lane id="1119144141#1_0" index="0" allow="rail" speed="44.44" length="34.01" shape="264.91,20.00 243.14,20.00">
            <param key="origId" value="1119144141"/>
        </lane>
    </edge>
    <edge id="1119144142#0" from="10235401876" to="10235401874" priority="20" type="railway.rail" spreadType="center" length="19.47">
        <lane id="1119144142#0_0" index="0" allow="rail" speed="44.44" length="19.47" shape="256.44,0.00 266.94,16.27">
            <param key="origId" value="1119144142"/>
        </lane>
    </edge>
    <edge id="1119144142#1" from="10235401874" to="10235401877" priority="20" type="railway.rail" spreadType="center" length="19.82">
        <lane id="1119144142#1_0" index="0" allow="rail" speed="44.44" length="19.82" shape="271.79,23.73 282.42,40.00">
            <param key="origId" value="1119144142"/>
        </lane>
    </edge>
    <edge id="1119144143" from="10235401883" to="10235401888" priority="20" type="railway.rail" spreadType="center" length="101.60">
        <lane id="1119144143_0" index="0" allow="rail" speed="44.44" length="101.60" shape="363.31,40.00 302.42,40.00">
            <param key="origId" value="1119144143"/>
        </lane>
    </edge>
    <edge id="1119219103" from="10236046719" to="10236046724" priority="20" type="railway.rail" spreadType="center" length="50.24">
        <lane id="1119219103_0" index="0" allow="rail" speed="44.44" length="50.24" shape="343.31,0.00 303.31,0.00">
            <param key="origId" value="1119219103"/>
        </lane>
    </edge>
    <edge id="1119219107" from="9141310577" to="10236046742" priority="20" type="railway.rail" spreadType="center" length="15.04">
        <lane id="1119219107_0" index="0" allow="rail" speed="44.44" length="15.04" shape="433.68,0.00 423.31,0.00">
            <param key="origId" value="1119219107"/>
        </lane>
    </edge>
    <edge id="1151028913" from="3647682201" to="10707518651" priority="20" type="railway.rail" spreadType="center" length="20.42">
        <lane id="1151028913_0" index="0" allow="rail rail_electric rail_fast" speed="44.44" length="20.42" shape="1528.65,100.00 1546.99,100.00">
            <param key="origId" value="1151028913"/>
        </lane>
    </edge>
    <edge id="1151635682" from="10713196737" to="10713196734" name="6007" priority="19" type="railway.light_rail" spreadType="center" length="83.61">
        <lane id="1151635682_0" index="0" allow="rail_urban" speed="22.22" length="83.61" shape="-113.25,103.79 -100.83,116.21">
            <param key="origId" value="1151635682"/>
        </lane>
    </edge>
    <edge id="121902848#0" from="1363480422" to="295049982" priority="20" type="railway.rail" spreadType="center" length="51.02">
        <lane id="121902848#0_0" index="0" allow="rail rail_electric rail_fast" speed="44.44" length="51.02" shape="1632.57,178.47 1647.25,163.79">
            <param key="origId" value="121902848"/>
        </lane>
    </edge>
    <edge id="121902848#1" from="295049982" to="295049984" priority="20" type="railway.rail" spreadType="center" length="31.93">
        <lane id="121902848#1_0" index="0" allow="rail rail_electric rail_fast" speed="44.44" length="31.93" shape="1653.20,160.00 1668.88,160.00">
            <param key="origId" value="121902848"/>
        </lane>
    </edge>
    <edge id="121902850" from="1363480424" to="1363480430" priority="20" type="railway.rail" spreadType="center" length="379.44">
        <lane id="121902850_0" index="0" allow="rail" speed="44.44" length="379.44" shape="1499.39,260.00 1360.19,260.00">
            <param key="origId" value="121902850"/>
        </lane>
    </edge>
    <edge id="121902851" from="295049177" to="295049984" priority="20" type="railway.rail" spreadType="center" length="143.35" shape="1772.00,120.00 1752.00,140.00 1691.04,140.00 1671.04,160.00">
        <lane id="121902851_0" index="0" allow="rail rail_electric rail_fast" speed="44.44" length="143.35" shape="1768.21,123.79 1752.00,140.00 1691.04,140.00 1674.83,156.21">
            <param key="origId" value="121902851"/>
        </lane>
    </edge>
    <edge id="121902852" from="295049181" to="1363480421" priority="20" type="railway.rail" spreadType="center" length="67.44">
        <lane id="121902852_0" index="0" allow="rail rail_electric rail_fast" speed="44.44" length="67.44" shape="1815.79,96.21 1828.21,83.79">
            <param key="origId" value="121902852"/>
        </lane>
    </edge>
    <edge id="121902853#0" from="1363480438" to="1363480439" priority="19" type="railway.light_rail" spreadType="center" length="41.22">
        <lane id="121902853#0_0" index="0" allow="rail_urban" speed="27.78" length="41.22" shape="1001.10,120.00 974.08,120.00">
            <param key="origId" value="121902853"/>
        </lane>
    </edge>
    <edge id="121902853#1" from="1363480439" to="1363480441" priority="19" type="railway.light_rail" spreadType="center" length="222.12">
        <lane id="121902853#1_0" index="0" allow="rail_urban" speed="27.78" length="222.12" shape="966.56,120.00 772.57,120.00">
            <param key="origId" value="121902853"/>
        </lane>
    </edge>
    <edge id="121902854" from="1363480439" to="1363480442" priority="19" type="railway.light_rail" spreadType="center" length="218.95" shape="971.92,120.00 951.92,140.00 778.06,140.00">
        <lane id="121902854_0" index="0" allow="rail_urban" speed="27.78" length="218.95" shape="968.13,123.79 951.92,140.00 778.06,140.00">
            <param key="origId" value="121902854"/>
        </lane>
    </edge>
    <edge id="121902855#0" from="294077608" to="3542016394" priority="20" type="railway.rail" spreadType="center" length="37.86">
        <lane id="121902855#0_0" index="0" allow="rail" speed="44.44" length="37.86" shape="1463.73,303.79 1449.05,318.47">
            <param key="origId" value="121902855"/>
        </lane>
    </edge>
    <edge id="121902855#1" from="3542016394" to="1363480428" priority="20" type="railway.rail" spreadType="center" length="93.52">
        <lane id="121902855#1_0" index="0" allow="rail" speed="44.44" length="93.52" shape="1443.73,323.79 1427.52,340.00">
            <param key="origId" value="121902855"/>
        </lane>
    </edge>