<?xml version="1.0" encoding="UTF-8"?>

<!-- generated on 2022-10-17 09:00:07 by Eclipse SUMO netedit Version v1_14_1+1773-b11436548cc
-->

<routes xmlns:xsi="http://www.w3.org/2001/XMLSchema-instance" xsi:noNamespaceSchemaLocation="http://sumo.dlr.de/xsd/routes_file.xsd">
    <!-- Vehicles, persons and containers (sorted by depart) -->
    <container id="c_0" depart="0.00">
        <tranship from="gneE2" to="gneE2"/>
        <transport to="gneE5" arrivalPos="2.50" lines="Line1"/>
        <transport to="gneE8" arrivalPos="2.50" lines="Line2"/>
    </container>
</routes>
