<?xml version="1.0" encoding="UTF-8"?>


<additional xmlns:xsi="http://www.w3.org/2001/XMLSchema-instance" xsi:noNamespaceSchemaLocation="http://sumo.dlr.de/xsd/additional_file.xsd">
    <busStop id="busStop_gneE2_1_0" lane="gneE2_1" startPos="27.00" endPos="37.00">
        <access lane="gneE3_0" pos="29.00"/>
        <access lane="gneE1_0" pos="25" length="5" friendlyPos="1"/>
    </busStop>
</additional>
