<?xml version="1.0" encoding="UTF-8"?>

<!-- generated on Thu Aug 27 12:52:13 2020 by Eclipse SUMO sumo Version v1_6_0+1802-e5da78f65f
<configuration xmlns:xsi="http://www.w3.org/2001/XMLSchema-instance" xsi:noNamespaceSchemaLocation="http://sumo.dlr.de/xsd/sumoConfiguration.xsd">

    <input>
        <net-file value="input_net2.net.xml"/>
        <route-files value="input_routes.rou.xml"/>
    </input>

    <report>
        <no-step-log value="true"/>
    </report>

    <traci_server>
        <remote-port value="45825"/>
    </traci_server>

</configuration>
-->

<snapshot xmlns:xsi="http://www.w3.org/2001/XMLSchema-instance" xsi:noNamespaceSchemaLocation="http://sumo.dlr.de/xsd/state_file.xsd" version="v1_6_0+1802-e5da78f65f" time="500.00">
    <route id="r1" state="1" edges="CN NC CS SC CN NC CS SC CN NC CS SC CN NC CS SC CN NC CS SC CN NC CS SC"/>
    <delay number="1" begin="1" end="0" depart="0.00" time="0.00"/>
    <vType id="bus" vClass="bus"/>
    <vehicle id="bus" type="bus" depart="0.00" line="B7" route="r1" speedFactor="1.00" state="0 11 12.10 16000 499000 0 6" pos="91.94" speed="0.00" posLat="0.00">
        <stop lane="NC_0" duration="10.00" until="20.00"/>
        <stop lane="SC_0" duration="8.00" until="80.00"/>
        <stop lane="NC_0" duration="10.00" until="140.00"/>
        <stop lane="SC_0" duration="8.00" until="200.00"/>
        <stop lane="NC_0" duration="10.00" until="260.00"/>
        <stop lane="SC_0" duration="8.00" until="320.00"/>
        <stop lane="NC_0" startPos="91.75" endPos="91.95" duration="10.00" until="380.00"/>
        <stop lane="SC_0" startPos="91.75" endPos="91.95" duration="8.00" until="440.00"/>
        <stop lane="NC_0" startPos="91.75" endPos="91.95" duration="10.00" until="500.00"/>
        <stop lane="SC_0" startPos="91.75" endPos="91.95" duration="8.00" until="560.00"/>
        <stop lane="NC_0" startPos="91.75" endPos="91.95" duration="10.00" until="620.00"/>
        <stop lane="SC_0" startPos="91.75" endPos="91.95" duration="8.00" until="680.00"/>
    </vehicle>
    <lane id="SC_0">
        <vehicles value="bus"/>
    </lane>
</snapshot>
