<?xml version="1.0" encoding="UTF-8"?>

<!-- generated on Tue Feb 19 09:11:00 2019 by Eclipse SUMO netconvert Version v1_1_0+0919-80296dbfce
<configuration xmlns:xsi="http://www.w3.org/2001/XMLSchema-instance" xsi:noNamespaceSchemaLocation="http://sumo.dlr.de/xsd/netconvertConfiguration.xsd">

    <input>
        <node-files value=".\netedit\netElements\edges\contextual_menu\smooth_elevation_edge\input_net.nod.xml"/>
        <edge-files value=".\netedit\netElements\edges\contextual_menu\smooth_elevation_edge\input_net.edg.xml"/>
        <connection-files value=".\netedit\netElements\edges\contextual_menu\smooth_elevation_edge\input_net.con.xml"/>
    </input>

    <output>
        <output-file value=".\netedit\netElements\edges\contextual_menu\smooth_elevation_edge\input_net.net.xml"/>
    </output>

    <report>
        <verbose value="true"/>
    </report>

</configuration>
-->

<net version="1.1" junctionCornerDetail="5" limitTurnSpeed="5.50" xmlns:xsi="http://www.w3.org/2001/XMLSchema-instance" xsi:noNamespaceSchemaLocation="http://sumo.dlr.de/xsd/net_file.xsd">

    <location netOffset="25.00,0.00" convBoundary="0.00,0.00,50.00,20.00" origBoundary="-10000000000.00,-10000000000.00,10000000000.00,10000000000.00" projParameter="!"/>

    <edge id=":gneJ0_0" function="internal">
        <lane id=":gneJ0_0_0" index="0" speed="6.08" length="7.74" shape="-1.60,3.20 -1.30,1.10 -0.40,-0.40 1.10,-1.30 3.20,-1.60"/>
    </edge>
    <edge id=":gneJ0_1" function="internal">
        <lane id=":gneJ0_1_0" index="0" speed="3.90" length="2.58" shape="3.20,1.60 2.50,1.70 2.00,2.00 1.70,2.50 1.60,3.20"/>
    </edge>
    <edge id=":gneJ0_2" function="internal">
        <lane id=":gneJ0_2_0" index="0" speed="3.65" length="2.08" shape="3.20,1.60 2.00,0.80 1.71,0.23"/>
    </edge>
    <edge id=":gneJ0_3" function="internal">
        <lane id=":gneJ0_3_0" index="0" speed="3.65" length="2.59" shape="1.71,0.23 1.60,-0.00 2.00,-0.80 3.20,-1.60"/>
    </edge>
    <edge id=":gneJ0_w0" function="walkingarea">
        <lane id=":gneJ0_w0_0" index="0" allow="pedestrian" speed="1.00" length="4.26" width="3.20" shape="-3.20,3.20 0.00,3.20 -0.00,3.20 3.20,3.20 3.20,3.20 3.20,0.00 3.20,0.00 3.20,-3.20 -3.02,1.24 -2.49,-0.36 -1.60,-1.60 -0.36,-2.49 1.24,-3.02"/>
    </edge>
    <edge id=":gneJ1_0" function="internal">
        <lane id=":gneJ1_0_0" index="0" speed="3.90" length="2.58" shape="48.40,3.20 48.30,2.50 48.00,2.00 47.50,1.70 46.80,1.60"/>
    </edge>
    <edge id=":gneJ1_1" function="internal">
        <lane id=":gneJ1_1_0" index="0" speed="6.08" length="7.74" shape="46.80,-1.60 48.90,-1.30 50.40,-0.40 51.30,1.10 51.60,3.20"/>
    </edge>
    <edge id=":gneJ1_2" function="internal">
        <lane id=":gneJ1_2_0" index="0" speed="3.65" length="2.66" shape="46.80,-1.60 48.00,-0.80 48.40,0.00 48.26,0.29"/>
    </edge>
    <edge id=":gneJ1_3" function="internal">
        <lane id=":gneJ1_3_0" index="0" speed="3.65" length="2.01" shape="48.26,0.29 48.00,0.80 46.80,1.60"/>
    </edge>
    <edge id=":gneJ1_w0" function="walkingarea">
        <lane id=":gneJ1_w0_0" index="0" allow="pedestrian" speed="1.00" length="4.26" width="3.20" shape="46.80,3.20 50.00,3.20 50.00,3.20 53.20,3.20 46.80,-3.20 46.80,0.00 46.80,0.00 46.80,3.20"/>
    </edge>
    <edge id=":gneJ2_0" function="internal">
        <lane id=":gneJ2_0_0" index="0" speed="6.47" length="4.75" shape="1.60,9.55 1.95,12.00 3.01,13.74 3.21,13.86"/>
    </edge>
    <edge id=":gneJ2_1" function="internal">
        <lane id=":gneJ2_1_0" index="0" speed="7.29" length="7.12" shape="1.60,9.55 1.95,13.40 3.02,16.14 3.25,16.35"/>
    </edge>
    <edge id=":gneJ2_2" function="internal">
        <lane id=":gneJ2_2_0" index="0" speed="6.47" length="4.29" shape="3.21,13.86 4.76,14.77 7.23,15.08"/>
    </edge>
    <edge id=":gneJ2_3" function="internal">
        <lane id=":gneJ2_3_0" index="0" speed="7.29" length="4.64" shape="3.25,16.35 4.79,17.77 7.28,18.28"/>
    </edge>
    <edge id=":gneJ2_c0" function="crossing" crossingEdges="gneE2">
        <lane id=":gneJ2_c0_0" index="0" allow="pedestrian" speed="1.00" length="6.40" width="4.00" shape="5.20,13.52 5.30,19.91"/>
    </edge>
    <edge id=":gneJ2_c1" function="crossing" crossingEdges="gneE8 gneE9">
        <lane id=":gneJ2_c1_0" index="0" allow="pedestrian" speed="1.00" length="6.40" width="4.00" shape="-3.20,11.55 3.20,11.55"/>
    </edge>
    <edge id=":gneJ2_w0" function="walkingarea">
        <lane id=":gneJ2_w0_0" index="0" allow="pedestrian" speed="1.00" length="7.17" width="3.20" shape="0.00,9.55 -3.20,9.55 7.30,19.88 7.25,16.68 7.25,16.68 7.20,13.48 3.20,9.55 -0.00,9.55"/>
    </edge>
    <edge id=":gneJ2_w1" function="walkingarea">
        <lane id=":gneJ2_w1_0" index="0" allow="pedestrian" speed="1.00" length="11.93" width="4.00" shape="3.30,19.95 7.30,19.88 -3.20,9.55 -3.20,13.55"/>
    </edge>
    <edge id=":gneJ2_w2" function="walkingarea">
        <lane id=":gneJ2_w2_0" index="0" allow="pedestrian" speed="1.00" length="2.81" width="4.00" shape="3.20,13.55 3.20,9.55 7.20,13.48 3.20,13.55"/>
    </edge>
    <edge id=":gneJ3_0" function="internal">
        <lane id=":gneJ3_0_0" index="0" speed="6.40" length="4.74" shape="42.73,14.84 45.21,14.61 46.98,13.63 47.10,13.44"/>
    </edge>
    <edge id=":gneJ3_1" function="internal">
        <lane id=":gneJ3_1_0" index="0" speed="6.40" length="4.29" shape="47.10,13.44 48.05,11.90 48.40,9.44"/>
    </edge>
    <edge id=":gneJ3_c0" function="crossing" crossingEdges="gneE4 gneE5">
        <lane id=":gneJ3_c0_0" index="0" allow="pedestrian" speed="1.00" length="6.40" width="4.00" shape="46.80,11.44 53.20,11.44"/>
    </edge>
    <edge id=":gneJ3_c1" function="crossing" crossingEdges="gneE2">
        <lane id=":gneJ3_c1_0" index="0" allow="pedestrian" speed="1.00" length="6.40" width="4.00" shape="44.49,19.73 44.80,13.34"/>
    </edge>
    <edge id=":gneJ3_w0" function="walkingarea">
        <lane id=":gneJ3_w0_0" index="0" allow="pedestrian" speed="1.00" length="7.14" width="3.20" shape="50.00,9.44 46.80,9.44 42.80,13.24 42.65,16.44 42.65,16.44 42.49,19.63 53.20,9.44 50.00,9.44"/>
    </edge>
    <edge id=":gneJ3_w1" function="walkingarea">
        <lane id=":gneJ3_w1_0" index="0" allow="pedestrian" speed="1.00" length="12.03" width="4.00" shape="53.20,13.44 53.20,9.44 42.49,19.63 46.49,19.83"/>
    </edge>
    <edge id=":gneJ3_w2" function="walkingarea">
        <lane id=":gneJ3_w2_0" index="0" allow="pedestrian" speed="1.00" length="2.76" width="4.00" shape="46.80,13.44 42.80,13.24 46.80,9.44 46.80,13.44"/>
    </edge>

    <edge id="gneE0" from="gneJ0" to="gneJ1" priority="1">
        <lane id="gneE0_0" index="0" speed="13.89" length="43.60" shape="3.20,-1.60 46.80,-1.60"/>
    </edge>
    <edge id="gneE1" from="gneJ1" to="gneJ0" priority="1">
        <lane id="gneE1_0" index="0" speed="13.89" length="43.60" shape="46.80,1.60 3.20,1.60"/>
    </edge>
    <edge id="gneE2" from="gneJ2" to="gneJ3" priority="1" shape="0.00,20.00 8.65,19.86 13.17,19.79 18.51,19.48 24.02,19.57 30.06,19.39 37.35,19.40 40.16,19.52 50.00,20.00">
        <lane id="gneE2_0" index="0" speed="13.89" length="35.42" shape="7.23,15.08 8.57,15.06 12.99,14.99 18.41,14.68 23.99,14.77 29.99,14.59 37.46,14.60 40.39,14.73 42.73,14.84"/>
        <lane id="gneE2_1" index="1" speed="13.89" length="35.42" shape="7.28,18.28 8.62,18.26 13.11,18.19 18.48,17.88 24.01,17.97 30.04,17.79 37.39,17.80 40.24,17.92 42.57,18.04"/>
    </edge>
    <edge id="gneE4" from="gneJ3" to="gneJ1" priority="1">
        <lane id="gneE4_0" index="0" speed="13.89" length="6.24" shape="48.40,9.44 48.40,3.20"/>
    </edge>
    <edge id="gneE5" from="gneJ1" to="gneJ3" priority="1">
        <lane id="gneE5_0" index="0" speed="13.89" length="6.24" shape="51.60,3.20 51.60,9.44"/>
    </edge>
    <edge id="gneE8" from="gneJ2" to="gneJ0" priority="1">
        <lane id="gneE8_0" index="0" speed="13.89" length="6.35" shape="-1.60,9.55 -1.60,3.20"/>
    </edge>
    <edge id="gneE9" from="gneJ0" to="gneJ2" priority="1">
        <lane id="gneE9_0" index="0" speed="13.89" length="6.35" shape="1.60,3.20 1.60,9.55"/>
    </edge>

    <junction id="gneJ0" type="priority" x="0.00" y="0.00" incLanes="gneE8_0 gneE1_0" intLanes=":gneJ0_0_0 :gneJ0_1_0 :gneJ0_3_0" shape="-3.20,3.20 3.20,3.20 3.20,-3.20 -0.36,-2.49 -1.60,-1.60 -2.49,-0.36 -3.02,1.24">
        <request index="0" response="000" foes="100" cont="0"/>
        <request index="1" response="000" foes="000" cont="0"/>
        <request index="2" response="001" foes="001" cont="1"/>
    </junction>
    <junction id="gneJ1" type="priority" x="50.00" y="0.00" incLanes="gneE4_0 gneE0_0" intLanes=":gneJ1_0_0 :gneJ1_1_0 :gneJ1_3_0" shape="46.80,3.20 53.20,3.20 52.49,-0.36 51.60,-1.60 50.36,-2.49 48.76,-3.02 46.80,-3.20">
        <request index="0" response="000" foes="100" cont="0"/>
        <request index="1" response="000" foes="000" cont="0"/>
        <request index="2" response="001" foes="001" cont="1"/>
    </junction>
    <junction id="gneJ2" type="priority" x="0.00" y="20.00" incLanes="gneE9_0 :gneJ2_w2_0 :gneJ2_w1_0" intLanes=":gneJ2_2_0 :gneJ2_3_0 :gneJ2_c0_0 :gneJ2_c1_0" shape="7.30,19.88 7.20,13.48 4.98,13.07 4.20,12.53 3.64,11.76 3.31,10.77 3.20,9.55 -3.20,9.55 -2.91,12.75 -2.03,15.36 -0.57,17.38 1.47,18.81 4.09,19.64">
        <request index="0" response="0100" foes="1100" cont="1"/>
        <request index="1" response="0100" foes="1100" cont="1"/>
        <request index="2" response="0000" foes="0011" cont="0"/>
        <request index="3" response="0011" foes="0011" cont="0"/>
    </junction>
    <junction id="gneJ3" type="priority" x="50.00" y="20.00" incLanes="gneE5_0 gneE2_0 gneE2_1 :gneJ3_w2_0 :gneJ3_w1_0" intLanes=":gneJ3_1_0 :gneJ3_c0_0 :gneJ3_c1_0" shape="53.20,9.44 46.80,9.44 46.36,11.64 45.80,12.39 45.02,12.91 44.03,13.19 42.80,13.24 42.49,19.63 45.76,19.50 48.44,18.73 50.52,17.35 52.01,15.33 52.90,12.70">
        <request index="0" response="010" foes="110" cont="1"/>
        <request index="1" response="000" foes="001" cont="0"/>
        <request index="2" response="001" foes="001" cont="0"/>
    </junction>

    <junction id=":gneJ0_3_0" type="internal" x="1.71" y="0.23" incLanes=":gneJ0_2_0 gneE8_0" intLanes=":gneJ0_0_0"/>
    <junction id=":gneJ1_3_0" type="internal" x="48.26" y="0.29" incLanes=":gneJ1_2_0 gneE4_0" intLanes=":gneJ1_0_0"/>
    <junction id=":gneJ2_2_0" type="internal" x="3.21" y="13.86" incLanes=":gneJ2_0_0" intLanes=":gneJ2_c0_0 :gneJ2_c1_0"/>
    <junction id=":gneJ2_3_0" type="internal" x="3.25" y="16.35" incLanes=":gneJ2_1_0" intLanes=":gneJ2_c0_0 :gneJ2_c1_0"/>
    <junction id=":gneJ3_1_0" type="internal" x="47.10" y="13.44" incLanes=":gneJ3_0_0" intLanes=":gneJ3_c0_0 :gneJ3_c1_0"/>

    <connection from="gneE0" to="gneE5" fromLane="0" toLane="0" via=":gneJ1_1_0" dir="l" state="M"/>
    <connection from="gneE0" to="gneE1" fromLane="0" toLane="0" via=":gneJ1_2_0" dir="t" state="m"/>
    <connection from="gneE1" to="gneE9" fromLane="0" toLane="0" via=":gneJ0_1_0" dir="r" state="M"/>
    <connection from="gneE1" to="gneE0" fromLane="0" toLane="0" via=":gneJ0_2_0" dir="t" state="m"/>
    <connection from="gneE2" to="gneE4" fromLane="0" toLane="0" via=":gneJ3_0_0" dir="r" state="m"/>
    <connection from="gneE4" to="gneE1" fromLane="0" toLane="0" via=":gneJ1_0_0" dir="r" state="M"/>
    <connection from="gneE8" to="gneE0" fromLane="0" toLane="0" via=":gneJ0_0_0" dir="l" state="M"/>
    <connection from="gneE9" to="gneE2" fromLane="0" toLane="0" via=":gneJ2_0_0" dir="r" state="m"/>
    <connection from="gneE9" to="gneE2" fromLane="0" toLane="1" via=":gneJ2_1_0" dir="r" state="m"/>

    <connection from=":gneJ0_0" to="gneE0" fromLane="0" toLane="0" dir="l" state="M"/>
    <connection from=":gneJ0_1" to="gneE9" fromLane="0" toLane="0" dir="r" state="M"/>
    <connection from=":gneJ0_2" to="gneE0" fromLane="0" toLane="0" via=":gneJ0_3_0" dir="t" state="m"/>
    <connection from=":gneJ0_3" to="gneE0" fromLane="0" toLane="0" dir="t" state="M"/>
    <connection from=":gneJ1_0" to="gneE1" fromLane="0" toLane="0" dir="r" state="M"/>
    <connection from=":gneJ1_1" to="gneE5" fromLane="0" toLane="0" dir="l" state="M"/>
    <connection from=":gneJ1_2" to="gneE1" fromLane="0" toLane="0" via=":gneJ1_3_0" dir="t" state="m"/>
    <connection from=":gneJ1_3" to="gneE1" fromLane="0" toLane="0" dir="t" state="M"/>
    <connection from=":gneJ2_0" to="gneE2" fromLane="0" toLane="0" via=":gneJ2_2_0" dir="r" state="m"/>
    <connection from=":gneJ2_2" to="gneE2" fromLane="0" toLane="0" dir="r" state="M"/>
    <connection from=":gneJ2_1" to="gneE2" fromLane="0" toLane="1" via=":gneJ2_3_0" dir="r" state="m"/>
    <connection from=":gneJ2_3" to="gneE2" fromLane="0" toLane="1" dir="r" state="M"/>
    <connection from=":gneJ3_0" to="gneE4" fromLane="0" toLane="0" via=":gneJ3_1_0" dir="r" state="m"/>
    <connection from=":gneJ3_1" to="gneE4" fromLane="0" toLane="0" dir="r" state="M"/>

    <connection from=":gneJ0_w0" to="gneE9" fromLane="0" toLane="0" dir="s" state="M"/>
    <connection from=":gneJ0_w0" to="gneE0" fromLane="0" toLane="0" dir="s" state="M"/>
    <connection from="gneE8" to=":gneJ0_w0" fromLane="0" toLane="0" dir="s" state="M"/>
    <connection from="gneE1" to=":gneJ0_w0" fromLane="0" toLane="0" dir="s" state="M"/>
    <connection from=":gneJ1_w0" to="gneE5" fromLane="0" toLane="0" dir="s" state="M"/>
    <connection from=":gneJ1_w0" to="gneE1" fromLane="0" toLane="0" dir="s" state="M"/>
    <connection from="gneE4" to=":gneJ1_w0" fromLane="0" toLane="0" dir="s" state="M"/>
    <connection from="gneE0" to=":gneJ1_w0" fromLane="0" toLane="0" dir="s" state="M"/>
    <connection from=":gneJ2_c0" to=":gneJ2_w1" fromLane="0" toLane="0" dir="s" state="M"/>
    <connection from=":gneJ2_c1" to=":gneJ2_w2" fromLane="0" toLane="0" dir="s" state="M"/>
    <connection from=":gneJ2_w0" to="gneE8" fromLane="0" toLane="0" dir="s" state="M"/>
    <connection from=":gneJ2_w0" to="gneE2" fromLane="0" toLane="0" dir="s" state="M"/>
    <connection from="gneE9" to=":gneJ2_w0" fromLane="0" toLane="0" dir="s" state="M"/>
    <connection from=":gneJ2_w1" to=":gneJ2_c1" fromLane="0" toLane="0" dir="s" state="m"/>
    <connection from=":gneJ2_w2" to=":gneJ2_c0" fromLane="0" toLane="0" dir="s" state="m"/>
    <connection from=":gneJ3_c0" to=":gneJ3_w1" fromLane="0" toLane="0" dir="s" state="M"/>
    <connection from=":gneJ3_c1" to=":gneJ3_w2" fromLane="0" toLane="0" dir="s" state="M"/>
    <connection from=":gneJ3_w0" to="gneE4" fromLane="0" toLane="0" dir="s" state="M"/>
    <connection from="gneE2" to=":gneJ3_w0" fromLane="0" toLane="0" dir="s" state="M"/>
    <connection from="gneE5" to=":gneJ3_w0" fromLane="0" toLane="0" dir="s" state="M"/>
    <connection from=":gneJ3_w1" to=":gneJ3_c1" fromLane="0" toLane="0" dir="s" state="m"/>
    <connection from=":gneJ3_w2" to=":gneJ3_c0" fromLane="0" toLane="0" dir="s" state="m"/>
</net>
