<?xml version="1.0" encoding="UTF-8"?>

<types version="1.9" xmlns:xsi="http://www.w3.org/2001/XMLSchema-instance" xsi:noNamespaceSchemaLocation="http://sumo.dlr.de/xsd/types_file.xsd">
    <type id="highway.prt" allow="custom1" width="1.50"/>
</types>
