<?xml version="1.0" encoding="UTF-8"?>

<!-- generated on 2024-06-06 10:15:29 by Eclipse SUMO netedit Version v1_20_0+0411-7e8e9082b48
-->

<additional xmlns:xsi="http://www.w3.org/2001/XMLSchema-instance" xsi:noNamespaceSchemaLocation="http://sumo.dlr.de/xsd/additional_file.xsd">
    <!-- StoppingPlaces -->
    <chargingStation id="cs_0" lane="EdgeCenter1_1" startPos="32.82" endPos="37.82"/>
    <chargingStation id="cs_1" lane="EdgeCenter1_1" startPos="24.36" endPos="29.36"/>
    <chargingStation id="cs_2" lane="EdgeCenter1_1" startPos="30.32" endPos="35.32"/>
</additional>
