<?xml version="1.0" encoding="UTF-8"?>

<!-- generated on 2024-07-17 09:42:37 by Eclipse SUMO netconvert Version v1_20_0+1266-51c9329b08e
This data file and the accompanying materials
are made available under the terms of the Eclipse Public License v2.0
which accompanies this distribution, and is available at
http://www.eclipse.org/legal/epl-v20.html
This file may also be made available under the following Secondary
Licenses when the conditions for such availability set forth in the Eclipse
Public License 2.0 are satisfied: GNU General Public License, version 2
or later which is available at
https://www.gnu.org/licenses/old-licenses/gpl-2.0-standalone.html
SPDX-License-Identifier: EPL-2.0 OR GPL-2.0-or-later
<netconvertConfiguration xmlns:xsi="http://www.w3.org/2001/XMLSchema-instance" xsi:noNamespaceSchemaLocation="http://sumo.dlr.de/xsd/netconvertConfiguration.xsd">

    <input>
        <opendrive-files value="opendrive.xodr"/>
    </input>

    <output>
        <write-license value="true"/>
        <output.original-names value="true"/>
    </output>

    <processing>
        <offset.disable-normalization value="true"/>
    </processing>

    <junctions>
        <no-turnarounds.except-deadend value="true"/>
    </junctions>

    <report>
        <xml-validation value="never"/>
    </report>

</netconvertConfiguration>
-->

<net version="1.20" junctionCornerDetail="5" rectangularLaneCut="true" limitTurnSpeed="5.50" xmlns:xsi="http://www.w3.org/2001/XMLSchema-instance" xsi:noNamespaceSchemaLocation="http://sumo.dlr.de/xsd/net_file.xsd">

    <location netOffset="0.00,0.00" convBoundary="60.28,-2.83,201.10,125.86" origBoundary="60.28,-2.83,201.10,125.86" projParameter="!"/>

    <type id="driving" priority="1" speed="13.89" disallow="pedestrian tram rail_urban rail rail_electric rail_fast ship container cable_car subway aircraft wheelchair scooter drone" width="3.65"/>

    <edge id="-80" from="80.begin" to="80.end" priority="1" type="driving" shape="60.28,-1.43,-10.00 61.88,121.85 62.34,123.38 63.67,124.31 65.87,124.64 199.04,125.86,10.00">
        <lane id="-80_0" index="0" disallow="pedestrian tram rail_urban rail rail_electric rail_fast ship container cable_car subway aircraft wheelchair scooter drone" speed="13.89" length="260.16" width="3.20" shape="61.88,-1.45,-10.00 63.48,121.61 63.71,122.39 64.28,122.79 66.00,123.04 199.05,124.26,10.00" type="driving">
            <param key="origId" value="80_-1"/>
        </lane>
    </edge>
    <edge id="-81" from="81.begin" to="81.end" priority="1" type="driving" shape="100.00,0.00,10.00 100.00,93.05,0.69 100.19,95.18,0.48 100.77,96.91,0.38 101.74,98.26,0.35 103.09,99.23,0.38 104.82,99.81,0.48 106.94,100.00,0.69 200.00,100.00,10.00">
        <lane id="-81_0" index="0" disallow="pedestrian tram rail_urban rail rail_electric rail_fast ship container cable_car subway aircraft wheelchair scooter drone" speed="13.89" length="195.78" width="3.20" shape="101.60,-0.00,10.00 101.60,92.98,0.69 101.77,94.85,0.48 102.21,96.18,0.38 102.88,97.12,0.35 103.82,97.79,0.38 105.15,98.23,0.48 107.02,98.40,0.69 200.00,98.40,10.00" type="driving">
            <param key="origId" value="81_-1"/>
        </lane>
    </edge>
    <edge id="-82" from="82.begin" to="82.end" priority="1" type="driving" shape="139.05,-1.97 139.32,10.05 139.40,11.72 139.55,13.69 139.76,15.84 140.02,18.04 140.31,20.18 140.62,22.14 140.93,23.78 146.43,49.42 146.94,51.28 147.65,52.99 148.56,54.53 149.67,55.92 150.97,57.16 152.47,58.23 154.17,59.15 177.57,70.08 179.09,70.70 180.94,71.31 183.00,71.88 185.14,72.39 187.23,72.79 189.16,73.07 190.80,73.20 200.46,73.45">
        <lane id="-82_0" index="0" disallow="pedestrian tram rail_urban rail rail_electric rail_fast ship container cable_car subway aircraft wheelchair scooter drone" speed="13.89" length="111.71" width="3.20" shape="140.65,-2.01 140.92,10.01 141.00,11.62 141.14,13.55 141.35,15.67 141.61,17.84 141.90,19.95 142.20,21.86 142.50,23.46 147.98,49.04 148.46,50.76 149.09,52.27 149.88,53.62 150.85,54.84 151.99,55.92 153.32,56.87 154.89,57.72 178.24,68.63 179.65,69.20 181.41,69.78 183.40,70.33 185.47,70.82 187.50,71.22 189.34,71.48 190.88,71.60 200.50,71.85" type="driving">
            <param key="origId" value="82_-1"/>
        </lane>
    </edge>
    <edge id="-83" from="83.begin" to="83.end" priority="1" type="driving" shape="176.75,-2.83 165.33,1.26 164.68,1.71 163.99,2.61 163.26,3.97 162.48,5.77 161.67,8.03 160.81,10.74 160.51,12.31 160.34,14.25 160.31,16.21 160.38,17.82 160.56,19.44 160.84,21.36 161.19,23.44 161.57,25.58 161.95,27.66 162.30,29.56 162.60,31.17 162.90,31.90 163.84,33.23 164.95,34.81 166.17,36.53 167.43,38.29 168.68,39.98 169.85,41.50 170.89,42.76 172.14,44.06 173.74,45.56 175.43,46.91 176.97,47.80 178.49,48.40 180.34,49.07 182.38,49.72 184.49,50.28 186.53,50.63 188.38,50.70 189.90,50.39 201.10,45.87">
        <lane id="-83_0" index="0" disallow="pedestrian tram rail_urban rail rail_electric rail_fast ship container cable_car subway aircraft wheelchair scooter drone" speed="13.89" length="86.04" width="3.20" shape="177.29,-1.32 166.07,2.69 165.80,2.88 165.34,3.49 164.70,4.66 163.97,6.36 163.18,8.54 162.36,11.13 162.09,12.53 161.94,14.34 161.91,16.19 161.97,17.69 162.15,19.24 162.42,21.11 162.76,23.17 163.14,25.29 163.52,27.36 163.88,29.27 164.14,30.72 164.31,31.12 165.15,32.31 166.26,33.89 167.47,35.60 168.72,37.35 169.95,39.02 171.10,40.51 172.09,41.69 173.26,42.93 174.78,44.34 176.34,45.58 177.67,46.35 179.05,46.90 180.85,47.55 182.83,48.19 184.83,48.71 186.70,49.04 188.25,49.09 189.44,48.85 200.50,44.39" type="driving">
            <param key="origId" value="83_-1"/>
        </lane>
    </edge>

    <junction id="80.begin" type="dead_end" x="60.28" y="-1.43" z="-10.00" incLanes="" intLanes="" shape="60.28,-1.43,-10.00 63.48,-1.47,-10.00"/>
    <junction id="80.end" type="dead_end" x="199.04" y="125.86" z="10.00" incLanes="-80_0" intLanes="" shape="199.07,122.66,10.00 199.04,125.86,10.00"/>
    <junction id="81.begin" type="dead_end" x="100.00" y="0.00" z="10.00" incLanes="" intLanes="" shape="100.00,0.00,10.00 103.20,-0.00,10.00"/>
    <junction id="81.end" type="dead_end" x="200.00" y="100.00" z="10.00" incLanes="-81_0" intLanes="" shape="200.00,96.80,10.00 200.00,100.00,10.00"/>
    <junction id="82.begin" type="dead_end" x="139.05" y="-1.97" incLanes="" intLanes="" shape="139.05,-1.97 142.25,-2.04"/>
    <junction id="82.end" type="dead_end" x="200.46" y="73.45" incLanes="-82_0" intLanes="" shape="200.54,70.25 200.46,73.45"/>
    <junction id="83.begin" type="dead_end" x="176.75" y="-2.83" incLanes="" intLanes="" shape="176.75,-2.83 177.83,0.18"/>
    <junction id="83.end" type="dead_end" x="201.10" y="45.87" incLanes="-83_0" intLanes="" shape="199.90,42.90 201.10,45.87"/>

</net>
