<?xml version="1.0" encoding="UTF-8"?>

<!-- generated on 2021-09-07 12:27:51 by Eclipse SUMO netconvert Version v1_10_0+0544-e2f47533c3f
This data file and the accompanying materials
are made available under the terms of the Eclipse Public License v2.0
which accompanies this distribution, and is available at
http://www.eclipse.org/legal/epl-v20.html
SPDX-License-Identifier: EPL-2.0
<configuration xmlns:xsi="http://www.w3.org/2001/XMLSchema-instance" xsi:noNamespaceSchemaLocation="http://sumo.dlr.de/xsd/netconvertConfiguration.xsd">

    <input>
        <osm-files value="osm.xml"/>
    </input>

    <output>
        <write-license value="true"/>
        <output-file value="net.net.xml"/>
        <opendrive-output value="foreign.net"/>
        <output.original-names value="true"/>
    </output>

    <projection>
        <proj.utm value="true"/>
        <proj.plain-geo value="true"/>
    </projection>

    <junctions>
        <no-internal-links value="false"/>
        <rectangular-lane-cut value="true"/>
    </junctions>

    <report>
        <verbose value="true"/>
        <xml-validation value="never"/>
        <aggregate-warnings value="5"/>
    </report>

</configuration>
-->

<net version="1.9" junctionCornerDetail="5" rectangularLaneCut="true" limitTurnSpeed="5.50" xmlns:xsi="http://www.w3.org/2001/XMLSchema-instance" xsi:noNamespaceSchemaLocation="http://sumo.dlr.de/xsd/net_file.xsd">

    <location netOffset="-399345.66,-5809365.64" convBoundary="0.00,0.00,1737.68,767.39" origBoundary="13.364829,52.424764,13.574340,52.459643" projParameter="+proj=utm +zone=33 +ellps=WGS84 +datum=WGS84 +units=m +no_defs"/>

    <type id="highway.bridleway" priority="1" numLanes="1" speed="2.78" allow="pedestrian" oneway="1" width="2.00"/>
    <type id="highway.bus_guideway" priority="1" numLanes="1" speed="27.78" allow="bus" oneway="1"/>
    <type id="highway.cycleway" priority="1" numLanes="1" speed="8.33" allow="bicycle" oneway="0" width="1.00"/>
    <type id="highway.footway" priority="1" numLanes="1" speed="2.78" allow="pedestrian" oneway="1" width="2.00"/>
    <type id="highway.ford" priority="1" numLanes="1" speed="2.78" allow="army" oneway="0"/>
    <type id="highway.living_street" priority="2" numLanes="1" speed="2.78" disallow="tram rail_urban rail rail_electric rail_fast ship" oneway="0"/>
    <type id="highway.motorway" priority="14" numLanes="2" speed="39.44" allow="private emergency authority army vip passenger hov taxi bus coach delivery truck trailer motorcycle evehicle custom1 custom2" oneway="1"/>
    <type id="highway.motorway_link" priority="9" numLanes="1" speed="22.22" allow="private emergency authority army vip passenger hov taxi bus coach delivery truck trailer motorcycle evehicle custom1 custom2" oneway="1"/>
    <type id="highway.path" priority="1" numLanes="1" speed="2.78" allow="pedestrian bicycle" oneway="0" width="2.00"/>
    <type id="highway.pedestrian" priority="1" numLanes="1" speed="2.78" allow="pedestrian" oneway="1" width="2.00"/>
    <type id="highway.primary" priority="12" numLanes="2" speed="27.78" disallow="tram rail_urban rail rail_electric rail_fast ship" oneway="0"/>
    <type id="highway.primary_link" priority="7" numLanes="1" speed="22.22" disallow="tram rail_urban rail rail_electric rail_fast ship" oneway="0"/>
    <type id="highway.raceway" priority="15" numLanes="2" speed="83.33" allow="vip" oneway="0"/>
    <type id="highway.residential" priority="3" numLanes="1" speed="13.89" disallow="tram rail_urban rail rail_electric rail_fast ship" oneway="0"/>
    <type id="highway.secondary" priority="11" numLanes="1" speed="27.78" disallow="tram rail_urban rail rail_electric rail_fast ship" oneway="0"/>
    <type id="highway.secondary_link" priority="6" numLanes="1" speed="22.22" disallow="tram rail_urban rail rail_electric rail_fast ship" oneway="0"/>
    <type id="highway.service" priority="1" numLanes="1" speed="5.56" allow="pedestrian delivery bicycle" oneway="0"/>
    <type id="highway.stairs" priority="1" numLanes="1" speed="1.39" allow="pedestrian" oneway="1" width="2.00"/>
    <type id="highway.step" priority="1" numLanes="1" speed="1.39" allow="pedestrian" oneway="1" width="2.00"/>
    <type id="highway.steps" priority="1" numLanes="1" speed="1.39" allow="pedestrian" oneway="1" width="2.00"/>
    <type id="highway.tertiary" priority="10" numLanes="1" speed="22.22" disallow="tram rail_urban rail rail_electric rail_fast ship" oneway="0"/>
    <type id="highway.tertiary_link" priority="5" numLanes="1" speed="22.22" disallow="tram rail_urban rail rail_electric rail_fast ship" oneway="0"/>
    <type id="highway.track" priority="1" numLanes="1" speed="5.56" allow="pedestrian motorcycle moped bicycle" oneway="0"/>
    <type id="highway.trunk" priority="13" numLanes="2" speed="27.78" disallow="pedestrian bicycle tram rail_urban rail rail_electric rail_fast ship" oneway="0"/>
    <type id="highway.trunk_link" priority="8" numLanes="1" speed="22.22" disallow="pedestrian bicycle tram rail_urban rail rail_electric rail_fast ship" oneway="0"/>
    <type id="highway.unclassified" priority="4" numLanes="1" speed="13.89" disallow="tram rail_urban rail rail_electric rail_fast ship" oneway="0"/>
    <type id="highway.unsurfaced" priority="1" numLanes="1" speed="8.33" disallow="tram rail_urban rail rail_electric rail_fast ship" oneway="0"/>
    <type id="railway.highspeed" priority="21" numLanes="1" speed="69.44" allow="rail_fast" oneway="1"/>
    <type id="railway.light_rail" priority="19" numLanes="1" speed="27.78" allow="rail_urban" oneway="1"/>
    <type id="railway.preserved" priority="16" numLanes="1" speed="27.78" allow="rail" oneway="1"/>
    <type id="railway.rail" priority="20" numLanes="1" speed="44.44" allow="rail" oneway="1"/>
    <type id="railway.subway" priority="18" numLanes="1" speed="27.78" allow="rail_urban" oneway="1"/>
    <type id="railway.tram" priority="17" numLanes="1" speed="13.89" allow="tram" oneway="1"/>

    <edge id=":175648134_0" function="internal">
        <lane id=":175648134_0_0" index="0" allow="bicycle" speed="2.04" length="1.46" width="1.00" shape="15.74,168.56 15.34,168.36 15.18,168.13 15.27,167.87 15.61,167.57"/>
    </edge>
    <edge id=":261599791_0" function="internal">
        <lane id=":261599791_0_0" index="0" disallow="tram rail_urban rail rail_electric rail_fast ship" speed="27.78" length="0.24" shape="34.72,181.31 34.51,181.34"/>
        <lane id=":261599791_0_1" index="1" disallow="tram rail_urban rail rail_electric rail_fast ship" speed="27.78" length="0.24" shape="34.32,178.14 34.06,178.17"/>
    </edge>
    <edge id=":261599791_2" function="internal">
        <lane id=":261599791_2_0" index="0" disallow="tram rail_urban rail rail_electric rail_fast ship" speed="27.78" length="0.34" shape="33.15,171.84 33.51,171.79"/>
        <lane id=":261599791_2_1" index="1" disallow="tram rail_urban rail rail_electric rail_fast ship" speed="27.78" length="0.34" shape="33.60,175.01 33.91,174.96"/>
    </edge>
    <edge id=":261636677_0" function="internal">
        <lane id=":261636677_0_0" index="0" disallow="tram rail_urban rail rail_electric rail_fast ship" speed="10.32" length="6.61" shape="1125.26,113.85 1123.36,114.07 1122.10,114.53 1120.97,115.33 1119.46,116.58"/>
    </edge>
    <edge id=":261636677_1" function="internal">
        <lane id=":261636677_1_0" index="0" disallow="tram rail_urban rail rail_electric rail_fast ship" speed="6.31" length="5.05" shape="1125.26,113.85 1122.89,113.69 1121.14,112.88 1120.69,112.28"/>
    </edge>
    <edge id=":261636677_4" function="internal">
        <lane id=":261636677_4_0" index="0" disallow="tram rail_urban rail rail_electric rail_fast ship" speed="6.31" length="3.27" shape="1120.69,112.28 1120.02,111.41 1119.52,109.30"/>
    </edge>
    <edge id=":261636677_2" function="internal">
        <lane id=":261636677_2_0" index="0" disallow="tram rail_urban rail rail_electric rail_fast ship" speed="6.83" length="5.44" shape="1117.45,114.09 1118.44,113.10 1119.11,111.97 1119.47,110.70 1119.52,109.30"/>
    </edge>
    <edge id=":261636677_3" function="internal">
        <lane id=":261636677_3_0" index="0" disallow="tram rail_urban rail rail_electric rail_fast ship" speed="3.65" length="2.34" shape="1117.45,114.09 1118.88,113.96 1119.70,114.33"/>
    </edge>
    <edge id=":261636677_5" function="internal">
        <lane id=":261636677_5_0" index="0" disallow="tram rail_urban rail rail_electric rail_fast ship" speed="3.65" length="2.34" shape="1119.70,114.33 1119.89,115.21 1119.46,116.58"/>
    </edge>
    <edge id=":261636678_0" function="internal">
        <lane id=":261636678_0_0" index="0" disallow="tram rail_urban rail rail_electric rail_fast ship" speed="6.52" length="8.87" shape="1115.95,63.36 1115.42,60.99 1114.27,59.34 1112.50,58.40 1110.09,58.17"/>
    </edge>
    <edge id=":261636678_1" function="internal">
        <lane id=":261636678_1_0" index="0" disallow="tram rail_urban rail rail_electric rail_fast ship" speed="8.08" length="14.35" shape="1115.95,63.36 1115.88,58.15 1116.60,54.36 1118.11,51.99 1120.40,51.04"/>
    </edge>
    <edge id=":261636678_2" function="internal">
        <lane id=":261636678_2_0" index="0" disallow="tram rail_urban rail rail_electric rail_fast ship" speed="27.78" length="10.84" shape="1120.97,57.42 1110.09,58.17"/>
        <lane id=":261636678_2_1" index="1" disallow="tram rail_urban rail rail_electric rail_fast ship" speed="27.78" length="10.84" shape="1120.69,54.23 1109.94,54.98"/>
    </edge>
    <edge id=":261636678_4" function="internal">
        <lane id=":261636678_4_0" index="0" disallow="tram rail_urban rail rail_electric rail_fast ship" speed="3.65" length="2.34" shape="1120.69,54.23 1119.42,53.54 1118.95,52.78"/>
    </edge>
    <edge id=":261636678_8" function="internal">
        <lane id=":261636678_8_0" index="0" disallow="tram rail_urban rail rail_electric rail_fast ship" speed="3.65" length="2.34" shape="1118.95,52.78 1119.28,51.95 1120.40,51.04"/>
    </edge>
    <edge id=":261636678_5" function="internal">
        <lane id=":261636678_5_0" index="0" disallow="tram rail_urban rail rail_electric rail_fast ship" speed="27.78" length="10.58" shape="1109.62,48.58 1120.12,47.86"/>
        <lane id=":261636678_5_1" index="1" disallow="tram rail_urban rail rail_electric rail_fast ship" speed="27.78" length="10.58" shape="1109.78,51.78 1120.40,51.04"/>
    </edge>
    <edge id=":261636678_7" function="internal">
        <lane id=":261636678_7_0" index="0" disallow="tram rail_urban rail rail_electric rail_fast ship" speed="3.65" length="2.34" shape="1109.78,51.78 1111.02,52.52 1111.46,53.30"/>
    </edge>
    <edge id=":261636678_9" function="internal">
        <lane id=":261636678_9_0" index="0" disallow="tram rail_urban rail rail_electric rail_fast ship" speed="3.65" length="2.34" shape="1111.46,53.30 1111.09,54.12 1109.94,54.98"/>
    </edge>
    <edge id=":261647692_0" function="internal">
        <lane id=":261647692_0_0" index="0" disallow="tram rail_urban rail rail_electric rail_fast ship" speed="22.22" length="0.30" shape="491.22,281.38 491.20,281.08"/>
    </edge>
    <edge id=":261647692_1" function="internal">
        <lane id=":261647692_1_0" index="0" disallow="tram rail_urban rail rail_electric rail_fast ship" speed="22.22" length="0.30" shape="494.38,280.80 494.41,281.10"/>
    </edge>
    <edge id=":261647702_0" function="internal">
        <lane id=":261647702_0_0" index="0" disallow="tram rail_urban rail rail_electric rail_fast ship" speed="22.22" length="0.30" shape="481.40,167.68 481.38,167.38"/>
    </edge>
    <edge id=":261647702_1" function="internal">
        <lane id=":261647702_1_0" index="0" disallow="tram rail_urban rail rail_electric rail_fast ship" speed="22.22" length="0.30" shape="484.56,167.11 484.59,167.41"/>
    </edge>
    <edge id=":283018817_0" function="internal">
        <lane id=":283018817_0_0" index="0" disallow="tram rail_urban rail rail_electric rail_fast ship" speed="13.89" length="7.89" shape="611.83,550.52 615.84,543.73"/>
    </edge>
    <edge id=":283018845_0" function="internal">
        <lane id=":283018845_0_0" index="0" disallow="tram rail_urban rail rail_electric rail_fast ship" speed="13.89" length="9.39" shape="373.48,464.49 364.36,462.22"/>
    </edge>
    <edge id=":283018845_1" function="internal">
        <lane id=":283018845_1_0" index="0" disallow="tram rail_urban rail rail_electric rail_fast ship" speed="13.89" length="9.40" shape="365.13,459.11 374.25,461.38"/>
    </edge>
    <edge id=":283018932_0" function="internal">
        <lane id=":283018932_0_0" index="0" disallow="tram rail_urban rail rail_electric rail_fast ship" speed="13.89" length="5.23" shape="414.50,474.68 409.43,473.42"/>
    </edge>
    <edge id=":283018932_1" function="internal">
        <lane id=":283018932_1_0" index="0" disallow="tram rail_urban rail rail_electric rail_fast ship" speed="13.89" length="5.23" shape="410.20,470.31 415.27,471.58"/>
    </edge>
    <edge id=":283018933_0" function="internal">
        <lane id=":283018933_0_0" index="0" disallow="tram rail_urban rail rail_electric rail_fast ship" speed="13.89" length="5.00" shape="539.05,511.27 534.38,509.49"/>
    </edge>
    <edge id=":283018933_1" function="internal">
        <lane id=":283018933_1_0" index="0" disallow="tram rail_urban rail rail_electric rail_fast ship" speed="13.89" length="5.00" shape="535.51,506.50 540.19,508.27"/>
    </edge>
    <edge id=":283719736_0" function="internal">
        <lane id=":283719736_0_0" index="0" disallow="tram rail_urban rail rail_electric rail_fast ship" speed="13.89" length="7.15" shape="1053.85,523.61 1048.36,519.03"/>
    </edge>
    <edge id=":283719736_1" function="internal">
        <lane id=":283719736_1_0" index="0" disallow="tram rail_urban rail rail_electric rail_fast ship" speed="13.89" length="7.15" shape="1050.41,516.57 1055.90,521.16"/>
    </edge>
    <edge id=":283719904_0" function="internal">
        <lane id=":283719904_0_0" index="0" disallow="tram rail_urban rail rail_electric rail_fast ship" speed="13.89" length="3.54" shape="935.65,553.98 933.26,556.58"/>
    </edge>
    <edge id=":283719904_1" function="internal">
        <lane id=":283719904_1_0" index="0" disallow="tram rail_urban rail rail_electric rail_fast ship" speed="13.89" length="3.74" shape="930.72,554.64 933.24,551.87"/>
    </edge>
    <edge id=":283720461_0" function="internal">
        <lane id=":283720461_0_0" index="0" disallow="tram rail_urban rail rail_electric rail_fast ship" speed="13.89" length="5.00" shape="1022.28,497.24 1018.44,494.03"/>
    </edge>
    <edge id=":283720461_1" function="internal">
        <lane id=":283720461_1_0" index="0" disallow="tram rail_urban rail rail_electric rail_fast ship" speed="13.89" length="5.00" shape="1020.50,491.57 1024.34,494.78"/>
    </edge>
    <edge id=":283721348_0" function="internal">
        <lane id=":283721348_0_0" index="0" disallow="tram rail_urban rail rail_electric rail_fast ship" speed="13.89" length="4.65" shape="999.47,485.14 996.30,488.55"/>
    </edge>
    <edge id=":283721348_1" function="internal">
        <lane id=":283721348_1_0" index="0" disallow="tram rail_urban rail rail_electric rail_fast ship" speed="13.89" length="4.65" shape="993.96,486.37 997.13,482.96"/>
    </edge>
    <edge id=":294168098_0" function="internal">
        <lane id=":294168098_0_0" index="0" allow="pedestrian delivery bicycle" speed="5.56" length="6.63" shape="567.15,324.46 565.77,323.43 564.28,322.80 562.70,322.54 561.02,322.68"/>
    </edge>
    <edge id=":294168098_1" function="internal">
        <lane id=":294168098_1_0" index="0" allow="pedestrian delivery bicycle" speed="5.56" length="16.55" shape="567.15,324.46 564.52,321.50 562.13,317.95 559.94,314.24 557.91,310.78"/>
    </edge>
    <edge id=":294168098_2" function="internal">
        <lane id=":294168098_2_0" index="0" allow="pedestrian delivery bicycle" speed="5.56" length="23.59" shape="567.15,324.46 563.89,320.08 563.02,315.11 564.54,309.53 568.45,303.36"/>
    </edge>
    <edge id=":294168098_3" function="internal">
        <lane id=":294168098_3_0" index="0" allow="pedestrian delivery bicycle" speed="3.65" length="4.67" shape="567.15,324.46 566.80,323.06 567.05,322.20 567.89,321.88 569.31,322.10"/>
    </edge>
    <edge id=":294168098_4" function="internal">
        <lane id=":294168098_4_0" index="0" allow="pedestrian delivery bicycle" speed="5.56" length="18.73" shape="570.96,305.34 567.72,310.37 566.36,314.84 566.90,318.75 569.31,322.10"/>
    </edge>
    <edge id=":294168098_5" function="internal">
        <lane id=":294168098_5_0" index="0" allow="pedestrian delivery bicycle" speed="5.56" length="20.36" shape="570.96,305.34 568.79,309.58 566.67,315.13 564.21,320.13 561.02,322.68"/>
    </edge>
    <edge id=":294168098_6" function="internal">
        <lane id=":294168098_6_0" index="0" allow="pedestrian delivery bicycle" speed="5.56" length="16.69" shape="570.96,305.34 566.69,310.07 563.09,312.55 560.16,312.79 557.91,310.78"/>
    </edge>
    <edge id=":294168098_7" function="internal">
        <lane id=":294168098_7_0" index="0" allow="pedestrian delivery bicycle" speed="3.65" length="4.67" shape="570.96,305.34 569.59,305.79 568.71,305.61 568.33,304.80 568.45,303.36"/>
    </edge>
    <edge id=":294168098_8" function="internal">
        <lane id=":294168098_8_0" index="0" allow="pedestrian delivery bicycle" speed="5.56" length="10.49" shape="560.64,309.11 561.67,309.63 563.31,308.84 565.57,306.75 568.45,303.36"/>
    </edge>
    <edge id=":294168098_9" function="internal">
        <lane id=":294168098_9_0" index="0" allow="pedestrian delivery bicycle" speed="5.56" length="15.67" shape="560.64,309.11 562.58,312.46 564.57,315.94 566.77,319.25 569.31,322.10"/>
    </edge>
    <edge id=":294168098_10" function="internal">
        <lane id=":294168098_10_0" index="0" allow="pedestrian delivery bicycle" speed="5.56" length="16.12" shape="560.64,309.11 563.47,314.54 564.48,318.61 563.66,321.33 561.02,322.68"/>
    </edge>
    <edge id=":294168098_11" function="internal">
        <lane id=":294168098_11_0" index="0" allow="pedestrian delivery bicycle" speed="3.65" length="4.67" shape="560.64,309.11 560.59,310.55 560.11,311.31 559.22,311.39 557.91,310.78"/>
    </edge>
    <edge id=":294168710_0" function="internal">
        <lane id=":294168710_0_0" index="0" allow="pedestrian delivery bicycle" speed="5.56" length="6.20" shape="586.69,342.35 582.12,338.16"/>
    </edge>
    <edge id=":294168710_1" function="internal">
        <lane id=":294168710_1_0" index="0" allow="pedestrian delivery bicycle" speed="3.65" length="4.67" shape="586.69,342.35 586.35,340.95 586.59,340.09 587.43,339.77 588.85,339.99"/>
    </edge>
    <edge id=":294168710_2" function="internal">
        <lane id=":294168710_2_0" index="0" allow="pedestrian delivery bicycle" speed="5.56" length="6.20" shape="584.28,335.80 588.85,339.99"/>
    </edge>
    <edge id=":294168710_3" function="internal">
        <lane id=":294168710_3_0" index="0" allow="pedestrian delivery bicycle" speed="3.65" length="4.67" shape="584.28,335.80 584.62,337.20 584.38,338.06 583.54,338.38 582.12,338.16"/>
    </edge>
    <edge id=":294168710_4" function="internal">
        <lane id=":294168710_4_0" index="0" allow="pedestrian delivery bicycle" speed="5.00" length="5.04" shape="582.23,342.54 583.05,341.42 583.31,340.32 583.00,339.23 582.12,338.16"/>
    </edge>
    <edge id=":294168710_5" function="internal">
        <lane id=":294168710_5_0" index="0" allow="pedestrian delivery bicycle" speed="5.56" length="7.76" shape="582.23,342.54 584.32,340.68 586.12,339.64 587.63,339.40 588.85,339.99"/>
    </edge>
    <edge id=":294168972_0" function="internal">
        <lane id=":294168972_0_0" index="0" allow="pedestrian delivery bicycle" speed="5.11" length="5.09" shape="717.41,230.25 716.26,229.52 715.13,229.34 714.03,229.70 712.94,230.61"/>
    </edge>
    <edge id=":294168972_1" function="internal">
        <lane id=":294168972_1_0" index="0" disallow="tram rail_urban rail rail_electric rail_fast ship" speed="13.89" length="9.40" shape="717.41,230.25 710.32,224.08"/>
    </edge>
    <edge id=":294168972_2" function="internal">
        <lane id=":294168972_2_0" index="0" disallow="tram rail_urban rail rail_electric rail_fast ship" speed="13.89" length="9.40" shape="712.42,221.67 719.51,227.84"/>
    </edge>
    <edge id=":294168972_3" function="internal">
        <lane id=":294168972_3_0" index="0" allow="pedestrian delivery bicycle" speed="6.84" length="5.14" shape="712.42,221.67 714.27,223.80 714.97,226.01"/>
    </edge>
    <edge id=":294168972_7" function="internal">
        <lane id=":294168972_7_0" index="0" allow="pedestrian delivery bicycle" speed="6.84" length="5.14" shape="714.97,226.01 714.52,228.28 712.94,230.61"/>
    </edge>
    <edge id=":294168972_4" function="internal">
        <lane id=":294168972_4_0" index="0" allow="pedestrian delivery bicycle" speed="5.02" length="5.03" shape="710.57,228.46 711.35,227.31 711.56,226.20 711.22,225.12 710.32,224.08"/>
    </edge>
    <edge id=":294168972_5" function="internal">
        <lane id=":294168972_5_0" index="0" allow="pedestrian delivery bicycle" speed="6.92" length="10.17" shape="710.57,228.46 712.73,226.66 714.94,225.96 717.20,226.35 719.51,227.84"/>
    </edge>
    <edge id=":294168972_6" function="internal">
        <lane id=":294168972_6_0" index="0" allow="pedestrian delivery bicycle" speed="3.65" length="4.67" shape="710.57,228.46 711.97,228.11 712.83,228.35 713.15,229.19 712.94,230.61"/>
    </edge>
    <edge id=":294169338_0" function="internal">
        <lane id=":294169338_0_0" index="0" allow="pedestrian delivery bicycle" speed="5.56" length="7.55" shape="557.81,310.61 556.47,308.98 555.12,308.30 553.50,307.93 551.35,307.22"/>
    </edge>
    <edge id=":294169338_1" function="internal">
        <lane id=":294169338_1_0" index="0" allow="pedestrian delivery bicycle" speed="5.56" length="9.19" shape="557.81,310.61 556.61,308.24 556.24,306.42 556.21,304.49 556.06,301.75"/>
    </edge>
    <edge id=":294169338_2" function="internal">
        <lane id=":294169338_2_0" index="0" allow="pedestrian delivery bicycle" speed="3.65" length="4.67" shape="557.81,310.61 557.86,309.17 558.34,308.41 559.23,308.34 560.54,308.94"/>
    </edge>
    <edge id=":294169338_3" function="internal">
        <lane id=":294169338_3_0" index="0" allow="pedestrian delivery bicycle" speed="5.56" length="7.79" shape="559.25,301.40 559.34,303.73 559.30,305.38 559.55,306.92 560.54,308.94"/>
    </edge>
    <edge id=":294169338_4" function="internal">
        <lane id=":294169338_4_0" index="0" allow="pedestrian delivery bicycle" speed="5.56" length="13.34" shape="559.25,301.40 559.15,305.40 557.80,307.71 555.20,308.31 551.35,307.22"/>
    </edge>
    <edge id=":294169338_5" function="internal">
        <lane id=":294169338_5_0" index="0" allow="pedestrian delivery bicycle" speed="3.65" length="4.67" shape="559.25,301.40 558.58,302.68 557.83,303.17 556.99,302.86 556.06,301.75"/>
    </edge>
    <edge id=":294169338_6" function="internal">
        <lane id=":294169338_6_0" index="0" allow="pedestrian delivery bicycle" speed="4.68" length="5.81" shape="552.62,304.29 554.30,304.76 555.43,304.50 556.02,303.49 556.06,301.75"/>
    </edge>
    <edge id=":294169338_7" function="internal">
        <lane id=":294169338_7_0" index="0" allow="pedestrian delivery bicycle" speed="5.56" length="9.48" shape="552.62,304.29 555.30,305.23 557.26,305.83 558.88,306.82 560.54,308.94"/>
    </edge>
    <edge id=":294169338_8" function="internal">
        <lane id=":294169338_8_0" index="0" allow="pedestrian delivery bicycle" speed="3.65" length="4.67" shape="552.62,304.29 553.41,305.50 553.46,306.39 552.77,306.97 551.35,307.22"/>
    </edge>
    <edge id=":294169339_0" function="internal">
        <lane id=":294169339_0_0" index="0" allow="pedestrian delivery bicycle" speed="5.56" length="7.11" shape="546.79,305.25 544.84,304.49 543.42,304.21 541.96,304.26 539.86,304.50"/>
    </edge>
    <edge id=":294169339_1" function="internal">
        <lane id=":294169339_1_0" index="0" allow="pedestrian delivery bicycle" speed="5.56" length="9.01" shape="546.79,305.25 545.00,304.14 543.66,302.55 542.77,300.48 542.32,297.94"/>
    </edge>
    <edge id=":294169339_2" function="internal">
        <lane id=":294169339_2_0" index="0" allow="pedestrian delivery bicycle" speed="3.65" length="4.67" shape="546.79,305.25 546.00,304.04 545.95,303.14 546.64,302.57 548.06,302.31"/>
    </edge>
    <edge id=":294169339_3" function="internal">
        <lane id=":294169339_3_0" index="0" allow="pedestrian delivery bicycle" speed="5.56" length="5.54" shape="545.51,297.70 545.78,299.35 546.29,300.67 547.05,301.65 548.06,302.31"/>
    </edge>
    <edge id=":294169339_4" function="internal">
        <lane id=":294169339_4_0" index="0" allow="pedestrian delivery bicycle" speed="5.56" length="10.02" shape="545.51,297.70 545.34,300.43 544.34,302.47 542.51,303.83 539.86,304.50"/>
    </edge>
    <edge id=":294169339_5" function="internal">
        <lane id=":294169339_5_0" index="0" allow="pedestrian delivery bicycle" speed="3.65" length="4.67" shape="545.51,297.70 544.81,298.95 544.04,299.41 543.21,299.08 542.32,297.94"/>
    </edge>
    <edge id=":294169339_6" function="internal">
        <lane id=":294169339_6_0" index="0" allow="pedestrian delivery bicycle" speed="5.07" length="4.97" shape="539.52,301.31 540.84,300.98 541.74,300.31 542.24,299.30 542.32,297.94"/>
    </edge>
    <edge id=":294169339_7" function="internal">
        <lane id=":294169339_7_0" index="0" allow="pedestrian delivery bicycle" speed="5.56" length="8.77" shape="539.52,301.31 542.10,301.04 543.91,301.00 545.66,301.37 548.06,302.31"/>
    </edge>
    <edge id=":294169339_8" function="internal">
        <lane id=":294169339_8_0" index="0" allow="pedestrian delivery bicycle" speed="3.65" length="4.67" shape="539.52,301.31 540.80,301.98 541.28,302.74 540.97,303.57 539.86,304.50"/>
    </edge>
    <edge id=":294169342_0" function="internal">
        <lane id=":294169342_0_0" index="0" disallow="tram rail_urban rail rail_electric rail_fast ship" speed="22.22" length="9.08" shape="493.86,312.01 493.08,302.96"/>
    </edge>
    <edge id=":294169342_1" function="internal">
        <lane id=":294169342_1_0" index="0" allow="pedestrian delivery bicycle" speed="6.82" length="4.84" shape="493.86,312.01 494.03,309.39 495.05,307.43"/>
    </edge>
    <edge id=":294169342_7" function="internal">
        <lane id=":294169342_7_0" index="0" allow="pedestrian delivery bicycle" speed="6.82" length="5.07" shape="495.05,307.43 496.92,306.13 499.65,305.48"/>
    </edge>
    <edge id=":294169342_2" function="internal">
        <lane id=":294169342_2_0" index="0" allow="pedestrian delivery bicycle" speed="4.98" length="4.80" shape="499.96,308.67 498.60,308.98 497.66,309.59 497.14,310.51 497.05,311.73"/>
    </edge>
    <edge id=":294169342_3" function="internal">
        <lane id=":294169342_3_0" index="0" allow="pedestrian delivery bicycle" speed="6.85" length="10.23" shape="499.96,308.67 497.16,308.55 495.08,307.56 493.72,305.69 493.08,302.96"/>
    </edge>
    <edge id=":294169342_4" function="internal">
        <lane id=":294169342_4_0" index="0" allow="pedestrian delivery bicycle" speed="3.65" length="4.67" shape="499.96,308.67 498.69,307.99 498.21,307.24 498.53,306.40 499.65,305.48"/>
    </edge>
    <edge id=":294169342_5" function="internal">
        <lane id=":294169342_5_0" index="0" allow="pedestrian delivery bicycle" speed="5.03" length="5.02" shape="496.27,302.68 496.58,304.03 497.25,304.94 498.27,305.43 499.65,305.48"/>
    </edge>
    <edge id=":294169342_6" function="internal">
        <lane id=":294169342_6_0" index="0" disallow="tram rail_urban rail rail_electric rail_fast ship" speed="22.22" length="9.08" shape="496.27,302.68 497.05,311.73"/>
    </edge>
    <edge id=":294169618_0" function="internal">
        <lane id=":294169618_0_0" index="0" allow="pedestrian delivery bicycle" speed="3.65" length="4.67" shape="539.59,150.66 540.26,149.38 541.01,148.90 541.85,149.21 542.77,150.31"/>
    </edge>
    <edge id=":294829385_0" function="internal">
        <lane id=":294829385_0_0" index="0" disallow="tram rail_urban rail rail_electric rail_fast ship" speed="13.89" length="9.40" shape="861.34,486.59 854.24,480.43"/>
    </edge>
    <edge id=":294829385_1" function="internal">
        <lane id=":294829385_1_0" index="0" allow="pedestrian delivery bicycle" speed="6.89" length="5.06" shape="861.34,486.59 859.53,484.50 858.83,482.31"/>
    </edge>
    <edge id=":294829385_7" function="internal">
        <lane id=":294829385_7_0" index="0" allow="pedestrian delivery bicycle" speed="6.89" length="5.10" shape="858.83,482.31 859.22,480.04 860.71,477.68"/>
    </edge>
    <edge id=":294829385_2" function="internal">
        <lane id=":294829385_2_0" index="0" allow="pedestrian delivery bicycle" speed="5.08" length="5.04" shape="863.15,479.74 862.40,480.92 862.20,482.05 862.55,483.14 863.44,484.17"/>
    </edge>
    <edge id=":294829385_3" function="internal">
        <lane id=":294829385_3_0" index="0" allow="pedestrian delivery bicycle" speed="6.85" length="10.22" shape="863.15,479.74 861.05,481.61 858.87,482.34 856.60,481.95 854.24,480.43"/>
    </edge>
    <edge id=":294829385_4" function="internal">
        <lane id=":294829385_4_0" index="0" allow="pedestrian delivery bicycle" speed="3.65" length="4.67" shape="863.15,479.74 861.76,480.14 860.90,479.93 860.54,479.11 860.71,477.68"/>
    </edge>
    <edge id=":294829385_5" function="internal">
        <lane id=":294829385_5_0" index="0" allow="pedestrian delivery bicycle" speed="5.03" length="5.01" shape="856.34,478.01 857.49,478.76 858.61,478.95 859.68,478.59 860.71,477.68"/>
    </edge>
    <edge id=":294829385_6" function="internal">