<?xml version="1.0" encoding="UTF-8"?>

<!-- generated on Thu May 17 09:15:50 2018 by Eclipse SUMO netgenerate Version 356585a
This data file and the accompanying materials
are made available under the terms of the Eclipse Public License v2.0
which accompanies this distribution, and is available at
http://www.eclipse.org/legal/epl-v20.html
SPDX-License-Identifier: EPL-2.0
<configuration xmlns:xsi="http://www.w3.org/2001/XMLSchema-instance" xsi:noNamespaceSchemaLocation="http://sumo.dlr.de/xsd/netgenerateConfiguration.xsd">

    <spider_network>
        <spider value="true"/>
        <spider.arm-number value="5"/>
        <spider.circle-number value="2"/>
        <spider.space-radius value="100"/>
    </spider_network>

    <output>
        <write-license value="true"/>
        <prefix value="foo_"/>
        <output-file value="net.net.xml"/>
    </output>

    <processing>
        <no-internal-links value="true"/>
    </processing>

    <report>
        <xml-validation value="never"/>
    </report>

</configuration>
-->

<net version="0.27" xmlns:xsi="http://www.w3.org/2001/XMLSchema-instance" xsi:noNamespaceSchemaLocation="http://sumo.dlr.de/xsd/net_file.xsd">

    <location netOffset="161.80,190.21" convBoundary="0.00,0.00,361.80,380.42" origBoundary="-161.80,-190.21,200.00,190.21" projParameter="!"/>

    <edge id="A1foo_B1" from="A1" to="foo_B1" priority="-1">
        <lane id="A1foo_B1_0" index="0" speed="13.90" length="100.00" shape="167.71,188.61 254.02,188.61"/>
    </edge>
    <edge id="A1foo_B2" from="A1" to="foo_B2" priority="-1">
        <lane id="A1foo_B2_0" index="0" speed="13.90" length="100.00" shape="165.15,195.33 191.82,277.42"/>
    </edge>
    <edge id="A1foo_B3" from="A1" to="foo_B3" priority="-1">
        <lane id="A1foo_B3_0" index="0" speed="13.90" length="100.00" shape="157.97,194.98 88.14,245.71"/>
    </edge>
    <edge id="A1foo_B4" from="A1" to="foo_B4" priority="-1">
        <lane id="A1foo_B4_0" index="0" speed="13.90" length="100.00" shape="156.09,188.04 86.26,137.30"/>
    </edge>
    <edge id="A1foo_B5" from="A1" to="foo_B5" priority="-1">
        <lane id="A1foo_B5_0" index="0" speed="13.90" length="100.00" shape="162.11,184.10 188.78,102.01"/>
    </edge>
    <edge id="foo_B1A1" from="foo_B1" to="A1" priority="-1">
        <lane id="foo_B1A1_0" index="0" speed="13.90" length="100.00" shape="254.02,191.81 167.71,191.81"/>
    </edge>
    <edge id="foo_B1foo_B2" from="foo_B1" to="foo_B2" priority="-1">
        <lane id="foo_B1foo_B2_0" index="0" speed="13.90" length="117.56" shape="258.52,197.45 198.57,279.96"/>
    </edge>
    <edge id="foo_B1foo_B5" from="foo_B1" to="foo_B5" priority="-1">
        <lane id="foo_B1foo_B5_0" index="0" speed="13.90" length="117.56" shape="255.94,184.86 195.98,102.34"/>
    </edge>
    <edge id="foo_B1foo_C1" from="foo_B1" to="foo_C1" priority="-1">
        <lane id="foo_B1foo_C1_0" index="0" speed="13.90" length="94.36" shape="264.93,188.61 354.02,188.61"/>
    </edge>
    <edge id="foo_B2A1" from="foo_B2" to="A1" priority="-1">
        <lane id="foo_B2A1_0" index="0" speed="13.90" length="100.00" shape="188.78,278.41 162.11,196.32"/>
    </edge>
    <edge id="foo_B2foo_B1" from="foo_B2" to="foo_B1" priority="-1">
        <lane id="foo_B2foo_B1_0" index="0" speed="13.90" length="117.56" shape="195.98,278.08 255.94,195.57"/>
    </edge>
    <edge id="foo_B2foo_B3" from="foo_B2" to="foo_B3" priority="-1">
        <lane id="foo_B2foo_B3_0" index="0" speed="13.90" length="117.56" shape="184.81,284.43 87.81,252.92"/>
    </edge>
    <edge id="foo_B2foo_C2" from="foo_B2" to="foo_C2" priority="-1">
        <lane id="foo_B2foo_C2_0" index="0" speed="13.90" length="94.36" shape="195.19,287.80 222.72,372.53"/>
    </edge>
    <edge id="foo_B3A1" from="foo_B3" to="A1" priority="-1">
        <lane id="foo_B3A1_0" index="0" speed="13.90" length="100.00" shape="86.26,243.12 156.09,192.39"/>
    </edge>
    <edge id="foo_B3foo_B2" from="foo_B3" to="foo_B2" priority="-1">
        <lane id="foo_B3foo_B2_0" index="0" speed="13.90" length="117.56" shape="88.80,249.87 185.80,281.39"/>
    </edge>
    <edge id="foo_B3foo_B4" from="foo_B3" to="foo_B4" priority="-1">
        <lane id="foo_B3foo_B4_0" index="0" speed="13.90" length="117.56" shape="79.30,241.21 79.30,139.21"/>
    </edge>
    <edge id="foo_B3foo_C3" from="foo_B3" to="foo_C3" priority="-1">
        <lane id="foo_B3foo_C3_0" index="0" speed="13.90" length="94.36" shape="79.31,252.12 7.23,304.49"/>
    </edge>
    <edge id="foo_B4A1" from="foo_B4" to="A1" priority="-1">
        <lane id="foo_B4A1_0" index="0" speed="13.90" length="100.00" shape="88.14,134.71 157.97,185.45"/>
    </edge>
    <edge id="foo_B4foo_B3" from="foo_B4" to="foo_B3" priority="-1">
        <lane id="foo_B4foo_B3_0" index="0" speed="13.90" length="117.56" shape="82.50,139.21 82.50,241.21"/>
    </edge>
    <edge id="foo_B4foo_B5" from="foo_B4" to="foo_B5" priority="-1">
        <lane id="foo_B4foo_B5_0" index="0" speed="13.90" length="117.56" shape="87.81,127.51 184.81,95.99"/>
    </edge>
    <edge id="foo_B4foo_C4" from="foo_B4" to="foo_C4" priority="-1">
        <lane id="foo_B4foo_C4_0" index="0" speed="13.90" length="94.36" shape="77.43,130.89 5.35,78.52"/>
    </edge>
    <edge id="foo_B5A1" from="foo_B5" to="A1" priority="-1">
        <lane id="foo_B5A1_0" index="0" speed="13.90" length="100.00" shape="191.82,103.00 165.15,185.09"/>
    </edge>
    <edge id="foo_B5foo_B1" from="foo_B5" to="foo_B1" priority="-1">
        <lane id="foo_B5foo_B1_0" index="0" speed="13.90" length="117.56" shape="198.57,100.46 258.52,182.98"/>
    </edge>
    <edge id="foo_B5foo_B4" from="foo_B5" to="foo_B4" priority="-1">
        <lane id="foo_B5foo_B4_0" index="0" speed="13.90" length="117.56" shape="185.80,99.03 88.80,130.55"/>
    </edge>
    <edge id="foo_B5foo_C5" from="foo_B5" to="foo_C5" priority="-1">
        <lane id="foo_B5foo_C5_0" index="0" speed="13.90" length="94.36" shape="192.15,91.63 219.68,6.91"/>
    </edge>
    <edge id="foo_C1foo_B1" from="foo_C1" to="foo_B1" priority="-1">
        <lane id="foo_C1foo_B1_0" index="0" speed="13.90" length="94.36" shape="354.02,191.81 264.93,191.81"/>
    </edge>
    <edge id="foo_C1foo_C2" from="foo_C1" to="foo_C2" priority="-1">
        <lane id="foo_C1foo_C2_0" index="0" speed="13.90" length="232.32" shape="358.52,197.45 229.47,375.07"/>
    </edge>
    <edge id="foo_C1foo_C5" from="foo_C1" to="foo_C5" priority="-1">
        <lane id="foo_C1foo_C5_0" index="0" speed="13.90" length="232.32" shape="355.94,184.86 226.89,7.23"/>
    </edge>
    <edge id="foo_C2foo_B2" from="foo_C2" to="foo_B2" priority="-1">
        <lane id="foo_C2foo_B2_0" index="0" speed="13.90" length="94.36" shape="219.68,373.52 192.15,288.79"/>
    </edge>
    <edge id="foo_C2foo_C1" from="foo_C2" to="foo_C1" priority="-1">
        <lane id="foo_C2foo_C1_0" index="0" speed="13.90" length="232.32" shape="226.89,373.19 355.94,195.57"/>
    </edge>
    <edge id="foo_C2foo_C3" from="foo_C2" to="foo_C3" priority="-1">
        <lane id="foo_C2foo_C3_0" index="0" speed="13.90" length="232.32" shape="215.71,379.54 6.91,311.69"/>
    </edge>
    <edge id="foo_C3foo_B3" from="foo_C3" to="foo_B3" priority="-1">
        <lane id="foo_C3foo_B3_0" index="0" speed="13.90" length="94.36" shape="5.35,301.90 77.43,249.54"/>
    </edge>
    <edge id="foo_C3foo_C2" from="foo_C3" to="foo_C2" priority="-1">
        <lane id="foo_C3foo_C2_0" index="0" speed="13.90" length="232.32" shape="7.89,308.65 216.70,376.50"/>
    </edge>
    <edge id="foo_C3foo_C4" from="foo_C3" to="foo_C4" priority="-1">
        <lane id="foo_C3foo_C4_0" index="0" speed="13.90" length="232.32" shape="-1.60,299.99 -1.60,80.43"/>
    </edge>
    <edge id="foo_C4foo_B4" from="foo_C4" to="foo_B4" priority="-1">
        <lane id="foo_C4foo_B4_0" index="0" speed="13.90" length="94.36" shape="7.23,75.93 79.31,128.30"/>
    </edge>
    <edge id="foo_C4foo_C3" from="foo_C4" to="foo_C3" priority="-1">
        <lane id="foo_C4foo_C3_0" index="0" speed="13.90" length="232.32" shape="1.60,80.43 1.60,299.99"/>
    </edge>
    <edge id="foo_C4foo_C5" from="foo_C4" to="foo_C5" priority="-1">
        <lane id="foo_C4foo_C5_0" index="0" speed="13.90" length="232.32" shape="6.91,68.73 215.71,0.88"/>
    </edge>
    <edge id="foo_C5foo_B5" from="foo_C5" to="foo_B5" priority="-1">
        <lane id="foo_C5foo_B5_0" index="0" speed="13.90" length="94.36" shape="222.72,7.89 195.19,92.62"/>
    </edge>
    <edge id="foo_C5foo_C1" from="foo_C5" to="foo_C1" priority="-1">
        <lane id="foo_C5foo_C1_0" index="0" speed="13.90" length="232.32" shape="229.47,5.35 358.52,182.98"/>
    </edge>
    <edge id="foo_C5foo_C4" from="foo_C5" to="foo_C4" priority="-1">
        <lane id="foo_C5foo_C4_0" index="0" speed="13.90" length="232.32" shape="216.70,3.93 7.89,71.77"/>
    </edge>

    <junction id="A1" type="unregulated" x="161.80" y="190.21" incLanes="foo_B2A1_0 foo_B1A1_0 foo_B5A1_0 foo_B4A1_0 foo_B3A1_0" intLanes="" shape="160.58,196.82 166.67,194.84 167.71,193.41 167.71,187.01 166.67,185.58 160.58,183.61 158.91,184.15 155.15,189.33 155.15,191.09 158.91,196.27"/>
    <junction id="foo_B1" type="priority" x="261.80" y="190.21" incLanes="foo_C1foo_B1_0 foo_B5foo_B1_0 A1foo_B1_0 foo_B2foo_B1_0" intLanes="" shape="264.93,193.41 264.93,187.01 259.82,182.04 254.64,185.80 254.02,187.01 254.02,193.41 254.64,194.62 259.82,198.39">
        <request index="0"  response="0000000000000000" foes="1000010000100000"/>
        <request index="1"  response="0000000000000000" foes="0111110001100000"/>
        <request index="2"  response="0000001100000000" foes="0110001111100000"/>
        <request index="3"  response="0100001000010000" foes="0100001000010000"/>
        <request index="4"  response="0000001000000000" foes="0100001000001000"/>
        <request index="5"  response="0000011000000111" foes="1100011000000111"/>
        <request index="6"  response="0011011000000110" foes="0011111000000110"/>
        <request index="7"  response="0010000100000100" foes="0010000100000100"/>
        <request index="8"  response="0000000000000000" foes="0010000010000100"/>
        <request index="9"  response="0000000000000000" foes="0110000001111100"/>
        <request index="10" response="0000000000000011" foes="1110000001100011"/>
        <request index="11" response="0001000001000010" foes="0001000001000010"/>
        <request index="12" response="0000000000000010" foes="0000100001000010"/>
        <request index="13" response="0000011100000110" foes="0000011111000110"/>
        <request index="14" response="0000011000110110" foes="0000011000111110"/>
        <request index="15" response="0000010000100001" foes="0000010000100001"/>
    </junction>
    <junction id="foo_B2" type="priority" x="192.71" y="285.32" incLanes="foo_C2foo_B2_0 foo_B1foo_B2_0 A1foo_B2_0 foo_B3foo_B2_0" intLanes="" shape="190.63,289.28 196.72,287.31 199.87,280.90 194.69,277.14 193.34,276.93 187.26,278.91 186.29,279.87 184.32,285.96">
        <request index="0"  response="0000000000000000" foes="1000010000100000"/>
        <request index="1"  response="0000000000000000" foes="0111110001100000"/>
        <request index="2"  response="0000001100000000" foes="0110001111100000"/>
        <request index="3"  response="0100001000010000" foes="0100001000010000"/>
        <request index="4"  response="0000001000000000" foes="0100001000001000"/>
        <request index="5"  response="0000011000000111" foes="1100011000000111"/>
        <request index="6"  response="0011011000000110" foes="0011111000000110"/>
        <request index="7"  response="0010000100000100" foes="0010000100000100"/>
        <request index="8"  response="0000000000000000" foes="0010000010000100"/>
        <request index="9"  response="0000000000000000" foes="0110000001111100"/>
        <request index="10" response="0000000000000011" foes="1110000001100011"/>
        <request index="11" response="0001000001000010" foes="0001000001000010"/>
        <request index="12" response="0000000000000010" foes="0000100001000010"/>
        <request index="13" response="0000011100000110" foes="0000011111000110"/>
        <request index="14" response="0000011000110110" foes="0000011000111110"/>
        <request index="15" response="0000010000100001" foes="0000010000100001"/>
    </junction>
    <junction id="foo_B3" type="priority" x="80.90" y="248.99" incLanes="foo_B2foo_B3_0 A1foo_B3_0 foo_B4foo_B3_0 foo_C3foo_B3_0" intLanes="" shape="87.31,254.44 89.29,248.35 89.08,247.01 85.32,241.83 84.10,241.21 77.70,241.21 76.49,248.24 80.25,253.42">
        <request index="0"  response="0000000000100000" foes="1000010000100000"/>
        <request index="1"  response="0111000001100000" foes="0111110001100000"/>
        <request index="2"  response="0110001101100000" foes="0110001111100000"/>
        <request index="3"  response="0100001000010000" foes="0100001000010000"/>
        <request index="4"  response="0000000000000000" foes="0100001000001000"/>
        <request index="5"  response="0000000000000000" foes="1100011000000111"/>
        <request index="6"  response="0011000000000000" foes="0011111000000110"/>
        <request index="7"  response="0010000100000100" foes="0010000100000100"/>
        <request index="8"  response="0010000000000000" foes="0010000010000100"/>
        <request index="9"  response="0110000001110000" foes="0110000001111100"/>
        <request index="10" response="0110000001100011" foes="1110000001100011"/>
        <request index="11" response="0001000001000010" foes="0001000001000010"/>
        <request index="12" response="0000000000000000" foes="0000100001000010"/>
        <request index="13" response="0000000000000000" foes="0000011111000110"/>
        <request index="14" response="0000000000110000" foes="0000011000111110"/>
        <request index="15" response="0000010000100001" foes="0000010000100001"/>
    </junction>
    <junction id="foo_B4" type="priority" x="80.90" y="131.43" incLanes="foo_B3foo_B4_0 A1foo_B4_0 foo_B5foo_B4_0 foo_C4foo_B4_0" intLanes="" shape="77.70,139.21 84.10,139.21 85.32,138.59 89.08,133.42 89.29,132.07 87.31,125.99 80.25,127.00 76.49,132.18">
        <request index="0"  response="0000000000100000" foes="1000010000100000"/>
        <request index="1"  response="0111000001100000" foes="0111110001100000"/>
        <request index="2"  response="0110001101100000" foes="0110001111100000"/>
        <request index="3"  response="0100001000010000" foes="0100001000010000"/>
        <request index="4"  response="0000000000000000" foes="0100001000001000"/>
        <request index="5"  response="0000000000000000" foes="1100011000000111"/>
        <request index="6"  response="0011000000000000" foes="0011111000000110"/>
        <request index="7"  response="0010000100000100" foes="0010000100000100"/>
        <request index="8"  response="0010000000000000" foes="0010000010000100"/>
        <request index="9"  response="0110000001110000" foes="0110000001111100"/>
        <request index="10" response="0110000001100011" foes="1110000001100011"/>
        <request index="11" response="0001000001000010" foes="0001000001000010"/>
        <request index="12" response="0000000000000000" foes="0000100001000010"/>
        <request index="13" response="0000000000000000" foes="0000011111000110"/>
        <request index="14" response="0000000000110000" foes="0000011000111110"/>
        <request index="15" response="0000010000100001" foes="0000010000100001"/>
    </junction>
    <junction id="foo_B5" type="priority" x="192.71" y="95.11" incLanes="foo_B1foo_B5_0 foo_C5foo_B5_0 foo_B4foo_B5_0 A1foo_B5_0" intLanes="" shape="194.69,103.28 199.87,99.52 196.72,93.12 190.63,91.14 184.32,94.47 186.29,100.55 187.26,101.52 193.34,103.49">
        <request index="0"  response="0000000000100000" foes="1000010000100000"/>
        <request index="1"  response="0111000001100000" foes="0111110001100000"/>
        <request index="2"  response="0110001101100000" foes="0110001111100000"/>
        <request index="3"  response="0100001000010000" foes="0100001000010000"/>
        <request index="4"  response="0000000000000000" foes="0100001000001000"/>
        <request index="5"  response="0000000000000000" foes="1100011000000111"/>
        <request index="6"  response="0011000000000000" foes="0011111000000110"/>
        <request index="7"  response="0010000100000100" foes="0010000100000100"/>
        <request index="8"  response="0010000000000000" foes="0010000010000100"/>
        <request index="9"  response="0110000001110000" foes="0110000001111100"/>
        <request index="10" response="0110000001100011" foes="1110000001100011"/>
        <request index="11" response="0001000001000010" foes="0001000001000010"/>
        <request index="12" response="0000000000000000" foes="0000100001000010"/>
        <request index="13" response="0000000000000000" foes="0000011111000110"/>
        <request index="14" response="0000000000110000" foes="0000011000111110"/>
        <request index="15" response="0000010000100001" foes="0000010000100001"/>
    </junction>
    <junction id="foo_C1" type="priority" x="361.80" y="190.21" incLanes="foo_C5foo_C1_0 foo_B1foo_C1_0 foo_C2foo_C1_0" intLanes="" shape="359.82,182.04 354.64,185.80 354.02,187.01 354.02,193.41 354.64,194.62 359.82,198.39">
        <request index="0" response="000000000" foes="100010000"/>
        <request index="1" response="011000000" foes="011110000"/>
        <request index="2" response="010001000" foes="010001000"/>
        <request index="3" response="010000000" foes="010000100"/>
        <request index="4" response="010000011" foes="110000011"/>
        <request index="5" response="001000010" foes="001000010"/>
        <request index="6" response="000000000" foes="000100010"/>
        <request index="7" response="000000000" foes="000011110"/>
        <request index="8" response="000010001" foes="000010001"/>
    </junction>
    <junction id="foo_C2" type="priority" x="223.61" y="380.42" incLanes="foo_C1foo_C2_0 foo_B2foo_C2_0 foo_C3foo_C2_0" intLanes="" shape="230.77,376.01 225.59,372.25 224.25,372.03 218.16,374.01 217.20,374.97 215.22,381.06">
        <request index="0" response="000000000" foes="100010000"/>
        <request index="1" response="011000000" foes="011110000"/>
        <request index="2" response="010001000" foes="010001000"/>
        <request index="3" response="010000000" foes="010000100"/>
        <request index="4" response="010000011" foes="110000011"/>
        <request index="5" response="001000010" foes="001000010"/>
        <request index="6" response="000000000" foes="000100010"/>
        <request index="7" response="000000000" foes="000011110"/>
        <request index="8" response="000010001" foes="000010001"/>
    </junction>
    <junction id="foo_C3" type="priority" x="0.00" y="307.77" incLanes="foo_C2foo_C3_0 foo_B3foo_C3_0 foo_C4foo_C3_0" intLanes="" shape="6.41,313.22 8.39,307.13 8.18,305.78 4.41,300.61 3.20,299.99 -3.20,299.99">
        <request index="0" response="000000000" foes="100010000"/>
        <request index="1" response="011000000" foes="011110000"/>
        <request index="2" response="010001000" foes="010001000"/>
        <request index="3" response="010000000" foes="010000100"/>
        <request index="4" response="010000011" foes="110000011"/>
        <request index="5" response="001000010" foes="001000010"/>
        <request index="6" response="000000000" foes="000100010"/>
        <request index="7" response="000000000" foes="000011110"/>
        <request index="8" response="000010001" foes="000010001"/>
    </junction>
    <junction id="foo_C4" type="priority" x="0.00" y="72.65" incLanes="foo_C3foo_C4_0 foo_B4foo_C4_0 foo_C5foo_C4_0" intLanes="" shape="-3.20,80.43 3.20,80.43 4.41,79.82 8.18,74.64 8.39,73.29 6.41,67.21">
        <request index="0" response="000000000" foes="100010000"/>
        <request index="1" response="011000000" foes="011110000"/>
        <request index="2" response="010001000" foes="010001000"/>
        <request index="3" response="010000000" foes="010000100"/>
        <request index="4" response="010000011" foes="110000011"/>
        <request index="5" response="001000010" foes="001000010"/>
        <request index="6" response="000000000" foes="000100010"/>
        <request index="7" response="000000000" foes="000011110"/>
        <request index="8" response="000010001" foes="000010001"/>
    </junction>
    <junction id="foo_C5" type="priority" x="223.61" y="0.00" incLanes="foo_C1foo_C5_0 foo_C4foo_C5_0 foo_B5foo_C5_0" intLanes="" shape="225.59,8.18 230.77,4.41 215.22,-0.64 217.20,5.45 218.16,6.41 224.25,8.39">
        <request index="0" response="000000000" foes="100010000"/>
        <request index="1" response="000000000" foes="011110000"/>
        <request index="2" response="010001000" foes="010001000"/>
        <request index="3" response="000000000" foes="010000100"/>
        <request index="4" response="000000011" foes="110000011"/>
        <request index="5" response="001000010" foes="001000010"/>
        <request index="6" response="000000010" foes="000100010"/>
        <request index="7" response="000011010" foes="000011110"/>
        <request index="8" response="000010001" foes="000010001"/>
    </junction>

    <connection from="A1foo_B1" to="foo_B1foo_B5" fromLane="0" toLane="0" dir="r" state="M"/>
    <connection from="A1foo_B1" to="foo_B1foo_C1" fromLane="0" toLane="0" dir="s" state="M"/>
    <connection from="A1foo_B1" to="foo_B1foo_B2" fromLane="0" toLane="0" dir="l" state="m"/>
    <connection from="A1foo_B1" to="foo_B1A1" fromLane="0" toLane="0" dir="t" state="m"/>
    <connection from="A1foo_B2" to="foo_B2foo_B1" fromLane="0" toLane="0" dir="r" state="M"/>
    <connection from="A1foo_B2" to="foo_B2foo_C2" fromLane="0" toLane="0" dir="s" state="M"/>
    <connection from="A1foo_B2" to="foo_B2foo_B3" fromLane="0" toLane="0" dir="l" state="m"/>
    <connection from="A1foo_B2" to="foo_B2A1" fromLane="0" toLane="0" dir="t" state="m"/>
    <connection from="A1foo_B3" to="foo_B3foo_B2" fromLane="0" toLane="0" dir="r" state="M"/>
    <connection from="A1foo_B3" to="foo_B3foo_C3" fromLane="0" toLane="0" dir="s" state="M"/>
    <connection from="A1foo_B3" to="foo_B3foo_B4" fromLane="0" toLane="0" dir="l" state="m"/>
    <connection from="A1foo_B3" to="foo_B3A1" fromLane="0" toLane="0" dir="t" state="m"/>
    <connection from="A1foo_B4" to="foo_B4foo_B3" fromLane="0" toLane="0" dir="r" state="M"/>
    <connection from="A1foo_B4" to="foo_B4foo_C4" fromLane="0" toLane="0" dir="s" state="M"/>
    <connection from="A1foo_B4" to="foo_B4foo_B5" fromLane="0" toLane="0" dir="l" state="m"/>
    <connection from="A1foo_B4" to="foo_B4A1" fromLane="0" toLane="0" dir="t" state="m"/>
    <connection from="A1foo_B5" to="foo_B5foo_B4" fromLane="0" toLane="0" dir="r" state="M"/>
    <connection from="A1foo_B5" to="foo_B5foo_C5" fromLane="0" toLane="0" dir="s" state="M"/>
    <connection from="A1foo_B5" to="foo_B5foo_B1" fromLane="0" toLane="0" dir="l" state="m"/>
    <connection from="A1foo_B5" to="foo_B5A1" fromLane="0" toLane="0" dir="t" state="m"/>
    <connection from="foo_B1A1" to="A1foo_B2" fromLane="0" toLane="0" dir="r" state="M"/>
    <connection from="foo_B1A1" to="A1foo_B3" fromLane="0" toLane="0" dir="s" state="M"/>
    <connection from="foo_B1A1" to="A1foo_B4" fromLane="0" toLane="0" dir="s" state="M"/>
    <connection from="foo_B1A1" to="A1foo_B5" fromLane="0" toLane="0" dir="l" state="M"/>
    <connection from="foo_B1A1" to="A1foo_B1" fromLane="0" toLane="0" dir="t" state="M"/>
    <connection from="foo_B1foo_B2" to="foo_B2foo_C2" fromLane="0" toLane="0" dir="r" state="m"/>
    <connection from="foo_B1foo_B2" to="foo_B2foo_B3" fromLane="0" toLane="0" dir="L" state="m"/>
    <connection from="foo_B1foo_B2" to="foo_B2A1" fromLane="0" toLane="0" dir="l" state="m"/>
    <connection from="foo_B1foo_B2" to="foo_B2foo_B1" fromLane="0" toLane="0" dir="t" state="m"/>
    <connection from="foo_B1foo_B5" to="foo_B5A1" fromLane="0" toLane="0" dir="r" state="m"/>
    <connection from="foo_B1foo_B5" to="foo_B5foo_B4" fromLane="0" toLane="0" dir="R" state="m"/>
    <connection from="foo_B1foo_B5" to="foo_B5foo_C5" fromLane="0" toLane="0" dir="l" state="m"/>
    <connection from="foo_B1foo_B5" to="foo_B5foo_B1" fromLane="0" toLane="0" dir="t" state="m"/>
    <connection from="foo_B1foo_C1" to="foo_C1foo_C5" fromLane="0" toLane="0" dir="r" state="m"/>
    <connection from="foo_B1foo_C1" to="foo_C1foo_C2" fromLane="0" toLane="0" dir="l" state="m"/>
    <connection from="foo_B1foo_C1" to="foo_C1foo_B1" fromLane="0" toLane="0" dir="t" state="m"/>
    <connection from="foo_B2A1" to="A1foo_B3" fromLane="0" toLane="0" dir="r" state="M"/>
    <connection from="foo_B2A1" to="A1foo_B4" fromLane="0" toLane="0" dir="s" state="M"/>
    <connection from="foo_B2A1" to="A1foo_B5" fromLane="0" toLane="0" dir="s" state="M"/>
    <connection from="foo_B2A1" to="A1foo_B1" fromLane="0" toLane="0" dir="l" state="M"/>
    <connection from="foo_B2A1" to="A1foo_B2" fromLane="0" toLane="0" dir="t" state="M"/>
    <connection from="foo_B2foo_B1" to="foo_B1A1" fromLane="0" toLane="0" dir="r" state="m"/>
    <connection from="foo_B2foo_B1" to="foo_B1foo_B5" fromLane="0" toLane="0" dir="R" state="m"/>
    <connection from="foo_B2foo_B1" to="foo_B1foo_C1" fromLane="0" toLane="0" dir="l" state="m"/>
    <connection from="foo_B2foo_B1" to="foo_B1foo_B2" fromLane="0" toLane="0" dir="t" state="m"/>
    <connection from="foo_B2foo_B3" to="foo_B3foo_C3" fromLane="0" toLane="0" dir="r" state="m"/>
    <connection from="foo_B2foo_B3" to="foo_B3foo_B4" fromLane="0" toLane="0" dir="L" state="m"/>
    <connection from="foo_B2foo_B3" to="foo_B3A1" fromLane="0" toLane="0" dir="l" state="m"/>
    <connection from="foo_B2foo_B3" to="foo_B3foo_B2" fromLane="0" toLane="0" dir="t" state="m"/>
    <connection from="foo_B2foo_C2" to="foo_C2foo_C1" fromLane="0" toLane="0" dir="r" state="m"/>
    <connection from="foo_B2foo_C2" to="foo_C2foo_C3" fromLane="0" toLane="0" dir="l" state="m"/>
    <connection from="foo_B2foo_C2" to="foo_C2foo_B2" fromLane="0" toLane="0" dir="t" state="m"/>
    <connection from="foo_B3A1" to="A1foo_B4" fromLane="0" toLane="0" dir="r" state="M"/>
    <connection from="foo_B3A1" to="A1foo_B5" fromLane="0" toLane="0" dir="s" state="M"/>
    <connection from="foo_B3A1" to="A1foo_B1" fromLane="0" toLane="0" dir="L" state="M"/>
    <connection from="foo_B3A1" to="A1foo_B2" fromLane="0" toLane="0" dir="l" state="M"/>
    <connection from="foo_B3A1" to="A1foo_B3" fromLane="0" toLane="0" dir="t" state="M"/>
    <connection from="foo_B3foo_B2" to="foo_B2A1" fromLane="0" toLane="0" dir="r" state="m"/>
    <connection from="foo_B3foo_B2" to="foo_B2foo_B1" fromLane="0" toLane="0" dir="R" state="m"/>
    <connection from="foo_B3foo_B2" to="foo_B2foo_C2" fromLane="0" toLane="0" dir="l" state="m"/>
    <connection from="foo_B3foo_B2" to="foo_B2foo_B3" fromLane="0" toLane="0" dir="t" state="m"/>
    <connection from="foo_B3foo_B4" to="foo_B4foo_C4" fromLane="0" toLane="0" dir="r" state="m"/>
    <connection from="foo_B3foo_B4" to="foo_B4foo_B5" fromLane="0" toLane="0" dir="L" state="m"/>
    <connection from="foo_B3foo_B4" to="foo_B4A1" fromLane="0" toLane="0" dir="l" state="m"/>
    <connection from="foo_B3foo_B4" to="foo_B4foo_B3" fromLane="0" toLane="0" dir="t" state="m"/>
    <connection from="foo_B3foo_C3" to="foo_C3foo_C2" fromLane="0" toLane="0" dir="r" state="m"/>
    <connection from="foo_B3foo_C3" to="foo_C3foo_C4" fromLane="0" toLane="0" dir="l" state="m"/>
    <connection from="foo_B3foo_C3" to="foo_C3foo_B3" fromLane="0" toLane="0" dir="t" state="m"/>
    <connection from="foo_B4A1" to="A1foo_B5" fromLane="0" toLane="0" dir="r" state="M"/>
    <connection from="foo_B4A1" to="A1foo_B1" fromLane="0" toLane="0" dir="s" state="M"/>
    <connection from="foo_B4A1" to="A1foo_B2" fromLane="0" toLane="0" dir="s" state="M"/>
    <connection from="foo_B4A1" to="A1foo_B3" fromLane="0" toLane="0" dir="l" state="M"/>
    <connection from="foo_B4A1" to="A1foo_B4" fromLane="0" toLane="0" dir="t" state="M"/>
    <connection from="foo_B4foo_B3" to="foo_B3A1" fromLane="0" toLane="0" dir="r" state="m"/>
    <connection from="foo_B4foo_B3" to="foo_B3foo_B2" fromLane="0" toLane="0" dir="R" state="m"/>
    <connection from="foo_B4foo_B3" to="foo_B3foo_C3" fromLane="0" toLane="0" dir="l" state="m"/>
    <connection from="foo_B4foo_B3" to="foo_B3foo_B4" fromLane="0" toLane="0" dir="t" state="m"/>
    <connection from="foo_B4foo_B5" to="foo_B5foo_C5" fromLane="0" toLane="0" dir="r" state="m"/>
    <connection from="foo_B4foo_B5" to="foo_B5foo_B1" fromLane="0" toLane="0" dir="L" state="m"/>
    <connection from="foo_B4foo_B5" to="foo_B5A1" fromLane="0" toLane="0" dir="l" state="m"/>
    <connection from="foo_B4foo_B5" to="foo_B5foo_B4" fromLane="0" toLane="0" dir="t" state="m"/>
    <connection from="foo_B4foo_C4" to="foo_C4foo_C3" fromLane="0" toLane="0" dir="r" state="m"/>
    <connection from="foo_B4foo_C4" to="foo_C4foo_C5" fromLane="0" toLane="0" dir="l" state="m"/>
    <connection from="foo_B4foo_C4" to="foo_C4foo_B4" fromLane="0" toLane="0" dir="t" state="m"/>
    <connection from="foo_B5A1" to="A1foo_B1" fromLane="0" toLane="0" dir="r" state="M"/>
    <connection from="foo_B5A1" to="A1foo_B2" fromLane="0" toLane="0" dir="s" state="M"/>
    <connection from="foo_B5A1" to="A1foo_B3" fromLane="0" toLane="0" dir="s" state="M"/>
    <connection from="foo_B5A1" to="A1foo_B4" fromLane="0" toLane="0" dir="l" state="M"/>
    <connection from="foo_B5A1" to="A1foo_B5" fromLane="0" toLane="0" dir="t" state="M"/>
    <connection from="foo_B5foo_B1" to="foo_B1foo_C1" fromLane="0" toLane="0" dir="r" state="m"/>
    <connection from="foo_B5foo_B1" to="foo_B1foo_B2" fromLane="0" toLane="0" dir="L" state="m"/>
    <connection from="foo_B5foo_B1" to="foo_B1A1" fromLane="0" toLane="0" dir="l" state="m"/>