<?xml version="1.0"?>

<!-- generated on 10/20/09 08:24:37 by SUMO sumo Version dev-SVN-r7871
<configuration>

    <input>
        <net-file value="net.net.xml"/>
        <additional-files value="input_routes.rou.xml,input_additional.add.xml,input_additional2.add.xml"/>
    </input>

    <time>
        <begin value="0"/>
        <end value="1000"/>
    </time>

    <processing>
        <time-to-teleport value="-1"/>
    </processing>

    <report>
        <no-duration-log value="true"/>
        <no-step-log value="true"/>
    </report>

</configuration>
-->

<netstats>
   <interval begin="600" end="660" id="dump_60">
      <edge id="3/1to2/1" traveltime="1000000.00" sampledSeconds="1200.00" density="51.22" occupancy="38.41" noStops="1200" speed="0.00" entered="0" emitted="0" left="0" flow="0.00"/>
   </interval>
</netstats>
