<?xml version="1.0" encoding="UTF-8"?>

<!-- generated on Mon Dec 12 07:54:08 2016 by SUMO Version dev-SVN-r22256
<?xml version="1.0" encoding="UTF-8"?>

<configuration xmlns:xsi="http://www.w3.org/2001/XMLSchema-instance" xsi:noNamespaceSchemaLocation="http://sumo.dlr.de/xsd/sumoConfiguration.xsd">

    <input>
        <net-file value="net.net.xml"/>
        <route-files value="input_routes.rou.xml"/>
    </input>

    <output>
        <save-state.times value="2"/>
        <save-state.files value="state.xml"/>
    </output>

    <report>
        <xml-validation value="never"/>
        <no-step-log value="true"/>
    </report>

</configuration>
-->

<snapshot version="dev-SVN-r22256" time="2.00">
    <route id="!0" state="0" edges="1si"/>
    <delay number="1" begin="1" end="0" depart="0.00" time="0.00"/>
    <vType id="DEFAULT_PEDTYPE" vClass="pedestrian"/>
    <vType id="DEFAULT_VEHTYPE"/>
    <vType id="idm" length="5.00" minGap="2.00">
        <carFollowing-IDM accel="0.50" decel="3.00" tau="1.00" delta="1.00"/>
    </vType>
    <vehicle id="0" type="idm" depart="0.00" route="!0" state="0 0" pos="5.60" speed="0.50" posLat="0.00"/>
    <lane id="1fi_0">
        <vehicles value=""/>
    </lane>
    <lane id="1o_0">
        <vehicles value=""/>
    </lane>
    <lane id="1si_0">
        <vehicles value="0"/>
    </lane>
    <lane id="1si_1">
        <vehicles value=""/>
    </lane>
    <lane id="1si_2">
        <vehicles value=""/>
    </lane>
    <lane id="2fi_0">
        <vehicles value=""/>
    </lane>
    <lane id="2o_0">
        <vehicles value=""/>
    </lane>
    <lane id="2si_0">
        <vehicles value=""/>
    </lane>
    <lane id="2si_1">
        <vehicles value=""/>
    </lane>
    <lane id="2si_2">
        <vehicles value=""/>
    </lane>
    <lane id="3fi_0">
        <vehicles value=""/>
    </lane>
    <lane id="3o_0">
        <vehicles value=""/>
    </lane>
    <lane id="3si_0">
        <vehicles value=""/>
    </lane>
    <lane id="3si_1">
        <vehicles value=""/>
    </lane>
    <lane id="3si_2">
        <vehicles value=""/>
    </lane>
    <lane id="4fi_0">
        <vehicles value=""/>
    </lane>
    <lane id="4o_0">
        <vehicles value=""/>
    </lane>
    <lane id="4si_0">
        <vehicles value=""/>
    </lane>
    <lane id="4si_1">
        <vehicles value=""/>
    </lane>
    <lane id="4si_2">
        <vehicles value=""/>
    </lane>
</snapshot>
