<?xml version="1.0" encoding="UTF-8"?>

<!-- generated on Thu Apr 12 00:04:46 2018 by SUMO netconvert Version c8481b0
This data file and the accompanying materials
are made available under the terms of the Eclipse Public License v2.0
which accompanies this distribution, and is available at
http://www.eclipse.org/legal/epl-v20.html
SPDX-License-Identifier: EPL-2.0
<configuration xmlns:xsi="http://www.w3.org/2001/XMLSchema-instance" xsi:noNamespaceSchemaLocation="http://sumo.dlr.de/xsd/netconvertConfiguration.xsd">

    <input>
        <node-files value="input_nodes.nod.xml"/>
        <edge-files value="input_edges.edg.xml"/>
    </input>

    <output>
        <write-license value="true"/>
        <output-file value="net.net.xml"/>
    </output>

    <report>
        <xml-validation value="never"/>
    </report>

</configuration>
-->

<net version="0.27" xmlns:xsi="http://www.w3.org/2001/XMLSchema-instance" xsi:noNamespaceSchemaLocation="http://sumo.dlr.de/xsd/net_file.xsd">

    <location netOffset="-51303.08,-53830.21" convBoundary="0.00,0.00,224.35,423.85" origBoundary="51303.08,53830.21,51527.43,54254.06" projParameter="!"/>

    <edge id=":6365_0" function="internal">
        <lane id=":6365_0_0" index="0" speed="13.90" length="5.59" shape="152.01,251.40 150.41,251.93 149.23,252.69 148.49,253.68 148.17,254.90"/>
    </edge>
    <edge id=":6365_1" function="internal">
        <lane id=":6365_1_0" index="0" speed="13.90" length="7.63" shape="152.01,251.40 149.02,251.60 146.98,250.65 145.89,248.53"/>
    </edge>
    <edge id=":6365_8" function="internal">
        <lane id=":6365_8_0" index="0" speed="13.90" length="3.28" shape="145.89,248.53 145.75,245.26"/>
    </edge>
    <edge id=":6365_2" function="internal">
        <lane id=":6365_2_0" index="0" speed="13.90" length="9.40" shape="148.93,245.53 148.17,254.90"/>
    </edge>
    <edge id=":6365_3" function="internal">
        <lane id=":6365_3_0" index="0" speed="13.90" length="2.34" shape="148.93,245.53 148.03,246.66 147.20,246.99"/>
    </edge>
    <edge id=":6365_9" function="internal">
        <lane id=":6365_9_0" index="0" speed="13.90" length="2.34" shape="147.20,246.99 146.44,246.52 145.75,245.26"/>
    </edge>
    <edge id=":6365_4" function="internal">
        <lane id=":6365_4_0" index="0" speed="13.90" length="5.30" shape="142.08,247.70 143.57,247.93 144.68,247.60 145.41,246.71 145.75,245.26"/>
    </edge>
    <edge id=":6365_5" function="internal">
        <lane id=":6365_5_0" index="0" speed="13.90" length="7.37" shape="142.08,247.70 144.89,248.88 146.85,250.48 147.71,252.05"/>
    </edge>
    <edge id=":6365_10" function="internal">
        <lane id=":6365_10_0" index="0" speed="13.90" length="2.92" shape="147.71,252.05 147.94,252.48 148.17,254.90"/>
    </edge>
    <edge id=":6365_6" function="internal">
        <lane id=":6365_6_0" index="0" speed="13.90" length="9.44" shape="144.98,254.66 145.75,245.26"/>
    </edge>
    <edge id=":6365_7" function="internal">
        <lane id=":6365_7_0" index="0" speed="13.90" length="2.34" shape="144.98,254.66 145.87,253.52 146.70,253.18"/>
    </edge>
    <edge id=":6365_11" function="internal">
        <lane id=":6365_11_0" index="0" speed="13.90" length="2.34" shape="146.70,253.18 147.47,253.64 148.17,254.90"/>
    </edge>
    <edge id=":6454_0" function="internal">
        <lane id=":6454_0_0" index="0" speed="13.90" length="4.67" shape="157.43,109.12 158.33,108.00 159.16,107.67 159.92,108.13 160.61,109.40"/>
    </edge>
    <edge id=":6562_0" function="internal">
        <lane id=":6562_0_0" index="0" speed="13.90" length="4.67" shape="135.61,423.97 134.72,425.11 133.89,425.45 133.12,424.99 132.41,423.73"/>
    </edge>

    <edge id="-1570" from="6366" to="6365" priority="-1" spreadType="center" shape="1.75,1.30 2.23,7.92 121.83,241.60 142.08,247.70">
        <lane id="-1570_0" index="0" speed="13.90" length="291.72" shape="1.65,-0.12 2.23,7.92 121.83,241.60 142.08,247.70"/>
    </edge>
    <edge id="-1839" from="6454" to="6365" priority="-1">
        <lane id="-1839_0" index="0" speed="13.90" length="136.63" shape="160.61,109.40 148.93,245.53"/>
    </edge>
    <edge id="-1841" from="6365" to="6562" priority="-1">
        <lane id="-1841_0" index="0" speed="13.90" length="169.54" shape="148.17,254.90 135.61,423.97"/>
    </edge>
    <edge id="1816" from="6564" to="6365" priority="-1" spreadType="center" shape="220.91,224.24 162.04,248.16 154.71,250.79 152.01,251.40">
        <lane id="1816_0" index="0" speed="13.90" length="78.49" shape="224.98,222.59 162.04,248.16 154.71,250.79 152.01,251.40"/>
    </edge>
    <edge id="1839" from="6365" to="6454" priority="-1">
        <lane id="1839_0" index="0" speed="13.90" length="136.63" shape="145.75,245.26 157.43,109.12"/>
    </edge>
    <edge id="1841" from="6562" to="6365" priority="-1">
        <lane id="1841_0" index="0" speed="13.90" length="169.54" shape="132.41,423.73 144.98,254.66"/>
    </edge>

    <tlLogic id="6365" type="static" programID="0" offset="0">
        <phase duration="38" state="rrGgrrGg"/>
        <phase duration="3"  state="rryyrryy"/>
        <phase duration="37" state="GgrrGgrr"/>
        <phase duration="3"  state="ygrrygrr"/>
        <phase duration="6"  state="rGrrrGrr"/>
        <phase duration="3"  state="ryrrryrr"/>
    </tlLogic>

    <junction id="6365" type="traffic_light" x="146.87" y="250.87" incLanes="1816_0 -1839_0 -1570_0 1841_0" intLanes=":6365_0_0 :6365_8_0 :6365_2_0 :6365_9_0 :6365_4_0 :6365_10_0 :6365_6_0 :6365_11_0" shape="152.36,252.96 151.66,249.84 150.53,245.67 144.15,245.12 142.54,246.17 141.62,249.23 143.39,254.54 149.77,255.02">
        <request index="0" response="00000100" foes="10100100" cont="0"/>
        <request index="1" response="01010100" foes="01011100" cont="1"/>
        <request index="2" response="00100010" foes="10100011" cont="0"/>
        <request index="3" response="01010010" foes="01010010" cont="1"/>
        <request index="4" response="01000000" foes="01001010" cont="0"/>
        <request index="5" response="01000101" foes="11000101" cont="1"/>
        <request index="6" response="00100010" foes="00111010" cont="0"/>
        <request index="7" response="00100101" foes="00100101" cont="1"/>
    </junction>
    <junction id="6366" type="dead_end" x="0.00" y="0.00" incLanes="" intLanes="" shape="0.05,-0.00 3.24,-0.24"/>
    <junction id="6454" type="priority" x="159.02" y="109.26" incLanes="1839_0" intLanes=":6454_0_0" shape="159.02,109.26 155.83,108.99 159.02,109.26">
        <request index="0" response="0" foes="0" cont="0"/>
    </junction>
    <junction id="6562" type="priority" x="134.01" y="423.85" incLanes="-1841_0" intLanes=":6562_0_0" shape="134.01,423.85 137.20,424.09 134.01,423.85">
        <request index="0" response="0" foes="0" cont="0"/>
    </junction>
    <junction id="6564" type="dead_end" x="224.35" y="221.05" incLanes="" intLanes="" shape="224.37,221.11 225.58,224.07"/>

    <junction id=":6365_8_0" type="internal" x="145.89" y="248.53" incLanes=":6365_1_0 -1570_0" intLanes=":6365_2_0 :6365_3_0 :6365_4_0 :6365_6_0"/>
    <junction id=":6365_9_0" type="internal" x="147.20" y="246.99" incLanes=":6365_3_0 -1570_0 1816_0 1841_0" intLanes=":6365_1_0 :6365_4_0 :6365_6_0"/>
    <junction id=":6365_10_0" type="internal" x="147.71" y="252.05" incLanes=":6365_5_0 1816_0" intLanes=":6365_0_0 :6365_2_0 :6365_6_0 :6365_7_0"/>
    <junction id=":6365_11_0" type="internal" x="146.70" y="253.18" incLanes=":6365_7_0 -1570_0 -1839_0 1816_0" intLanes=":6365_0_0 :6365_2_0 :6365_5_0"/>

    <connection from="-1570" to="1839" fromLane="0" toLane="0" via=":6365_4_0" tl="6365" linkIndex="4" dir="r" state="o"/>
    <connection from="-1570" to="-1841" fromLane="0" toLane="0" via=":6365_5_0" tl="6365" linkIndex="5" dir="l" state="o"/>
    <connection from="-1839" to="-1841" fromLane="0" toLane="0" via=":6365_2_0" tl="6365" linkIndex="2" dir="s" state="O"/>
    <connection from="-1839" to="1839" fromLane="0" toLane="0" via=":6365_3_0" tl="6365" linkIndex="3" dir="t" state="o"/>
    <connection from="-1841" to="1841" fromLane="0" toLane="0" via=":6562_0_0" dir="t" state="M"/>
    <connection from="1816" to="-1841" fromLane="0" toLane="0" via=":6365_0_0" tl="6365" linkIndex="0" dir="r" state="o"/>
    <connection from="1816" to="1839" fromLane="0" toLane="0" via=":6365_1_0" tl="6365" linkIndex="1" dir="l" state="o"/>
    <connection from="1839" to="-1839" fromLane="0" toLane="0" via=":6454_0_0" dir="t" state="M"/>
    <connection from="1841" to="1839" fromLane="0" toLane="0" via=":6365_6_0" tl="6365" linkIndex="6" dir="s" state="O"/>
    <connection from="1841" to="-1841" fromLane="0" toLane="0" via=":6365_7_0" tl="6365" linkIndex="7" dir="t" state="o"/>

    <connection from=":6365_0" to="-1841" fromLane="0" toLane="0" dir="r" state="M"/>
    <connection from=":6365_1" to="1839" fromLane="0" toLane="0" via=":6365_8_0" dir="l" state="m"/>
    <connection from=":6365_8" to="1839" fromLane="0" toLane="0" dir="l" state="M"/>
    <connection from=":6365_2" to="-1841" fromLane="0" toLane="0" dir="s" state="M"/>
    <connection from=":6365_3" to="1839" fromLane="0" toLane="0" via=":6365_9_0" dir="t" state="m"/>
    <connection from=":6365_9" to="1839" fromLane="0" toLane="0" dir="t" state="M"/>
    <connection from=":6365_4" to="1839" fromLane="0" toLane="0" dir="r" state="M"/>
    <connection from=":6365_5" to="-1841" fromLane="0" toLane="0" via=":6365_10_0" dir="l" state="m"/>
    <connection from=":6365_10" to="-1841" fromLane="0" toLane="0" dir="l" state="M"/>
    <connection from=":6365_6" to="1839" fromLane="0" toLane="0" dir="s" state="M"/>
    <connection from=":6365_7" to="-1841" fromLane="0" toLane="0" via=":6365_11_0" dir="t" state="m"/>
    <connection from=":6365_11" to="-1841" fromLane="0" toLane="0" dir="t" state="M"/>
    <connection from=":6454_0" to="-1839" fromLane="0" toLane="0" dir="t" state="M"/>
    <connection from=":6562_0" to="1841" fromLane="0" toLane="0" dir="t" state="M"/>

</net>
