<?xml version="1.0" encoding="UTF-8"?>

<!-- generated on Thu Aug  3 15:47:03 2017 by SUMO netconvert Version dev-SVN-r25455
<?xml version="1.0" encoding="UTF-8"?>

<configuration xmlns:xsi="http://www.w3.org/2001/XMLSchema-instance" xsi:noNamespaceSchemaLocation="http://sumo.dlr.de/xsd/netconvertConfiguration.xsd">

    <input>
        <sumo-net-file value="input_net.net.xml"/>
    </input>

    <output>
        <output-file value="net.net.xml"/>
        <plain-output-prefix value="plain"/>
    </output>

    <processing>
        <no-turnarounds value="true"/>
        <offset.disable-normalization value="true"/>
        <lefthand value="false"/>
        <junctions.corner-detail value="0"/>
        <rectangular-lane-cut value="false"/>
        <walkingareas value="false"/>
    </processing>

    <report>
        <xml-validation value="never"/>
    </report>

</configuration>
-->

<nodes version="0.27" xmlns:xsi="http://www.w3.org/2001/XMLSchema-instance" xsi:noNamespaceSchemaLocation="http://sumo.dlr.de/xsd/nodes_file.xsd">
    <location netOffset="500.00,500.00" convBoundary="0.00,0.00,1000.00,1000.00" origBoundary="-500.00,-500.00,500.00,500.00" projParameter="!"/>

    <node id="0" x="500.00" y="500.00" type="traffic_light" tl="0"/>
    <node id="1" x="0.00" y="500.00" type="priority"/>
    <node id="2" x="1000.00" y="500.00" type="priority"/>
    <node id="3" x="500.00" y="0.00" type="priority"/>
    <node id="4" x="500.00" y="1000.00" type="priority"/>
</nodes>
