<?xml version="1.0" encoding="UTF-8"?>

<!-- generated on 2024-02-29 13:55:29.616030 by netdiff.py v1_19_0+1092-a49a04372af
<configuration>
    <source value="source.net.xml"/>
    <dest value="dest.net.xml"/>
    <outprefix value="diff"/>
    <plain-geo value="True"/>
</configuration>
-->

<edges version="1.20" xmlns:xsi="http://www.w3.org/2001/XMLSchema-instance" xsi:noNamespaceSchemaLocation="http://sumo.dlr.de/xsd/edgediff_file.xsd">
    <!-- Deleted Elements -->
    <!-- Created Elements -->
    <edge id="-10860203.384" disallow="tram rail_urban rail rail_electric rail_fast ship" from="J0" numLanes="1" priority="11" speed="27.78" to="2" type="highway.secondary"/>
    <edge id="108602030" disallow="tram rail_urban rail rail_electric rail_fast ship" from="J0" numLanes="1" priority="11" speed="27.78" to="3" type="highway.secondary"/>
    <!-- Changed Elements -->
    <edge id="-10860203" to="J0"/>
    <edge id="10860203" to="J0"/>
</edges>
