<?xml version="1.0" encoding="UTF-8"?>

<!-- generated on 2023-01-26 23:21:39.930131 by netdiff.py v1_15_0+1985-a4f015c
  options: -g source.net.xml dest.net.xml diff
-->

<nodes version="1.16" xmlns:xsi="http://www.w3.org/2001/XMLSchema-instance" xsi:noNamespaceSchemaLocation="http://sumo.dlr.de/xsd/nodes_file.xsd">
    <!-- Deleted Elements -->
    <!-- Created Elements -->
    <node id="J0" type="priority" x="13.612715" y="52.378501"/>
    <!-- Changed Elements -->
</nodes>
