<?xml version="1.0" encoding="UTF-8"?>

<!-- generated on 2024-09-24 11:58:10 by Eclipse SUMO sumo Version v1_20_0+0589-6b92b54fcff
This data file and the accompanying materials
are made available under the terms of the Eclipse Public License v2.0
which accompanies this distribution, and is available at
http://www.eclipse.org/legal/epl-v20.html
This file may also be made available under the following Secondary
Licenses when the conditions for such availability set forth in the Eclipse
Public License 2.0 are satisfied: GNU General Public License, version 2
or later which is available at
https://www.gnu.org/licenses/old-licenses/gpl-2.0-standalone.html
SPDX-License-Identifier: EPL-2.0 OR GPL-2.0-or-later
<configuration xmlns:xsi="http://www.w3.org/2001/XMLSchema-instance" xsi:noNamespaceSchemaLocation="http://sumo.dlr.de/xsd/sumoConfiguration.xsd">

    <input>
        <net-file value="net.net.xml"/>
        <route-files value="input_routes.rou.xml"/>
    </input>

    <output>
        <write-license value="true"/>
        <tripinfo-output value="tripinfos.xml"/>
        <railsignal-block-output value="railsignal_blocks.xml"/>
    </output>

    <processing>
        <default.speeddev value="0"/>
    </processing>

    <report>
        <xml-validation value="never"/>
        <duration-log.disable value="true"/>
        <no-step-log value="true"/>
    </report>

</configuration>
-->

<railsignal-block-output>
    <railSignal id="J2">
        <link linkIndex="0" from="-end2_0" to=":J2_0_0">
            <driveWay id="J2.0" vehicle="RE2" edges="-end -beg">
                <forward lanes=":J2_0_0 -end_0 :B_1_0 -beg_0"/>
                <bidi lanes=":J2_1_0 end_0 :B_2_0 beg_0"/>
                <flank lanes=":B_0_0 -E0_0 :J0_0_0 -E1_0"/>
                <protectingSwitches links=""/>
                <conflictLinks signals=""/>
                <foes driveWays="A.d0.0 J2.0"/>
            </driveWay>
        </link>
        <link linkIndex="1" from="end_0" to=":J2_1_0"/>
    </railSignal>
    <departJunction id="C">
        <driveWay id="C.d1" vehicle="RE2" edges="-end2 -end -beg">
            <forward lanes="-end2_0"/>
            <bidi lanes="end2_0 :J2_1_0 end_0 :B_2_0"
                    deadlockCheck="beg_0"/>
            <flank lanes=""/>
            <protectingSwitches links="B_2"/>
            <conflictLinks signals=""/>
            <foes driveWays="C.d1"/>
        </driveWay>
    </departJunction>
    <departJunction id="A">
        <driveWay id="A.d0" vehicle="RE1" edges="beg E0 E1">
            <forward lanes="beg_0 :B_3_0 E0_0 :J0_1_0 E1_0"/>
            <bidi lanes="-beg_0 :B_0_0 -E0_0 :J0_0_0 -E1_0"/>
            <flank lanes=":B_1_0 -end_0 :J2_0_0"/>
            <protectingSwitches links=""/>
            <conflictLinks signals="J2_0"/>
            <foes driveWays="A.d0 J2.0"/>
        </driveWay>
        <subDriveWay id="A.d0.0" vehicle="" edges="beg">
            <forward lanes="beg_0"/>
        </subDriveWay>
    </departJunction>
</railsignal-block-output>
