<?xml version="1.0" encoding="UTF-8"?>

<!-- generated on Mon Sep  9 14:22:50 2013 by SUMO sumo Version dev-SVN-r14631
<?xml version="1.0" encoding="UTF-8"?>

<configuration xmlns:xsi="http://www.w3.org/2001/XMLSchema-instance" xsi:noNamespaceSchemaLocation="http://sumo-sim.org/xsd/sumoConfiguration.xsd">

    <input>
        <net-file value="net.net.xml"/>
        <additional-files value="input_routes.rou.xml,input_additional.add.xml,input_additional2.add.xml"/>
    </input>

    <time>
        <begin value="0"/>
        <end value="100"/>
    </time>

    <report>
        <no-duration-log value="true"/>
        <no-step-log value="true"/>
    </report>

</configuration>
-->

<instantE1>
    <instantOut id="4/1to3/1" time="11.00" state="enter" vehID="0" speed="10.00" length="3.00" type="t1"/>
    <instantOut id="4/1to3/1" time="11.00" state="stay" vehID="0" speed="10.00" length="3.00" type="t1"/>
    <instantOut id="4/1to3/1" time="11.30" state="leave" vehID="0" speed="10.00" length="3.00" type="t1" occupancy="0.30"/>
    <instantOut id="4/1to3/1" time="17.11" state="enter" vehID="1" speed="9.00" length="3.00" type="t2" gap="5.81"/>
    <instantOut id="4/1to3/1" time="17.44" state="leave" vehID="1" speed="9.00" length="3.00" type="t2" occupancy="0.33"/>
    <instantOut id="3/1to2/1" time="50.05" state="enter" vehID="0" speed="10.00" length="3.00" type="t1"/>
    <instantOut id="3/1to2/1" time="50.35" state="leave" vehID="0" speed="10.00" length="3.00" type="t1" occupancy="0.30"/>
    <instantOut id="3/1to2/1" time="60.50" state="enter" vehID="1" speed="9.00" length="3.00" type="t2" gap="10.15"/>
    <instantOut id="3/1to2/1" time="60.83" state="leave" vehID="1" speed="9.00" length="3.00" type="t2" occupancy="0.33"/>
</instantE1>
