<?xml version="1.0" encoding="UTF-8"?>

<!-- generated on 2023-04-18 09:23:55 by Eclipse SUMO netedit Version v1_16_0+2135-40d51fde2c5
-->

<additional xmlns:xsi="http://www.w3.org/2001/XMLSchema-instance" xsi:noNamespaceSchemaLocation="http://sumo.dlr.de/xsd/additional_file.xsd">
    <!-- StoppingPlaces -->
    <chargingStation id="cs_0" name="charging station name" lane="center1_1" startPos="4.00" endPos="14.00"/>
</additional>
