<routes>
    <vType id="t0" sigma="0" speedDev="0"/>
    <vehicle id="v0" type="t0" depart="0" departSpeed="speedLimit" departPos="-60" arrivalPos="20" departLane="16">
        <route edges="E0 E1"/>
    </vehicle>
</routes>
