<?xml version="1.0"?>

<!-- generated on 03/25/08 09:52:55 by SUMO sumo Version 0.9.7
<configuration>

   <input>
      <net-file>net.net.xml</net-file>
      <additional-files>input_additional.add.xml,input_routes.rou.xml,input_additional2.add.xml</additional-files>
   </input>

   <time>
      <begin>0</begin>
      <end>1000</end>
   </time>

   <processing>
      <no-duration-log>true</no-duration-log>
      <no-step-log>true</no-step-log>
   </processing>

</configuration>
-->

<vehicle-type-probes>
    <timestep time="0" id="test1" vtype="t2">
        <vehicle id="emitter_5_1" lane="4/1to3/1_0" pos="140.00" x="1455.25" y="401.65" lat="" lon="" speed="10.00"/>
    </timestep>
    <timestep time="10" id="test1" vtype="t2">
        <vehicle id="emitter_5_1" lane="4/1to3/1_0" pos="240.00" x="1355.25" y="401.65" lat="" lon="" speed="10.00"/>
    </timestep>
    <timestep time="20" id="test1" vtype="t2">
        <vehicle id="emitter_5_1" lane="4/1to3/1_0" pos="340.00" x="1255.25" y="401.65" lat="" lon="" speed="10.00"/>
    </timestep>
    <timestep time="30" id="test1" vtype="t2">
        <vehicle id="emitter_5_1" lane="3/1to2/1_0" pos="49.50" x="1145.75" y="401.65" lat="" lon="" speed="10.00"/>
    </timestep>
    <timestep time="40" id="test1" vtype="t2">
        <vehicle id="emitter_5_1" lane="3/1to2/1_0" pos="149.50" x="1045.75" y="401.65" lat="" lon="" speed="10.00"/>
    </timestep>
    <timestep time="50" id="test1" vtype="t2">
        <vehicle id="emitter_5_1" lane="3/1to2/1_0" pos="249.50" x="945.75" y="401.65" lat="" lon="" speed="10.00"/>
    </timestep>
    <timestep time="60" id="test1" vtype="t2">
        <vehicle id="emitter_5_1" lane="3/1to2/1_0" pos="349.50" x="845.75" y="401.65" lat="" lon="" speed="10.00"/>
    </timestep>
    <timestep time="70" id="test1" vtype="t2">
        <vehicle id="emitter_5_1" lane="2/1to1/1_0" pos="59.00" x="736.25" y="401.65" lat="" lon="" speed="10.00"/>
    </timestep>
    <timestep time="80" id="test1" vtype="t2">
        <vehicle id="emitter_5_1" lane="2/1to1/1_0" pos="159.00" x="636.25" y="401.65" lat="" lon="" speed="10.00"/>
    </timestep>
    <timestep time="90" id="test1" vtype="t2">
        <vehicle id="emitter_5_1" lane="2/1to1/1_0" pos="259.00" x="536.25" y="401.65" lat="" lon="" speed="10.00"/>
    </timestep>
    <timestep time="100" id="test1" vtype="t2">
        <vehicle id="emitter_5_1" lane="2/1to1/1_0" pos="359.00" x="436.25" y="401.65" lat="" lon="" speed="10.00"/>
    </timestep>
    <timestep time="110" id="test1" vtype="t2">
    </timestep>
</vehicle-type-probes>
