<?xml version="1.0"?>

<!-- generated on 09/01/09 15:08:16 by SUMO sumo Version dev-SVN-r7635
<configuration>

    <input
        net-file="net.net.xml"
        additional-files="input_additional.add.xml,input_routes.rou.xml,input_additional2.add.xml"
    />

    <time
        begin="0"
        end="130"
    />

    <report
        no-duration-log="true"
        no-step-log="true"
    />

</configuration>
-->

<vehicle-type-probes>
    <timestep time="0.00" id="test1" vtype="t2">
        <vehicle id="1" lane="4/1to3/1_0" pos="140.00" x="1455.25" y="401.65" speed="10.00"/>
    </timestep>
    <timestep time="10.00" id="test1" vtype="t2">
        <vehicle id="1" lane="4/1to3/1_0" pos="240.00" x="1355.25" y="401.65" speed="10.00"/>
    </timestep>
    <timestep time="20.00" id="test1" vtype="t2">
        <vehicle id="1" lane="4/1to3/1_0" pos="340.00" x="1255.25" y="401.65" speed="10.00"/>
    </timestep>
    <timestep time="30.00" id="test1" vtype="t2">
        <vehicle id="1" lane="3/1to2/1_0" pos="49.50" x="1145.75" y="401.65" speed="10.00"/>
    </timestep>
    <timestep time="40.00" id="test1" vtype="t2">
        <vehicle id="1" lane="3/1to2/1_0" pos="149.50" x="1045.75" y="401.65" speed="10.00"/>
    </timestep>
    <timestep time="50.00" id="test1" vtype="t2">
        <vehicle id="1" lane="3/1to2/1_0" pos="249.50" x="945.75" y="401.65" speed="10.00"/>
    </timestep>
    <timestep time="60.00" id="test1" vtype="t2">
        <vehicle id="1" lane="3/1to2/1_0" pos="349.50" x="845.75" y="401.65" speed="10.00"/>
    </timestep>
    <timestep time="70.00" id="test1" vtype="t2">
        <vehicle id="1" lane="2/1to1/1_0" pos="59.00" x="736.25" y="401.65" speed="10.00"/>
    </timestep>
    <timestep time="80.00" id="test1" vtype="t2">
        <vehicle id="1" lane="2/1to1/1_0" pos="159.00" x="636.25" y="401.65" speed="10.00"/>
    </timestep>
    <timestep time="90.00" id="test1" vtype="t2">
        <vehicle id="1" lane="2/1to1/1_0" pos="259.00" x="536.25" y="401.65" speed="10.00"/>
    </timestep>
    <timestep time="100.00" id="test1" vtype="t2">
        <vehicle id="1" lane="2/1to1/1_0" pos="359.00" x="436.25" y="401.65" speed="10.00"/>
    </timestep>
    <timestep time="110.00" id="test1" vtype="t2">
    </timestep>
    <timestep time="120.00" id="test1" vtype="t2">
    </timestep>
</vehicle-type-probes>
