<routes>
    <vehicle id="v1" depart="0" departpos="0">
        <route edges="beg beg2left left left2end end">
            <stop lane="beg_0" startPos="200" endPos="220" duration="400"/>
        </route>
    </vehicle>
</routes>
