<additional xmlns:xsi="http://www.w3.org/2001/XMLSchema-instance" xsi:noNamespaceSchemaLocation="http://sumo.dlr.de/xsd/additional_file.xsd">
    <!-- E1 A -->
    <e1Detector id="E1_A" lane="gneE0_0" pos="6" freq="120.00" name="DetectorA" file="e1Detector_01.txt" vTypes="Type1 Type2 Type3" friendlyPos="0"/>

	<!-- E1 B -->
	<e1Detector id="E1_B" lane="gneE0_0" pos="10" freq="90.00" name="DetectorB" file="e1Detector_01.txt" vTypes="Type4 Type5" friendlyPos="0"/>
</additional>
