<?xml version="1.0" encoding="UTF-8"?>

<!-- generated on 2021-11-08 09:23:12 by Eclipse SUMO sumo Version v1_10_0+2012-d2b5289
<configuration xmlns:xsi="http://www.w3.org/2001/XMLSchema-instance" xsi:noNamespaceSchemaLocation="http://sumo.dlr.de/xsd/sumoConfiguration.xsd">

    <input>
        <net-file value="input_net.net.xml"/>
        <route-files value="input_routes.rou.xml"/>
    </input>

    <output>
        <lanechange-output value="lanechanges.xml"/>
        <lanechange-output.started value="true"/>
        <lanechange-output.ended value="true"/>
    </output>

    <time>
        <begin value="0"/>
    </time>

    <processing>
        <lateral-resolution value="3.2"/>
    </processing>

    <report>
        <no-step-log value="true"/>
    </report>

    <traci_server>
        <remote-port value="41924"/>
    </traci_server>

</configuration>
-->

<lanechanges>
    <changeStarted id="v0" type="t0" time="1.00" from="beg_0" to="beg_1" dir="1" speed="2.60" pos="7.70" reason="traci|urgent|sublane" leaderGap="None" leaderSecureGap="None" leaderSpeed="None" followerGap="None" followerSecureGap="None" followerSpeed="None" origLeaderGap="None" origLeaderSecureGap="None" origLeaderSpeed="None" latGap="None" maneuverDistance="2.50"/>
    <change id="v0" type="t0" time="2.00" from="beg_0" to="beg_1" dir="1" speed="5.20" pos="12.90" reason="traci" leaderGap="None" leaderSecureGap="None" leaderSpeed="None" followerGap="None" followerSecureGap="None" followerSpeed="None" origLeaderGap="None" origLeaderSecureGap="None" origLeaderSpeed="None" latGap="None"/>
    <changeEnded id="v0" type="t0" time="3.00" from="beg_1" to="beg_1" dir="0" speed="7.80" pos="20.70" reason="traci|sublane" leaderGap="None" leaderSecureGap="None" leaderSpeed="None" followerGap="None" followerSecureGap="None" followerSpeed="None" origLeaderGap="None" origLeaderSecureGap="None" origLeaderSpeed="None" latGap="None"/>
</lanechanges>
