<?xml version="1.0" encoding="UTF-8"?>

<!-- generated on Thu Mar 26 16:23:57 2015 by SUMO netconvert Version dev-SVN-r18156I
<?xml version="1.0" encoding="UTF-8"?>

<configuration xmlns:xsi="http://www.w3.org/2001/XMLSchema-instance" xsi:noNamespaceSchemaLocation="http://sumo.dlr.de/xsd/netconvertConfiguration.xsd">

    <input>
        <node-files value="./activitygen/demand_generation/activitygen-example.nod.xml"/>
        <edge-files value="./activitygen/demand_generation/activitygen-example.edg.xml"/>
    </input>

    <output>
        <output-file value="./activitygen/demand_generation/activitygen-example.net.xml"/>
    </output>

    <report>
        <verbose value="true"/>
    </report>

</configuration>
-->

<net version="0.13" xmlns:xsi="http://www.w3.org/2001/XMLSchema-instance" xsi:noNamespaceSchemaLocation="http://sumo.dlr.de/xsd/net_file.xsd">

    <location netOffset="0.00,0.00" convBoundary="0.00,0.00,1000.00,1000.00" origBoundary="0.00,0.00,1000.00,1000.00" projParameter="!"/>

    <edge id=":01_0" function="internal">
        <lane id=":01_0_0" index="0" speed="13.89" length="4.82" shape="-1.17,1.17 -1.46,-0.29 -1.17,-1.17 -0.29,-1.46 1.17,-1.17"/>
    </edge>
    <edge id=":11_0" function="internal">
        <lane id=":11_0_0" index="0" speed="13.89" length="7.82" shape="195.05,208.05 194.95,205.33 194.67,203.17 194.19,201.57 193.52,200.52"/>
    </edge>
    <edge id=":11_1" function="internal">
        <lane id=":11_1_0" index="0" speed="13.89" length="5.48" shape="198.35,208.05 198.96,203.81 199.57,202.79"/>
    </edge>
    <edge id=":11_2" function="internal">
        <lane id=":11_2_0" index="0" speed="13.89" length="2.41" shape="198.35,208.05 199.17,206.81 200.00,206.40"/>
    </edge>
    <edge id=":11_11" function="internal">
        <lane id=":11_11_0" index="0" speed="13.89" length="10.17" shape="199.57,202.79 200.77,200.78 203.81,198.96 208.05,198.35"/>
    </edge>
    <edge id=":11_12" function="internal">
        <lane id=":11_12_0" index="0" speed="13.89" length="2.41" shape="200.00,206.40 200.82,206.81 201.65,208.05"/>
    </edge>
    <edge id=":11_3" function="internal">
        <lane id=":11_3_0" index="0" speed="13.89" length="5.00" shape="208.05,204.95 206.69,205.14 205.73,205.72 205.14,206.69 204.95,208.05"/>
    </edge>
    <edge id=":11_4" function="internal">
        <lane id=":11_4_0" index="0" speed="13.89" length="14.26" shape="208.05,204.95 203.35,204.67 199.37,203.84 196.09,202.46 193.52,200.52"/>
        <lane id=":11_4_1" index="1" speed="13.89" length="14.26" shape="208.05,201.65 204.01,201.43 200.63,200.78 197.91,199.70 195.85,198.19"/>
    </edge>
    <edge id=":11_6" function="internal">
        <lane id=":11_6_0" index="0" speed="13.89" length="4.82" shape="208.05,201.65 206.81,200.83 206.40,200.00 206.81,199.18 208.05,198.35"/>
    </edge>
    <edge id=":11_7" function="internal">
        <lane id=":11_7_0" index="0" speed="13.89" length="9.10" shape="200.52,193.52 201.57,194.19 203.17,194.67 205.33,194.95 208.05,195.05"/>
        <lane id=":11_7_1" index="1" speed="13.89" length="9.10" shape="198.19,195.85 199.74,196.95 201.90,197.73 204.67,198.19 208.05,198.35"/>
    </edge>
    <edge id=":11_9" function="internal">
        <lane id=":11_9_0" index="0" speed="13.89" length="12.97" shape="198.19,195.85 199.70,197.91 200.78,200.63 201.43,204.01 201.65,208.05"/>
    </edge>
    <edge id=":11_10" function="internal">
        <lane id=":11_10_0" index="0" speed="13.89" length="2.41" shape="198.19,195.85 198.48,197.31 198.19,198.19"/>
    </edge>
    <edge id=":11_13" function="internal">
        <lane id=":11_13_0" index="0" speed="13.89" length="2.41" shape="198.19,198.19 197.31,198.48 195.85,198.19"/>
    </edge>
    <edge id=":12_0" function="internal">
        <lane id=":12_0_0" index="0" speed="13.89" length="16.10" shape="195.05,408.05 195.05,403.27 195.05,400.00 195.05,396.73 195.05,391.95"/>
        <lane id=":12_0_1" index="1" speed="13.89" length="16.10" shape="198.35,408.05 198.35,403.27 198.35,400.00 198.35,396.73 198.35,391.95"/>
    </edge>
    <edge id=":12_2" function="internal">
        <lane id=":12_2_0" index="0" speed="13.89" length="6.41" shape="198.35,408.05 198.96,403.81 200.05,401.98"/>
    </edge>
    <edge id=":12_3" function="internal">
        <lane id=":12_3_0" index="0" speed="13.89" length="2.41" shape="198.35,408.05 199.17,406.81 200.00,406.40"/>
    </edge>
    <edge id=":12_11" function="internal">
        <lane id=":12_11_0" index="0" speed="13.89" length="9.23" shape="200.05,401.98 200.77,400.77 203.81,398.96 208.05,398.35"/>
    </edge>
    <edge id=":12_12" function="internal">
        <lane id=":12_12_0" index="0" speed="13.89" length="2.41" shape="200.00,406.40 200.82,406.81 201.65,408.05"/>
    </edge>
    <edge id=":12_4" function="internal">
        <lane id=":12_4_0" index="0" speed="13.89" length="5.00" shape="208.05,404.95 206.69,405.14 205.73,405.72 205.14,406.69 204.95,408.05"/>
    </edge>
    <edge id=":12_5" function="internal">
        <lane id=":12_5_0" index="0" speed="13.89" length="15.64" shape="208.05,401.65 203.81,401.04 200.78,399.22 198.96,396.19 198.35,391.95"/>
    </edge>
    <edge id=":12_6" function="internal">
        <lane id=":12_6_0" index="0" speed="13.89" length="4.82" shape="208.05,401.65 206.81,400.83 206.40,400.00 206.81,399.18 208.05,398.35"/>
    </edge>
    <edge id=":12_7" function="internal">
        <lane id=":12_7_0" index="0" speed="13.89" length="5.00" shape="204.95,391.95 205.14,393.31 205.72,394.27 206.69,394.86 208.05,395.05"/>
    </edge>
    <edge id=":12_8" function="internal">
        <lane id=":12_8_0" index="0" speed="13.89" length="16.10" shape="204.95,391.95 204.95,396.73 204.95,400.00 204.95,403.27 204.95,408.05"/>
        <lane id=":12_8_1" index="1" speed="13.89" length="16.10" shape="201.65,391.95 201.65,396.73 201.65,400.00 201.65,403.27 201.65,408.05"/>
    </edge>
    <edge id=":12_10" function="internal">
        <lane id=":12_10_0" index="0" speed="13.89" length="2.41" shape="201.65,391.95 200.83,393.19 200.00,393.60"/>
    </edge>
    <edge id=":12_13" function="internal">
        <lane id=":12_13_0" index="0" speed="13.89" length="2.41" shape="200.00,393.60 199.18,393.19 198.35,391.95"/>
    </edge>
    <edge id=":13_0" function="internal">
        <lane id=":13_0_0" index="0" speed="13.89" length="16.10" shape="195.05,608.05 195.05,603.27 195.05,600.00 195.05,596.73 195.05,591.95"/>
        <lane id=":13_0_1" index="1" speed="13.89" length="16.10" shape="198.35,608.05 198.35,603.27 198.35,600.00 198.35,596.73 198.35,591.95"/>
    </edge>
    <edge id=":13_2" function="internal">
        <lane id=":13_2_0" index="0" speed="13.89" length="6.41" shape="198.35,608.05 198.96,603.81 200.05,601.98"/>
    </edge>
    <edge id=":13_3" function="internal">
        <lane id=":13_3_0" index="0" speed="13.89" length="2.41" shape="198.35,608.05 199.17,606.81 200.00,606.40"/>
    </edge>
    <edge id=":13_11" function="internal">
        <lane id=":13_11_0" index="0" speed="13.89" length="9.23" shape="200.05,601.98 200.77,600.77 203.81,598.96 208.05,598.35"/>
    </edge>
    <edge id=":13_12" function="internal">
        <lane id=":13_12_0" index="0" speed="13.89" length="2.41" shape="200.00,606.40 200.82,606.81 201.65,608.05"/>
    </edge>
    <edge id=":13_4" function="internal">
        <lane id=":13_4_0" index="0" speed="13.89" length="5.00" shape="208.05,604.95 206.69,605.14 205.73,605.73 205.14,606.69 204.95,608.05"/>
    </edge>
    <edge id=":13_5" function="internal">
        <lane id=":13_5_0" index="0" speed="13.89" length="15.64" shape="208.05,601.65 203.81,601.04 200.78,599.22 198.96,596.19 198.35,591.95"/>
    </edge>
    <edge id=":13_6" function="internal">
        <lane id=":13_6_0" index="0" speed="13.89" length="4.82" shape="208.05,601.65 206.81,600.82 206.40,600.00 206.81,599.17 208.05,598.35"/>
    </edge>
    <edge id=":13_7" function="internal">
        <lane id=":13_7_0" index="0" speed="13.89" length="5.00" shape="204.95,591.95 205.14,593.31 205.72,594.27 206.69,594.86 208.05,595.05"/>
    </edge>
    <edge id=":13_8" function="internal">
        <lane id=":13_8_0" index="0" speed="13.89" length="16.10" shape="204.95,591.95 204.95,596.73 204.95,600.00 204.95,603.27 204.95,608.05"/>
        <lane id=":13_8_1" index="1" speed="13.89" length="16.10" shape="201.65,591.95 201.65,596.73 201.65,600.00 201.65,603.27 201.65,608.05"/>
    </edge>
    <edge id=":13_10" function="internal">
        <lane id=":13_10_0" index="0" speed="13.89" length="2.41" shape="201.65,591.95 200.83,593.19 200.00,593.60"/>
    </edge>
    <edge id=":13_13" function="internal">
        <lane id=":13_13_0" index="0" speed="13.89" length="2.41" shape="200.00,593.60 199.18,593.19 198.35,591.95"/>
    </edge>
    <edge id=":14_0" function="internal">
        <lane id=":14_0_0" index="0" speed="13.89" length="15.89" shape="206.55,804.95 201.52,804.23 197.93,802.08 195.77,798.48 195.05,793.45"/>
        <lane id=":14_0_1" index="1" speed="13.89" length="15.89" shape="206.55,801.65 202.96,801.14 200.40,799.60 198.86,797.04 198.35,793.45"/>
    </edge>
    <edge id=":14_2" function="internal">
        <lane id=":14_2_0" index="0" speed="13.89" length="2.69" shape="206.55,801.65 205.31,800.82 204.90,800.00 205.03,799.75"/>
    </edge>
    <edge id=":14_6" function="internal">
        <lane id=":14_6_0" index="0" speed="13.89" length="2.13" shape="205.03,799.75 205.31,799.17 206.55,798.35"/>
    </edge>
    <edge id=":14_3" function="internal">
        <lane id=":14_3_0" index="0" speed="13.89" length="5.24" shape="204.95,793.45 205.05,794.15 205.35,794.65 205.85,794.95 206.55,795.05"/>
        <lane id=":14_3_1" index="1" speed="13.89" length="5.24" shape="201.65,793.45 201.96,795.59 202.88,797.12 204.41,798.04 206.55,798.35"/>
    </edge>
    <edge id=":14_5" function="internal">
        <lane id=":14_5_0" index="0" speed="13.89" length="2.20" shape="201.65,793.45 200.83,794.69 200.19,795.01"/>
    </edge>
    <edge id=":14_7" function="internal">
        <lane id=":14_7_0" index="0" speed="13.89" length="2.62" shape="200.19,795.01 200.00,795.10 199.18,794.69 198.35,793.45"/>
    </edge>
    <edge id=":21_0" function="internal">
        <lane id=":21_0_0" index="0" speed="13.89" length="5.00" shape="395.05,208.05 394.86,206.69 394.28,205.73 393.31,205.14 391.95,204.95"/>
    </edge>
    <edge id=":21_1" function="internal">
        <lane id=":21_1_0" index="0" speed="13.89" length="15.64" shape="398.35,208.05 398.96,203.81 400.78,200.78 403.81,198.96 408.05,198.35"/>
    </edge>
    <edge id=":21_2" function="internal">
        <lane id=":21_2_0" index="0" speed="13.89" length="4.82" shape="398.35,208.05 399.17,206.81 400.00,206.40 400.82,206.81 401.65,208.05"/>
    </edge>
    <edge id=":21_3" function="internal">
        <lane id=":21_3_0" index="0" speed="13.89" length="5.00" shape="408.05,204.95 406.69,205.14 405.73,205.72 405.14,206.69 404.95,208.05"/>
    </edge>
    <edge id=":21_4" function="internal">
        <lane id=":21_4_0" index="0" speed="13.89" length="16.10" shape="408.05,204.95 403.27,204.95 400.00,204.95 396.73,204.95 391.95,204.95"/>
        <lane id=":21_4_1" index="1" speed="13.89" length="16.10" shape="408.05,201.65 403.27,201.65 400.00,201.65 396.73,201.65 391.95,201.65"/>
    </edge>
    <edge id=":21_6" function="internal">
        <lane id=":21_6_0" index="0" speed="13.89" length="2.41" shape="408.05,201.65 406.81,200.83 406.40,200.00"/>
    </edge>
    <edge id=":21_11" function="internal">
        <lane id=":21_11_0" index="0" speed="13.89" length="2.41" shape="406.40,200.00 406.81,199.18 408.05,198.35"/>
    </edge>
    <edge id=":21_7" function="internal">
        <lane id=":21_7_0" index="0" speed="13.89" length="16.10" shape="391.95,195.05 396.73,195.05 400.00,195.05 403.27,195.05 408.05,195.05"/>
        <lane id=":21_7_1" index="1" speed="13.89" length="16.10" shape="391.95,198.35 396.73,198.35 400.00,198.35 403.27,198.35 408.05,198.35"/>
    </edge>
    <edge id=":21_9" function="internal">
        <lane id=":21_9_0" index="0" speed="13.89" length="6.41" shape="391.95,198.35 396.19,198.96 398.02,200.05"/>
    </edge>
    <edge id=":21_10" function="internal">
        <lane id=":21_10_0" index="0" speed="13.89" length="2.41" shape="391.95,198.35 393.19,199.17 393.60,200.00"/>
    </edge>
    <edge id=":21_12" function="internal">
        <lane id=":21_12_0" index="0" speed="13.89" length="9.23" shape="398.02,200.05 399.23,200.77 401.04,203.81 401.65,208.05"/>
    </edge>
    <edge id=":21_13" function="internal">
        <lane id=":21_13_0" index="0" speed="13.89" length="2.41" shape="393.60,200.00 393.19,200.82 391.95,201.65"/>
    </edge>
    <edge id=":22_0" function="internal">
        <lane id=":22_0_0" index="0" speed="13.89" length="5.00" shape="395.05,408.05 394.86,406.69 394.28,405.73 393.31,405.14 391.95,404.95"/>
    </edge>
    <edge id=":22_1" function="internal">
        <lane id=":22_1_0" index="0" speed="13.89" length="16.10" shape="395.05,408.05 395.05,403.27 395.05,400.00 395.05,396.73 395.05,391.95"/>
        <lane id=":22_1_1" index="1" speed="13.89" length="16.10" shape="398.35,408.05 398.35,403.27 398.35,400.00 398.35,396.73 398.35,391.95"/>
    </edge>
    <edge id=":22_3" function="internal">
        <lane id=":22_3_0" index="0" speed="13.89" length="6.41" shape="398.35,408.05 398.96,403.81 400.05,401.98"/>
    </edge>
    <edge id=":22_4" function="internal">
        <lane id=":22_4_0" index="0" speed="13.89" length="2.41" shape="398.35,408.05 399.17,406.81 400.00,406.40"/>
    </edge>
    <edge id=":22_18" function="internal">
        <lane id=":22_18_0" index="0" speed="13.89" length="9.23" shape="400.05,401.98 400.78,400.77 403.81,398.96 408.05,398.35"/>
    </edge>
    <edge id=":22_19" function="internal">
        <lane id=":22_19_0" index="0" speed="13.89" length="2.41" shape="400.00,406.40 400.82,406.81 401.65,408.05"/>
    </edge>
    <edge id=":22_5" function="internal">
        <lane id=":22_5_0" index="0" speed="13.89" length="5.00" shape="408.05,404.95 406.69,405.14 405.73,405.72 405.14,406.69 404.95,408.05"/>
    </edge>
    <edge id=":22_6" function="internal">
        <lane id=":22_6_0" index="0" speed="13.89" length="16.10" shape="408.05,401.65 403.27,401.65 400.00,401.65 396.73,401.65 391.95,401.65"/>
    </edge>
    <edge id=":22_7" function="internal">
        <lane id=":22_7_0" index="0" speed="13.89" length="15.64" shape="408.05,401.65 403.81,401.04 400.77,399.22 398.96,396.19 398.35,391.95"/>
    </edge>
    <edge id=":22_8" function="internal">
        <lane id=":22_8_0" index="0" speed="13.89" length="4.82" shape="408.05,401.65 406.81,400.83 406.40,400.00 406.81,399.18 408.05,398.35"/>
    </edge>
    <edge id=":22_9" function="internal">
        <lane id=":22_9_0" index="0" speed="13.89" length="5.00" shape="404.95,391.95 405.14,393.31 405.72,394.27 406.69,394.86 408.05,395.05"/>
    </edge>
    <edge id=":22_10" function="internal">
        <lane id=":22_10_0" index="0" speed="13.89" length="16.10" shape="404.95,391.95 404.95,396.73 404.95,400.00 404.95,403.27 404.95,408.05"/>
        <lane id=":22_10_1" index="1" speed="13.89" length="16.10" shape="401.65,391.95 401.65,396.73 401.65,400.00 401.65,403.27 401.65,408.05"/>
    </edge>
    <edge id=":22_12" function="internal">
        <lane id=":22_12_0" index="0" speed="13.89" length="6.41" shape="401.65,391.95 401.04,396.19 399.95,398.02"/>
    </edge>
    <edge id=":22_13" function="internal">
        <lane id=":22_13_0" index="0" speed="13.89" length="2.41" shape="401.65,391.95 400.83,393.19 400.00,393.60"/>
    </edge>
    <edge id=":22_20" function="internal">
        <lane id=":22_20_0" index="0" speed="13.89" length="9.23" shape="399.95,398.02 399.22,399.23 396.19,401.04 391.95,401.65"/>
    </edge>
    <edge id=":22_21" function="internal">
        <lane id=":22_21_0" index="0" speed="13.89" length="2.41" shape="400.00,393.60 399.18,393.19 398.35,391.95"/>
    </edge>
    <edge id=":22_14" function="internal">
        <lane id=":22_14_0" index="0" speed="13.89" length="5.00" shape="391.95,395.05 393.31,394.86 394.27,394.28 394.86,393.31 395.05,391.95"/>
    </edge>
    <edge id=":22_15" function="internal">
        <lane id=":22_15_0" index="0" speed="13.89" length="16.10" shape="391.95,398.35 396.73,398.35 400.00,398.35 403.27,398.35 408.05,398.35"/>
    </edge>
    <edge id=":22_16" function="internal">
        <lane id=":22_16_0" index="0" speed="13.89" length="15.64" shape="391.95,398.35 396.19,398.96 399.23,400.78 401.04,403.81 401.65,408.05"/>
    </edge>
    <edge id=":22_17" function="internal">
        <lane id=":22_17_0" index="0" speed="13.89" length="4.82" shape="391.95,398.35 393.19,399.17 393.60,400.00 393.19,400.82 391.95,401.65"/>
    </edge>
    <edge id=":23_0" function="internal">
        <lane id=":23_0_0" index="0" speed="13.89" length="5.00" shape="395.05,608.05 394.86,606.69 394.28,605.73 393.31,605.14 391.95,604.95"/>
    </edge>
    <edge id=":23_1" function="internal">
        <lane id=":23_1_0" index="0" speed="13.89" length="16.10" shape="395.05,608.05 395.05,603.27 395.05,600.00 395.05,596.73 395.05,591.95"/>
        <lane id=":23_1_1" index="1" speed="13.89" length="16.10" shape="398.35,608.05 398.35,603.27 398.35,600.00 398.35,596.73 398.35,591.95"/>
    </edge>
    <edge id=":23_3" function="internal">
        <lane id=":23_3_0" index="0" speed="13.89" length="6.41" shape="398.35,608.05 398.96,603.81 400.05,601.98"/>
    </edge>
    <edge id=":23_4" function="internal">
        <lane id=":23_4_0" index="0" speed="13.89" length="2.41" shape="398.35,608.05 399.17,606.81 400.00,606.40"/>
    </edge>
    <edge id=":23_18" function="internal">
        <lane id=":23_18_0" index="0" speed="13.89" length="9.23" shape="400.05,601.98 400.78,600.77 403.81,598.96 408.05,598.35"/>
    </edge>
    <edge id=":23_19" function="internal">
        <lane id=":23_19_0" index="0" speed="13.89" length="2.41" shape="400.00,606.40 400.82,606.81 401.65,608.05"/>
    </edge>
    <edge id=":23_5" function="internal">
        <lane id=":23_5_0" index="0" speed="13.89" length="5.00" shape="408.05,604.95 406.69,605.14 405.72,605.73 405.14,606.69 404.95,608.05"/>
    </edge>
    <edge id=":23_6" function="internal">
        <lane id=":23_6_0" index="0" speed="13.89" length="16.10" shape="408.05,601.65 403.27,601.65 400.00,601.65 396.73,601.65 391.95,601.65"/>
    </edge>
    <edge id=":23_7" function="internal">
        <lane id=":23_7_0" index="0" speed="13.89" length="15.64" shape="408.05,601.65 403.81,601.04 400.77,599.22 398.96,596.19 398.35,591.95"/>
    </edge>
    <edge id=":23_8" function="internal">
        <lane id=":23_8_0" index="0" speed="13.89" length="4.82" shape="408.05,601.65 406.81,600.82 406.40,600.00 406.81,599.17 408.05,598.35"/>
    </edge>
    <edge id=":23_9" function="internal">
        <lane id=":23_9_0" index="0" speed="13.89" length="5.00" shape="404.95,591.95 405.14,593.31 405.72,594.27 406.69,594.86 408.05,595.05"/>
    </edge>
    <edge id=":23_10" function="internal">
        <lane id=":23_10_0" index="0" speed="13.89" length="16.10" shape="404.95,591.95 404.95,596.73 404.95,600.00 404.95,603.27 404.95,608.05"/>
        <lane id=":23_10_1" index="1" speed="13.89" length="16.10" shape="401.65,591.95 401.65,596.73 401.65,600.00 401.65,603.27 401.65,608.05"/>
    </edge>
    <edge id=":23_12" function="internal">
        <lane id=":23_12_0" index="0" speed="13.89" length="6.41" shape="401.65,591.95 401.04,596.19 399.95,598.02"/>
    </edge>
    <edge id=":23_13" function="internal">
        <lane id=":23_13_0" index="0" speed="13.89" length="2.41" shape="401.65,591.95 400.83,593.19 400.00,593.60"/>
    </edge>
    <edge id=":23_20" function="internal">
        <lane id=":23_20_0" index="0" speed="13.89" length="9.23" shape="399.95,598.02 399.22,599.23 396.19,601.04 391.95,601.65"/>
    </edge>
    <edge id=":23_21" function="internal">
        <lane id=":23_21_0" index="0" speed="13.89" length="2.41" shape="400.00,593.60 399.18,593.19 398.35,591.95"/>
    </edge>
    <edge id=":23_14" function="internal">
        <lane id=":23_14_0" index="0" speed="13.89" length="5.00" shape="391.95,595.05 393.31,594.86 394.27,594.27 394.86,593.31 395.05,591.95"/>
    </edge>
    <edge id=":23_15" function="internal">
        <lane id=":23_15_0" index="0" speed="13.89" length="16.10" shape="391.95,598.35 396.73,598.35 400.00,598.35 403.27,598.35 408.05,598.35"/>
    </edge>
    <edge id=":23_16" function="internal">
        <lane id=":23_16_0" index="0" speed="13.89" length="15.64" shape="391.95,598.35 396.19,598.96 399.23,600.78 401.04,603.81 401.65,608.05"/>
    </edge>
    <edge id=":23_17" function="internal">
        <lane id=":23_17_0" index="0" speed="13.89" length="4.82" shape="391.95,598.35 393.19,599.18 393.60,600.00 393.19,600.83 391.95,601.65"/>
    </edge>
    <edge id=":24_0" function="internal">
        <lane id=":24_0_0" index="0" speed="13.89" length="16.10" shape="408.05,804.95 403.27,804.95 400.00,804.95 396.73,804.95 391.95,804.95"/>
        <lane id=":24_0_1" index="1" speed="13.89" length="16.10" shape="408.05,801.65 403.27,801.65 400.00,801.65 396.73,801.65 391.95,801.65"/>
    </edge>
    <edge id=":24_2" function="internal">
        <lane id=":24_2_0" index="0" speed="13.89" length="6.41" shape="408.05,801.65 403.81,801.04 401.98,799.95"/>
    </edge>
    <edge id=":24_3" function="internal">
        <lane id=":24_3_0" index="0" speed="13.89" length="2.41" shape="408.05,801.65 406.81,800.82 406.40,800.00"/>
    </edge>
    <edge id=":24_11" function="internal">
        <lane id=":24_11_0" index="0" speed="13.89" length="9.23" shape="401.98,799.95 400.77,799.22 398.96,796.19 398.35,791.95"/>
    </edge>
    <edge id=":24_12" function="internal">
        <lane id=":24_12_0" index="0" speed="13.89" length="2.41" shape="406.40,800.00 406.81,799.17 408.05,798.35"/>
    </edge>
    <edge id=":24_4" function="internal">
        <lane id=":24_4_0" index="0" speed="13.89" length="5.00" shape="404.95,791.95 405.14,793.31 405.72,794.27 406.69,794.86 408.05,795.05"/>
    </edge>
    <edge id=":24_5" function="internal">
        <lane id=":24_5_0" index="0" speed="13.89" length="15.64" shape="401.65,791.95 401.04,796.19 399.22,799.23 396.19,801.04 391.95,801.65"/>
    </edge>
    <edge id=":24_6" function="internal">
        <lane id=":24_6_0" index="0" speed="13.89" length="4.82" shape="401.65,791.95 400.83,793.19 400.00,793.60 399.18,793.19 398.35,791.95"/>
    </edge>
    <edge id=":24_7" function="internal">
        <lane id=":24_7_0" index="0" speed="13.89" length="5.00" shape="391.95,795.05 393.31,794.86 394.27,794.27 394.86,793.31 395.05,791.95"/>
    </edge>
    <edge id=":24_8" function="internal">
        <lane id=":24_8_0" index="0" speed="13.89" length="16.10" shape="391.95,795.05 396.73,795.05 400.00,795.05 403.27,795.05 408.05,795.05"/>
        <lane id=":24_8_1" index="1" speed="13.89" length="16.10" shape="391.95,798.35 396.73,798.35 400.00,798.35 403.27,798.35 408.05,798.35"/>
    </edge>
    <edge id=":24_10" function="internal">
        <lane id=":24_10_0" index="0" speed="13.89" length="2.41" shape="391.95,798.35 393.19,799.18 393.60,800.00"/>
    </edge>
    <edge id=":24_13" function="internal">
        <lane id=":24_13_0" index="0" speed="13.89" length="2.41" shape="393.60,800.00 393.19,800.83 391.95,801.65"/>
    </edge>
    <edge id=":31_0" function="internal">
        <lane id=":31_0_0" index="0" speed="13.89" length="5.00" shape="595.05,208.05 594.86,206.69 594.27,205.73 593.31,205.14 591.95,204.95"/>
    </edge>
    <edge id=":31_1" function="internal">
        <lane id=":31_1_0" index="0" speed="13.89" length="15.64" shape="598.35,208.05 598.96,203.81 600.78,200.78 603.81,198.96 608.05,198.35"/>
    </edge>
    <edge id=":31_2" function="internal">
        <lane id=":31_2_0" index="0" speed="13.89" length="4.82" shape="598.35,208.05 599.18,206.81 600.00,206.40 600.83,206.81 601.65,208.05"/>
    </edge>
    <edge id=":31_3" function="internal">
        <lane id=":31_3_0" index="0" speed="13.89" length="5.00" shape="608.05,204.95 606.69,205.14 605.73,205.72 605.14,206.69 604.95,208.05"/>
    </edge>
    <edge id=":31_4" function="internal">
        <lane id=":31_4_0" index="0" speed="13.89" length="16.10" shape="608.05,204.95 603.27,204.95 600.00,204.95 596.73,204.95 591.95,204.95"/>
        <lane id=":31_4_1" index="1" speed="13.89" length="16.10" shape="608.05,201.65 603.27,201.65 600.00,201.65 596.73,201.65 591.95,201.65"/>
    </edge>
    <edge id=":31_6" function="internal">
        <lane id=":31_6_0" index="0" speed="13.89" length="2.41" shape="608.05,201.65 606.81,200.83 606.40,200.00"/>
    </edge>
    <edge id=":31_11" function="internal">
        <lane id=":31_11_0" index="0" speed="13.89" length="2.41" shape="606.40,200.00 606.81,199.18 608.05,198.35"/>
    </edge>
    <edge id=":31_7" function="internal">
        <lane id=":31_7_0" index="0" speed="13.89" length="16.10" shape="591.95,195.05 596.73,195.05 600.00,195.05 603.27,195.05 608.05,195.05"/>
        <lane id=":31_7_1" index="1" speed="13.89" length="16.10" shape="591.95,198.35 596.73,198.35 600.00,198.35 603.27,198.35 608.05,198.35"/>
    </edge>
    <edge id=":31_9" function="internal">
        <lane id=":31_9_0" index="0" speed="13.89" length="6.41" shape="591.95,198.35 596.19,198.96 598.02,200.05"/>
    </edge>
    <edge id=":31_10" function="internal">
        <lane id=":31_10_0" index="0" speed="13.89" length="2.41" shape="591.95,198.35 593.19,199.17 593.60,200.00"/>
    </edge>
    <edge id=":31_12" function="internal">
        <lane id=":31_12_0" index="0" speed="13.89" length="9.23" shape="598.02,200.05 599.23,200.77 601.04,203.81 601.65,208.05"/>
    </edge>
    <edge id=":31_13" function="internal">
        <lane id=":31_13_0" index="0" speed="13.89" length="2.41" shape="593.60,200.00 593.19,200.82 591.95,201.65"/>
    </edge>
    <edge id=":32_0" function="internal">
        <lane id=":32_0_0" index="0" speed="13.89" length="5.00" shape="595.05,408.05 594.86,406.69 594.27,405.73 593.31,405.14 591.95,404.95"/>
    </edge>
    <edge id=":32_1" function="internal">
        <lane id=":32_1_0" index="0" speed="13.89" length="16.10" shape="595.05,408.05 595.05,403.27 595.05,400.00 595.05,396.73 595.05,391.95"/>
        <lane id=":32_1_1" index="1" speed="13.89" length="16.10" shape="598.35,408.05 598.35,403.27 598.35,400.00 598.35,396.73 598.35,391.95"/>
    </edge>
    <edge id=":32_3" function="internal">
        <lane id=":32_3_0" index="0" speed="13.89" length="6.41" shape="598.35,408.05 598.96,403.81 600.05,401.98"/>
    </edge>
    <edge id=":32_4" function="internal">
        <lane id=":32_4_0" index="0" speed="13.89" length="2.41" shape="598.35,408.05 599.18,406.81 600.00,406.40"/>
    </edge>
    <edge id=":32_18" function="internal">
        <lane id=":32_18_0" index="0" speed="13.89" length="9.23" shape="600.05,401.98 600.78,400.77 603.81,398.96 608.05,398.35"/>
    </edge>
    <edge id=":32_19" function="internal">
        <lane id=":32_19_0" index="0" speed="13.89" length="2.41" shape="600.00,406.40 600.83,406.81 601.65,408.05"/>
    </edge>
    <edge id=":32_5" function="internal">
        <lane id=":32_5_0" index="0" speed="13.89" length="5.00" shape="608.05,404.95 606.69,405.14 605.73,405.72 605.14,406.69 604.95,408.05"/>
    </edge>
    <edge id=":32_6" function="internal">
        <lane id=":32_6_0" index="0" speed="13.89" length="16.10" shape="608.05,401.65 603.27,401.65 600.00,401.65 596.73,401.65 591.95,401.65"/>
    </edge>
    <edge id=":32_7" function="internal">
        <lane id=":32_7_0" index="0" speed="13.89" length="15.64" shape="608.05,401.65 603.81,401.04 600.77,399.22 598.96,396.19 598.35,391.95"/>
    </edge>
    <edge id=":32_8" function="internal">
        <lane id=":32_8_0" index="0" speed="13.89" length="4.82" shape="608.05,401.65 606.81,400.83 606.40,400.00 606.81,399.18 608.05,398.35"/>
    </edge>
    <edge id=":32_9" function="internal">
        <lane id=":32_9_0" index="0" speed="13.89" length="5.00" shape="604.95,391.95 605.14,393.31 605.73,394.27 606.69,394.86 608.05,395.05"/>
    </edge>
    <edge id=":32_10" function="internal">
        <lane id=":32_10_0" index="0" speed="13.89" length="16.10" shape="604.95,391.95 604.95,396.73 604.95,400.00 604.95,403.27 604.95,408.05"/>
        <lane id=":32_10_1" index="1" speed="13.89" length="16.10" shape="601.65,391.95 601.65,396.73 601.65,400.00 601.65,403.27 601.65,408.05"/>
    </edge>
    <edge id=":32_12" function="internal">
        <lane id=":32_12_0" index="0" speed="13.89" length="6.41" shape="601.65,391.95 601.04,396.19 599.95,398.02"/>
    </edge>
    <edge id=":32_13" function="internal">
        <lane id=":32_13_0" index="0" speed="13.89" length="2.41" shape="601.65,391.95 600.82,393.19 600.00,393.60"/>
    </edge>
    <edge id=":32_20" function="internal">
        <lane id=":32_20_0" index="0" speed="13.89" length="9.23" shape="599.95,398.02 599.22,399.23 596.19,401.04 591.95,401.65"/>
    </edge>
    <edge id=":32_21" function="internal">
        <lane id=":32_21_0" index="0" speed="13.89" length="2.41" shape="600.00,393.60 599.17,393.19 598.35,391.95"/>
    </edge>
    <edge id=":32_14" function="internal">
        <lane id=":32_14_0" index="0" speed="13.89" length="5.00" shape="591.95,395.05 593.31,394.86 594.27,394.28 594.86,393.31 595.05,391.95"/>
    </edge>
    <edge id=":32_15" function="internal">
        <lane id=":32_15_0" index="0" speed="13.89" length="16.10" shape="591.95,398.35 596.73,398.35 600.00,398.35 603.27,398.35 608.05,398.35"/>
    </edge>
    <edge id=":32_16" function="internal">
        <lane id=":32_16_0" index="0" speed="13.89" length="15.64" shape="591.95,398.35 596.19,398.96 599.23,400.78 601.04,403.81 601.65,408.05"/>
    </edge>
    <edge id=":32_17" function="internal">