<?xml version="1.0" encoding="UTF-8"?>

<!-- generated on Wed Oct  4 13:27:42 2017 by SUMO netconvert Version dev-SVN-r26311
This data file and the accompanying materials
are made available under the terms of the Eclipse Public License v2.0
which accompanies this distribution, and is available at
http://www.eclipse.org/legal/epl-v20.html
SPDX-License-Identifier: EPL-2.0
<configuration xmlns:xsi="http://www.w3.org/2001/XMLSchema-instance" xsi:noNamespaceSchemaLocation="http://sumo.dlr.de/xsd/netconvertConfiguration.xsd">

    <input>
        <node-files value="input_plain.nod.xml"/>
        <edge-files value="input_plain.edg.xml"/>
    </input>

    <output>
        <output-file value="net.net.xml"/>
    </output>

    <processing>
        <lefthand value="true"/>
    </processing>

    <report>
        <xml-validation value="never"/>
    </report>

</configuration>
-->

<net version="0.27" lefthand="true" xmlns:xsi="http://www.w3.org/2001/XMLSchema-instance" xsi:noNamespaceSchemaLocation="http://sumo.dlr.de/xsd/net_file.xsd">

    <location netOffset="100.00,100.00" convBoundary="0.00,-0.00,200.00,200.00" origBoundary="-10000000000.00,-10000000000.00,10000000000.00,10000000000.00" projParameter="!"/>

    <edge id=":C_0" function="internal">
        <lane id=":C_0_0" index="0" speed="13.89" length="5.00" shape="95.05,91.95 94.86,93.31 94.28,94.28 93.31,94.86 91.95,95.05"/>
    </edge>
    <edge id=":C_1" function="internal">
        <lane id=":C_1_0" index="0" speed="13.89" length="16.10" shape="95.05,91.95 95.05,108.05"/>
        <lane id=":C_1_1" index="1" speed="13.89" length="16.10" shape="98.35,91.95 98.35,108.05"/>
    </edge>
    <edge id=":C_3" function="internal">
        <lane id=":C_3_0" index="0" speed="13.89" length="6.41" shape="98.35,91.95 98.96,96.19 100.05,98.02"/>
    </edge>
    <edge id=":C_4" function="internal">
        <lane id=":C_4_0" index="0" speed="13.89" length="2.41" shape="98.35,91.95 99.18,93.19 100.00,93.60"/>
    </edge>
    <edge id=":C_20" function="internal">
        <lane id=":C_20_0" index="0" speed="13.89" length="9.23" shape="100.05,98.02 100.77,99.22 103.81,101.04 108.05,101.65"/>
    </edge>
    <edge id=":C_21" function="internal">
        <lane id=":C_21_0" index="0" speed="13.89" length="2.41" shape="100.00,93.60 100.83,93.19 101.65,91.95"/>
    </edge>
    <edge id=":C_5" function="internal">
        <lane id=":C_5_0" index="0" speed="13.89" length="5.00" shape="108.05,95.05 106.69,94.86 105.72,94.28 105.14,93.31 104.95,91.95"/>
    </edge>
    <edge id=":C_6" function="internal">
        <lane id=":C_6_0" index="0" speed="13.89" length="16.10" shape="108.05,95.05 91.95,95.05"/>
        <lane id=":C_6_1" index="1" speed="13.89" length="16.10" shape="108.05,98.35 91.95,98.35"/>
    </edge>
    <edge id=":C_8" function="internal">
        <lane id=":C_8_0" index="0" speed="13.89" length="6.41" shape="108.05,98.35 103.81,98.96 101.98,100.05"/>
    </edge>
    <edge id=":C_9" function="internal">
        <lane id=":C_9_0" index="0" speed="13.89" length="2.41" shape="108.05,98.35 106.81,99.18 106.40,100.00"/>
    </edge>
    <edge id=":C_22" function="internal">
        <lane id=":C_22_0" index="0" speed="13.89" length="9.23" shape="101.98,100.05 100.78,100.77 98.96,103.81 98.35,108.05"/>
    </edge>
    <edge id=":C_23" function="internal">
        <lane id=":C_23_0" index="0" speed="13.89" length="2.41" shape="106.40,100.00 106.81,100.83 108.05,101.65"/>
    </edge>
    <edge id=":C_10" function="internal">
        <lane id=":C_10_0" index="0" speed="13.89" length="5.00" shape="104.95,108.05 105.14,106.69 105.72,105.72 106.69,105.14 108.05,104.95"/>
    </edge>
    <edge id=":C_11" function="internal">
        <lane id=":C_11_0" index="0" speed="13.89" length="16.10" shape="104.95,108.05 104.95,91.95"/>
        <lane id=":C_11_1" index="1" speed="13.89" length="16.10" shape="101.65,108.05 101.65,91.95"/>
    </edge>
    <edge id=":C_13" function="internal">
        <lane id=":C_13_0" index="0" speed="13.89" length="6.41" shape="101.65,108.05 101.04,103.81 99.95,101.98"/>
    </edge>
    <edge id=":C_14" function="internal">
        <lane id=":C_14_0" index="0" speed="13.89" length="2.41" shape="101.65,108.05 100.82,106.81 100.00,106.40"/>
    </edge>
    <edge id=":C_24" function="internal">
        <lane id=":C_24_0" index="0" speed="13.89" length="9.23" shape="99.95,101.98 99.23,100.78 96.19,98.96 91.95,98.35"/>
    </edge>
    <edge id=":C_25" function="internal">
        <lane id=":C_25_0" index="0" speed="13.89" length="2.41" shape="100.00,106.40 99.17,106.81 98.35,108.05"/>
    </edge>
    <edge id=":C_15" function="internal">
        <lane id=":C_15_0" index="0" speed="13.89" length="5.00" shape="91.95,104.95 93.31,105.14 94.28,105.72 94.86,106.69 95.05,108.05"/>
    </edge>
    <edge id=":C_16" function="internal">
        <lane id=":C_16_0" index="0" speed="13.89" length="16.10" shape="91.95,104.95 108.05,104.95"/>
        <lane id=":C_16_1" index="1" speed="13.89" length="16.10" shape="91.95,101.65 108.05,101.65"/>
    </edge>
    <edge id=":C_18" function="internal">
        <lane id=":C_18_0" index="0" speed="13.89" length="6.41" shape="91.95,101.65 96.19,101.04 98.02,99.95"/>
    </edge>
    <edge id=":C_19" function="internal">
        <lane id=":C_19_0" index="0" speed="13.89" length="2.41" shape="91.95,101.65 93.19,100.82 93.60,100.00"/>
    </edge>
    <edge id=":C_26" function="internal">
        <lane id=":C_26_0" index="0" speed="13.89" length="9.23" shape="98.02,99.95 99.22,99.23 101.04,96.19 101.65,91.95"/>
    </edge>
    <edge id=":C_27" function="internal">
        <lane id=":C_27_0" index="0" speed="13.89" length="2.41" shape="93.60,100.00 93.19,99.17 91.95,98.35"/>
    </edge>
    <edge id=":E_0" function="internal">
        <lane id=":E_0_0" index="0" speed="13.89" length="4.82" shape="200.00,101.65 201.24,100.82 201.65,100.00 201.24,99.17 200.00,98.35"/>
    </edge>
    <edge id=":N_0" function="internal">
        <lane id=":N_0_0" index="0" speed="13.89" length="4.82" shape="98.35,200.00 99.18,201.24 100.00,201.65 100.83,201.24 101.65,200.00"/>
    </edge>
    <edge id=":S_0" function="internal">
        <lane id=":S_0_0" index="0" speed="13.89" length="4.82" shape="101.65,-0.00 100.82,-1.24 100.00,-1.65 99.17,-1.24 98.35,-0.00"/>
    </edge>
    <edge id=":W_0" function="internal">
        <lane id=":W_0_0" index="0" speed="13.89" length="4.82" shape="0.00,98.35 -1.24,99.18 -1.65,100.00 -1.24,100.83 0.00,101.65"/>
    </edge>

    <edge id="CE" from="C" to="E" priority="2">
        <lane id="CE_0" index="0" speed="13.89" length="91.95" shape="108.05,104.95 200.00,104.95"/>
        <lane id="CE_1" index="1" speed="13.89" length="91.95" shape="108.05,101.65 200.00,101.65"/>
    </edge>
    <edge id="CN" from="C" to="N" priority="3">
        <lane id="CN_0" index="0" speed="13.89" length="91.95" shape="95.05,108.05 95.05,200.00"/>
        <lane id="CN_1" index="1" speed="13.89" length="91.95" shape="98.35,108.05 98.35,200.00"/>
    </edge>
    <edge id="CS" from="C" to="S" priority="3">
        <lane id="CS_0" index="0" speed="13.89" length="91.95" shape="104.95,91.95 104.95,-0.00"/>
        <lane id="CS_1" index="1" speed="13.89" length="91.95" shape="101.65,91.95 101.65,-0.00"/>
    </edge>
    <edge id="CW" from="C" to="W" priority="2">
        <lane id="CW_0" index="0" speed="13.89" length="91.95" shape="91.95,95.05 0.00,95.05"/>
        <lane id="CW_1" index="1" speed="13.89" length="91.95" shape="91.95,98.35 0.00,98.35"/>
    </edge>
    <edge id="EC" from="E" to="C" priority="2">
        <lane id="EC_0" index="0" speed="13.89" length="91.95" shape="200.00,95.05 108.05,95.05"/>
        <lane id="EC_1" index="1" speed="13.89" length="91.95" shape="200.00,98.35 108.05,98.35"/>
    </edge>
    <edge id="NC" from="N" to="C" priority="3">
        <lane id="NC_0" index="0" speed="13.89" length="91.95" shape="104.95,200.00 104.95,108.05"/>
        <lane id="NC_1" index="1" speed="13.89" length="91.95" shape="101.65,200.00 101.65,108.05"/>
    </edge>
    <edge id="SC" from="S" to="C" priority="3">
        <lane id="SC_0" index="0" speed="13.89" length="91.95" shape="95.05,-0.00 95.05,91.95"/>
        <lane id="SC_1" index="1" speed="13.89" length="91.95" shape="98.35,-0.00 98.35,91.95"/>
    </edge>
    <edge id="WC" from="W" to="C" priority="2">
        <lane id="WC_0" index="0" speed="13.89" length="91.95" shape="0.00,104.95 91.95,104.95"/>
        <lane id="WC_1" index="1" speed="13.89" length="91.95" shape="0.00,101.65 91.95,101.65"/>
    </edge>

    <tlLogic id="C" type="static" programID="0" offset="0">
        <phase duration="33" state="GGGggrrrrrGGGggrrrrr"/>
        <phase duration="3" state="yyyggrrrrryyyggrrrrr"/>
        <phase duration="6" state="rrrGGrrrrrrrrGGrrrrr"/>
        <phase duration="3" state="rrryyrrrrrrrryyrrrrr"/>
        <phase duration="33" state="rrrrrGGGggrrrrrGGGgg"/>
        <phase duration="3" state="rrrrryyyggrrrrryyygg"/>
        <phase duration="6" state="rrrrrrrrGGrrrrrrrrGG"/>
        <phase duration="3" state="rrrrrrrryyrrrrrrrryy"/>
    </tlLogic>

    <junction id="C" type="traffic_light" x="100.00" y="100.00" incLanes="SC_0 SC_1 EC_0 EC_1 NC_0 NC_1 WC_0 WC_1" intLanes=":C_0_0 :C_1_0 :C_1_1 :C_20_0 :C_21_0 :C_5_0 :C_6_0 :C_6_1 :C_22_0 :C_23_0 :C_10_0 :C_11_0 :C_11_1 :C_24_0 :C_25_0 :C_15_0 :C_16_0 :C_16_1 :C_26_0 :C_27_0" shape="93.45,91.95 106.55,91.95 108.05,93.45 108.05,106.55 106.55,108.05 93.45,108.05 91.95,106.55 91.95,93.45">
        <request index="0" response="00000000000000000000" foes="10000010000011001100" cont="0"/>
        <request index="1" response="00000000000000000000" foes="01111110000111000000" cont="0"/>
        <request index="2" response="00000000000000000000" foes="01111110000111000000" cont="0"/>
        <request index="3" response="00000001110000000000" foes="01110001111111000011" cont="1"/>
        <request index="4" response="01000001100000100000" foes="01000001100000100000" cont="1"/>
        <request index="5" response="00000001100000000000" foes="01000001100110010000" cont="0"/>
        <request index="6" response="00000011100000001111" foes="11000011100000001111" cont="0"/>
        <request index="7" response="00000011100000001111" foes="11000011100000001111" cont="0"/>
        <request index="8" response="00111011100000001110" foes="00111111100001101110" cont="1"/>
        <request index="9" response="00110000010000001000" foes="00110000010000001000" cont="1"/>
        <request index="10" response="00000000000000000000" foes="00110011001000001000" cont="0"/>
        <request index="11" response="00000000000000000000" foes="01110000000111111000" cont="0"/>
        <request index="12" response="00000000000000000000" foes="01110000000111111000" cont="0"/>
        <request index="13" response="00000000000000000111" foes="11110000110111000111" cont="1"/>
        <request index="14" response="00001000000100000110" foes="00001000000100000110" cont="1"/>
        <request index="15" response="00000000000000000110" foes="01100100000100000110" cont="0"/>
        <request index="16" response="00000011110000001110" foes="00000011111100001110" cont="0"/>
        <request index="17" response="00000011110000001110" foes="00000011111100001110" cont="0"/>
        <request index="18" response="00000011100011101110" foes="00011011100011111110" cont="1"/>
        <request index="19" response="00000010000011000001" foes="00000010000011000001" cont="1"/>
    </junction>
    <junction id="E" type="priority" x="200.00" y="100.00" incLanes="CE_0 CE_1" intLanes=":E_0_0" shape="200.00,99.95 200.00,106.55 200.00,100.05">
        <request index="0" response="0" foes="0" cont="0"/>
    </junction>
    <junction id="N" type="priority" x="100.00" y="200.00" incLanes="CN_0 CN_1" intLanes=":N_0_0" shape="100.05,200.00 93.45,200.00 99.95,200.00">
        <request index="0" response="0" foes="0" cont="0"/>
    </junction>
    <junction id="S" type="priority" x="100.00" y="-0.00" incLanes="CS_0 CS_1" intLanes=":S_0_0" shape="99.95,-0.00 106.55,-0.00 100.05,-0.00">
        <request index="0" response="0" foes="0" cont="0"/>
    </junction>
    <junction id="W" type="priority" x="0.00" y="100.00" incLanes="CW_0 CW_1" intLanes=":W_0_0" shape="0.00,100.05 0.00,93.45 0.00,99.95">
        <request index="0" response="0" foes="0" cont="0"/>
    </junction>

    <junction id=":C_20_0" type="internal" x="100.05" y="98.02" incLanes=":C_3_0 NC_0 NC_1" intLanes=":C_6_0 :C_6_1 :C_8_0 :C_9_0 :C_10_0 :C_11_0 :C_11_1 :C_16_0 :C_16_1 :C_18_0"/>
    <junction id=":C_21_0" type="internal" x="100.00" y="93.60" incLanes=":C_4_0 EC_0 NC_0 NC_1 WC_1" intLanes=":C_5_0 :C_11_0 :C_11_1 :C_18_0"/>
    <junction id=":C_22_0" type="internal" x="101.98" y="100.05" incLanes=":C_8_0 WC_0 WC_1" intLanes=":C_1_0 :C_1_1 :C_3_0 :C_11_0 :C_11_1 :C_13_0 :C_14_0 :C_15_0 :C_16_0 :C_16_1"/>
    <junction id=":C_23_0" type="internal" x="106.40" y="100.00" incLanes=":C_9_0 NC_0 SC_1 WC_0 WC_1" intLanes=":C_3_0 :C_10_0 :C_16_0 :C_16_1"/>
    <junction id=":C_24_0" type="internal" x="99.95" y="101.98" incLanes=":C_13_0 SC_0 SC_1" intLanes=":C_0_0 :C_1_0 :C_1_1 :C_6_0 :C_6_1 :C_8_0 :C_16_0 :C_16_1 :C_18_0 :C_19_0"/>
    <junction id=":C_25_0" type="internal" x="100.00" y="106.40" incLanes=":C_14_0 EC_1 SC_0 SC_1 WC_0" intLanes=":C_1_0 :C_1_1 :C_8_0 :C_15_0"/>
    <junction id=":C_26_0" type="internal" x="98.02" y="99.95" incLanes=":C_18_0 EC_0 EC_1" intLanes=":C_1_0 :C_1_1 :C_3_0 :C_4_0 :C_5_0 :C_6_0 :C_6_1 :C_11_0 :C_11_1 :C_13_0"/>
    <junction id=":C_27_0" type="internal" x="93.60" y="100.00" incLanes=":C_19_0 EC_0 EC_1 NC_1 SC_0" intLanes=":C_0_0 :C_6_0 :C_6_1 :C_13_0"/>

    <connection from="CE" to="EC" fromLane="1" toLane="1" via=":E_0_0" dir="T" state="M"/>
    <connection from="CN" to="NC" fromLane="1" toLane="1" via=":N_0_0" dir="T" state="M"/>
    <connection from="CS" to="SC" fromLane="1" toLane="1" via=":S_0_0" dir="T" state="M"/>
    <connection from="CW" to="WC" fromLane="1" toLane="1" via=":W_0_0" dir="T" state="M"/>
    <connection from="EC" to="CS" fromLane="0" toLane="0" via=":C_5_0" tl="C" linkIndex="5" dir="l" state="o"/>
    <connection from="EC" to="CW" fromLane="0" toLane="0" via=":C_6_0" tl="C" linkIndex="6" dir="s" state="o"/>
    <connection from="EC" to="CW" fromLane="1" toLane="1" via=":C_6_1" tl="C" linkIndex="7" dir="s" state="o"/>
    <connection from="EC" to="CN" fromLane="1" toLane="1" via=":C_8_0" tl="C" linkIndex="8" dir="r" state="o"/>
    <connection from="EC" to="CE" fromLane="1" toLane="1" via=":C_9_0" tl="C" linkIndex="9" dir="T" state="o"/>
    <connection from="NC" to="CE" fromLane="0" toLane="0" via=":C_10_0" tl="C" linkIndex="10" dir="l" state="o"/>
    <connection from="NC" to="CS" fromLane="0" toLane="0" via=":C_11_0" tl="C" linkIndex="11" dir="s" state="o"/>
    <connection from="NC" to="CS" fromLane="1" toLane="1" via=":C_11_1" tl="C" linkIndex="12" dir="s" state="o"/>
    <connection from="NC" to="CW" fromLane="1" toLane="1" via=":C_13_0" tl="C" linkIndex="13" dir="r" state="o"/>
    <connection from="NC" to="CN" fromLane="1" toLane="1" via=":C_14_0" tl="C" linkIndex="14" dir="T" state="o"/>
    <connection from="SC" to="CW" fromLane="0" toLane="0" via=":C_0_0" tl="C" linkIndex="0" dir="l" state="o"/>
    <connection from="SC" to="CN" fromLane="0" toLane="0" via=":C_1_0" tl="C" linkIndex="1" dir="s" state="o"/>
    <connection from="SC" to="CN" fromLane="1" toLane="1" via=":C_1_1" tl="C" linkIndex="2" dir="s" state="o"/>
    <connection from="SC" to="CE" fromLane="1" toLane="1" via=":C_3_0" tl="C" linkIndex="3" dir="r" state="o"/>
    <connection from="SC" to="CS" fromLane="1" toLane="1" via=":C_4_0" tl="C" linkIndex="4" dir="T" state="o"/>
    <connection from="WC" to="CN" fromLane="0" toLane="0" via=":C_15_0" tl="C" linkIndex="15" dir="l" state="o"/>
    <connection from="WC" to="CE" fromLane="0" toLane="0" via=":C_16_0" tl="C" linkIndex="16" dir="s" state="o"/>
    <connection from="WC" to="CE" fromLane="1" toLane="1" via=":C_16_1" tl="C" linkIndex="17" dir="s" state="o"/>
    <connection from="WC" to="CS" fromLane="1" toLane="1" via=":C_18_0" tl="C" linkIndex="18" dir="r" state="o"/>
    <connection from="WC" to="CW" fromLane="1" toLane="1" via=":C_19_0" tl="C" linkIndex="19" dir="T" state="o"/>

    <connection from=":C_0" to="CW" fromLane="0" toLane="0" dir="l" state="M"/>
    <connection from=":C_1" to="CN" fromLane="0" toLane="0" dir="s" state="M"/>
    <connection from=":C_1" to="CN" fromLane="1" toLane="1" dir="s" state="M"/>
    <connection from=":C_3" to="CE" fromLane="0" toLane="1" via=":C_20_0" dir="r" state="m"/>
    <connection from=":C_20" to="CE" fromLane="0" toLane="1" dir="r" state="M"/>
    <connection from=":C_4" to="CS" fromLane="0" toLane="1" via=":C_21_0" dir="T" state="m"/>
    <connection from=":C_21" to="CS" fromLane="0" toLane="1" dir="T" state="M"/>
    <connection from=":C_5" to="CS" fromLane="0" toLane="0" dir="l" state="M"/>
    <connection from=":C_6" to="CW" fromLane="0" toLane="0" dir="s" state="M"/>
    <connection from=":C_6" to="CW" fromLane="1" toLane="1" dir="s" state="M"/>
    <connection from=":C_8" to="CN" fromLane="0" toLane="1" via=":C_22_0" dir="r" state="m"/>
    <connection from=":C_22" to="CN" fromLane="0" toLane="1" dir="r" state="M"/>
    <connection from=":C_9" to="CE" fromLane="0" toLane="1" via=":C_23_0" dir="T" state="m"/>
    <connection from=":C_23" to="CE" fromLane="0" toLane="1" dir="T" state="M"/>
    <connection from=":C_10" to="CE" fromLane="0" toLane="0" dir="l" state="M"/>
    <connection from=":C_11" to="CS" fromLane="0" toLane="0" dir="s" state="M"/>
    <connection from=":C_11" to="CS" fromLane="1" toLane="1" dir="s" state="M"/>
    <connection from=":C_13" to="CW" fromLane="0" toLane="1" via=":C_24_0" dir="r" state="m"/>
    <connection from=":C_24" to="CW" fromLane="0" toLane="1" dir="r" state="M"/>
    <connection from=":C_14" to="CN" fromLane="0" toLane="1" via=":C_25_0" dir="T" state="m"/>
    <connection from=":C_25" to="CN" fromLane="0" toLane="1" dir="T" state="M"/>
    <connection from=":C_15" to="CN" fromLane="0" toLane="0" dir="l" state="M"/>
    <connection from=":C_16" to="CE" fromLane="0" toLane="0" dir="s" state="M"/>
    <connection from=":C_16" to="CE" fromLane="1" toLane="1" dir="s" state="M"/>
    <connection from=":C_18" to="CS" fromLane="0" toLane="1" via=":C_26_0" dir="r" state="m"/>
    <connection from=":C_26" to="CS" fromLane="0" toLane="1" dir="r" state="M"/>
    <connection from=":C_19" to="CW" fromLane="0" toLane="1" via=":C_27_0" dir="T" state="m"/>
    <connection from=":C_27" to="CW" fromLane="0" toLane="1" dir="T" state="M"/>
    <connection from=":E_0" to="EC" fromLane="0" toLane="1" dir="T" state="M"/>
    <connection from=":N_0" to="NC" fromLane="0" toLane="1" dir="T" state="M"/>
    <connection from=":S_0" to="SC" fromLane="0" toLane="1" dir="T" state="M"/>
    <connection from=":W_0" to="WC" fromLane="0" toLane="1" dir="T" state="M"/>

</net>
