<?xml version="1.0" encoding="UTF-8"?>

<!-- generated on 19.10.2017 15:25:38 by Netedit Version dev-SVN-r22737
<?xml version="1.0" encoding="UTF-8"?>

<configuration xmlns:xsi="http://www.w3.org/2001/XMLSchema-instance" xsi:noNamespaceSchemaLocation="http://sumo.dlr.de/xsd/netconvertConfiguration.xsd">

    <input>
        <sumo-net-file value="C:/Users/alva_pa/.texttest/tmp/netedit.gui.19Oct133808.4976/netedit.gui/bugs/revision24081\input_net.net.xml"/>
    </input>

    <output>
        <additionals-output value="C:/Users/alva_pa/.texttest/tmp/netedit.gui.19Oct133808.4976/netedit.gui/bugs/revision24081\additionals.xml"/>
        <shapes-output value="C:/Users/alva_pa/.texttest/tmp/netedit.gui.19Oct133808.4976/netedit.gui/bugs/revision24081\shapes.xml"/>
        <output-file value="C:/Users/alva_pa/.texttest/tmp/netedit.gui.19Oct133808.4976/netedit.gui/bugs/revision24081\net.net.xml"/>
    </output>

    <processing>
        <no-turnarounds value="true"/>
        <offset.disable-normalization value="true"/>
        <lefthand value="false"/>
        <junctions.corner-detail value="0"/>
        <rectangular-lane-cut value="false"/>
        <walkingareas value="false"/>
    </processing>

    <visualisation>
        <window-size value="700,500"/>
        <window-pos value="50,50"/>
        <gui-testing value="true"/>
        <gui-testing-debug value="true"/>
    </visualisation>

    <report>
        <no-warnings value="true"/>
        <error-log value="C:/Users/alva_pa/.texttest/tmp/netedit.gui.19Oct133808.4976/netedit.gui/bugs/revision24081\log.txt"/>
    </report>

</configuration>
-->

<net version="0.27" xmlns:xsi="http://www.w3.org/2001/XMLSchema-instance" xsi:noNamespaceSchemaLocation="http://sumo.dlr.de/xsd/net_file.xsd">

    <location netOffset="0.00,0.00" convBoundary="-50.00,-50.00,50.00,50.00" origBoundary="-10000000000.00,-10000000000.00,10000000000.00,10000000000.00" projParameter="!"/>

    <edge id=":gneJ6_0" function="internal">
        <lane id=":gneJ6_0_0" index="0" speed="13.89" length="22.10" shape="31.08,41.54 28.04,45.96 23.97,49.12 18.88,51.02 12.77,51.65"/>
    </edge>
    <edge id=":gneJ6_1" function="internal">
        <lane id=":gneJ6_1_0" index="0" speed="13.89" length="10.65" shape="31.08,41.54 27.96,45.81 24.07,47.74 23.05,47.65"/>
    </edge>
    <edge id=":gneJ6_2" function="internal">
        <lane id=":gneJ6_2_0" index="0" speed="13.89" length="10.39" shape="31.08,41.54 27.97,46.41 25.24,47.85 24.08,46.87"/>
    </edge>
    <edge id=":gneJ6_12" function="internal">
        <lane id=":gneJ6_12_0" index="0" speed="13.89" length="9.81" shape="23.05,47.65 19.38,47.33 13.91,44.59"/>
    </edge>
    <edge id=":gneJ6_13" function="internal">
        <lane id=":gneJ6_13_0" index="0" speed="13.89" length="7.35" shape="24.08,46.87 22.88,45.86 20.90,40.42"/>
    </edge>
    <edge id=":gneJ6_3" function="internal">
        <lane id=":gneJ6_3_0" index="0" speed="13.89" length="7.01" shape="24.11,39.62 24.89,41.77 25.82,42.56 26.90,41.99 28.12,40.06"/>
    </edge>
    <edge id=":gneJ6_4" function="internal">
        <lane id=":gneJ6_4_0" index="0" speed="13.89" length="20.08" shape="24.11,39.62 24.53,44.88 22.77,48.64 18.85,50.90 12.77,51.65"/>
    </edge>
    <edge id=":gneJ6_5" function="internal">
        <lane id=":gneJ6_5_0" index="0" speed="13.89" length="18.93" shape="24.11,39.62 24.79,45.23 23.32,47.92 19.69,47.71 13.91,44.59"/>
    </edge>
    <edge id=":gneJ6_6" function="internal">
        <lane id=":gneJ6_6_0" index="0" speed="13.89" length="8.60" shape="15.74,41.84 18.54,43.41 20.34,43.70 21.13,42.70 20.90,40.42"/>
    </edge>
    <edge id=":gneJ6_7" function="internal">
        <lane id=":gneJ6_7_0" index="0" speed="13.89" length="14.65" shape="15.74,41.84 19.74,43.89 23.15,44.27 25.94,43.00 28.12,40.06"/>
    </edge>
    <edge id=":gneJ6_8" function="internal">
        <lane id=":gneJ6_8_0" index="0" speed="13.89" length="20.33" shape="15.74,41.84 21.07,46.13 22.35,49.20 19.58,51.04 12.77,51.65"/>
    </edge>
    <edge id=":gneJ6_9" function="internal">
        <lane id=":gneJ6_9_0" index="0" speed="13.89" length="7.80" shape="12.77,48.35 15.38,48.11 16.44,47.41 15.95,46.23 13.91,44.59"/>
    </edge>
    <edge id=":gneJ6_10" function="internal">
        <lane id=":gneJ6_10_0" index="0" speed="13.89" length="13.76" shape="12.77,48.35 17.07,47.85 19.86,46.37 21.14,43.89 20.90,40.42"/>
    </edge>
    <edge id=":gneJ6_11" function="internal">
        <lane id=":gneJ6_11_0" index="0" speed="13.89" length="18.43" shape="12.77,48.35 17.93,47.83 22.21,46.28 25.61,43.69 28.12,40.06"/>
    </edge>

    <edge id="-gneE3" from="gneJ6" to="gneJ5" priority="1">
        <lane id="-gneE3_0" index="0" speed="13.89" length="77.90" shape="13.91,44.59 -50.92,1.37"/>
    </edge>
    <edge id="-gneE4" from="gneJ7" to="gneJ6" priority="1">
        <lane id="-gneE4_0" index="0" speed="13.89" length="92.79" shape="1.60,-50.40 24.11,39.62"/>
    </edge>
    <edge id="-gneE5" from="gneJ6" to="gneJ8" priority="1">
        <lane id="-gneE5_0" index="0" speed="13.89" length="45.62" shape="28.12,40.06 48.52,-0.74"/>
    </edge>
    <edge id="-gneE6" from="gneJ9" to="gneJ6" priority="1">
        <lane id="-gneE6_0" index="0" speed="13.89" length="12.77" shape="0.00,48.35 12.77,48.35"/>
    </edge>
    <edge id="gneE3" from="gneJ5" to="gneJ6" priority="1">
        <lane id="gneE3_0" index="0" speed="13.89" length="77.90" shape="-49.08,-1.37 15.74,41.84"/>
    </edge>
    <edge id="gneE4" from="gneJ6" to="gneJ7" priority="1">
        <lane id="gneE4_0" index="0" speed="13.89" length="92.79" shape="20.90,40.42 -1.60,-49.60"/>
    </edge>
    <edge id="gneE5" from="gneJ8" to="gneJ6" priority="1">
        <lane id="gneE5_0" index="0" speed="13.89" length="45.62" shape="51.48,0.74 31.08,41.54"/>
    </edge>
    <edge id="gneE6" from="gneJ6" to="gneJ9" priority="1">
        <lane id="gneE6_0" index="0" speed="13.89" length="12.77" shape="12.77,51.65 0.00,51.65"/>
    </edge>

    <junction id="gneJ5" type="dead_end" x="-50.00" y="0.00" incLanes="-gneE3_0" intLanes="" shape="-49.97,-0.04 -51.80,2.70 -50.03,0.04"/>
    <junction id="gneJ6" type="priority" x="25.00" y="50.00" incLanes="gneE5_0 -gneE4_0 gneE3_0 -gneE6_0" intLanes=":gneJ6_0_0 :gneJ6_12_0 :gneJ6_13_0 :gneJ6_3_0 :gneJ6_4_0 :gneJ6_5_0 :gneJ6_6_0 :gneJ6_7_0 :gneJ6_8_0 :gneJ6_9_0 :gneJ6_10_0 :gneJ6_11_0" shape="32.51,42.25 26.69,39.35 25.66,39.23 19.35,40.81 16.62,40.51 13.02,45.92 12.77,46.75 12.77,53.25">
        <request index="0" response="000000000000" foes="000100010000" cont="0"/>
        <request index="1" response="111000000000" foes="111100110000" cont="1"/>
        <request index="2" response="110000000000" foes="110011110000" cont="1"/>
        <request index="3" response="100000000000" foes="100010000000" cont="0"/>
        <request index="4" response="100000000111" foes="100110000111" cont="0"/>
        <request index="5" response="011000000110" foes="011110000110" cont="0"/>
        <request index="6" response="010000000100" foes="010000000100" cont="0"/>
        <request index="7" response="110000111100" foes="110000111100" cont="0"/>
        <request index="8" response="110000110011" foes="110000110011" cont="0"/>
        <request index="9" response="000000000000" foes="000000100010" cont="0"/>
        <request index="10" response="000000000000" foes="000111100110" cont="0"/>
        <request index="11" response="000000000000" foes="000110011110" cont="0"/>
    </junction>
    <junction id="gneJ7" type="dead_end" x="0.00" y="-50.00" incLanes="gneE4_0" intLanes="" shape="0.05,-50.01 -3.15,-49.21 -0.05,-49.99"/>
    <junction id="gneJ8" type="dead_end" x="50.00" y="0.00" incLanes="-gneE5_0" intLanes="" shape="50.04,0.02 47.09,-1.45 49.96,-0.02"/>
    <junction id="gneJ9" type="dead_end" x="0.00" y="50.00" incLanes="gneE6_0" intLanes="" shape="0.00,49.95 0.00,53.25 0.00,50.05"/>

    <junction id=":gneJ6_12_0" type="internal" x="23.05" y="47.65" incLanes=":gneJ6_1_0 -gneE6_0" intLanes=":gneJ6_4_0 :gneJ6_5_0 :gneJ6_8_0 :gneJ6_9_0 :gneJ6_10_0 :gneJ6_11_0"/>
    <junction id=":gneJ6_13_0" type="internal" x="24.08" y="46.87" incLanes=":gneJ6_2_0 -gneE6_0" intLanes=":gneJ6_4_0 :gneJ6_5_0 :gneJ6_6_0 :gneJ6_7_0 :gneJ6_10_0 :gneJ6_11_0"/>

    <connection from="-gneE4" to="-gneE5" fromLane="0" toLane="0" via=":gneJ6_3_0" dir="r" state="m"/>
    <connection from="-gneE4" to="gneE6" fromLane="0" toLane="0" via=":gneJ6_4_0" dir="L" state="m"/>
    <connection from="-gneE4" to="-gneE3" fromLane="0" toLane="0" via=":gneJ6_5_0" dir="l" state="m"/>
    <connection from="-gneE6" to="-gneE3" fromLane="0" toLane="0" via=":gneJ6_9_0" dir="r" state="M"/>
    <connection from="-gneE6" to="gneE4" fromLane="0" toLane="0" via=":gneJ6_10_0" dir="R" state="M"/>
    <connection from="-gneE6" to="-gneE5" fromLane="0" toLane="0" via=":gneJ6_11_0" dir="R" state="M"/>
    <connection from="gneE3" to="gneE4" fromLane="0" toLane="0" via=":gneJ6_6_0" dir="r" state="m"/>
    <connection from="gneE3" to="-gneE5" fromLane="0" toLane="0" via=":gneJ6_7_0" dir="R" state="m"/>
    <connection from="gneE3" to="gneE6" fromLane="0" toLane="0" via=":gneJ6_8_0" dir="l" state="m"/>
    <connection from="gneE5" to="gneE6" fromLane="0" toLane="0" via=":gneJ6_0_0" dir="L" state="M"/>
    <connection from="gneE5" to="-gneE3" fromLane="0" toLane="0" via=":gneJ6_1_0" dir="L" state="m"/>
    <connection from="gneE5" to="gneE4" fromLane="0" toLane="0" via=":gneJ6_2_0" dir="l" state="m"/>

    <connection from=":gneJ6_0" to="gneE6" fromLane="0" toLane="0" dir="L" state="M"/>
    <connection from=":gneJ6_1" to="-gneE3" fromLane="0" toLane="0" via=":gneJ6_12_0" dir="L" state="m"/>
    <connection from=":gneJ6_12" to="-gneE3" fromLane="0" toLane="0" dir="L" state="M"/>
    <connection from=":gneJ6_2" to="gneE4" fromLane="0" toLane="0" via=":gneJ6_13_0" dir="l" state="m"/>
    <connection from=":gneJ6_13" to="gneE4" fromLane="0" toLane="0" dir="l" state="M"/>
    <connection from=":gneJ6_3" to="-gneE5" fromLane="0" toLane="0" dir="r" state="M"/>
    <connection from=":gneJ6_4" to="gneE6" fromLane="0" toLane="0" dir="L" state="M"/>
    <connection from=":gneJ6_5" to="-gneE3" fromLane="0" toLane="0" dir="l" state="M"/>
    <connection from=":gneJ6_6" to="gneE4" fromLane="0" toLane="0" dir="r" state="M"/>
    <connection from=":gneJ6_7" to="-gneE5" fromLane="0" toLane="0" dir="R" state="M"/>
    <connection from=":gneJ6_8" to="gneE6" fromLane="0" toLane="0" dir="l" state="M"/>
    <connection from=":gneJ6_9" to="-gneE3" fromLane="0" toLane="0" dir="r" state="M"/>
    <connection from=":gneJ6_10" to="gneE4" fromLane="0" toLane="0" dir="R" state="M"/>
    <connection from=":gneJ6_11" to="-gneE5" fromLane="0" toLane="0" dir="R" state="M"/>

</net>
