<?xml version="1.0" encoding="UTF-8"?>

<!-- generated on 2024-09-26 14:06:21 by Eclipse SUMO netedit Version v1_20_0+2157-7cbf65e8f91
<neteditConfiguration xmlns:xsi="http://www.w3.org/2001/XMLSchema-instance" xsi:noNamespaceSchemaLocation="http://sumo.dlr.de/xsd/neteditConfiguration.xsd">

    <input>
        <sumo-net-file value="D:\SUMO\tests\netedit\bugs\revision24081\net.net.xml"/>
    </input>

    <processing>
        <geometry.min-radius.fix.railways value="false"/>
        <geometry.max-grade.fix value="false"/>
        <offset.disable-normalization value="true"/>
        <lefthand value="0"/>
    </processing>

    <junctions>
        <no-turnarounds value="true"/>
        <junctions.corner-detail value="5"/>
        <junctions.limit-turn-speed value="5.50"/>
        <rectangular-lane-cut value="0"/>
    </junctions>

    <pedestrian>
        <walkingareas value="0"/>
    </pedestrian>

</neteditConfiguration>
-->

<tlLogics version="1.20" xmlns:xsi="http://www.w3.org/2001/XMLSchema-instance" xsi:noNamespaceSchemaLocation="http://sumo.dlr.de/xsd/tllogic_file.xsd">
    <tlLogic id="J0" type="static" programID="0" offset="0">
        <phase duration="42" state="GgrrGG"/>
        <phase duration="3"  state="yyrrGy"/>
        <phase duration="42" state="rrGGGr"/>
        <phase duration="3"  state="rryyGr"/>
    </tlLogic>
    <tlLogic id="J3" type="static" programID="0" offset="0">
        <phase duration="42" state="GGGgrr"/>
        <phase duration="3"  state="Gyyyrr"/>
        <phase duration="42" state="GrrrGG"/>
        <phase duration="3"  state="Grrryy"/>
    </tlLogic>
    <tlLogic id="Junction5" type="static" programID="0" offset="0">
        <phase duration="42" state="GGgrrrGGgrrr"/>
        <phase duration="3"  state="yyyrrryyyrrr"/>
        <phase duration="42" state="rrrGGgrrrGGg"/>
        <phase duration="3"  state="rrryyyrrryyy"/>
    </tlLogic>

    <connection from="-E0" to="E2" fromLane="0" toLane="0" tl="Junction5" linkIndex="9"/>
    <connection from="-E0" to="E3" fromLane="0" toLane="0" tl="Junction5" linkIndex="10"/>
    <connection from="-E0" to="E1" fromLane="0" toLane="0" tl="Junction5" linkIndex="11"/>
    <connection from="-E1" to="E0" fromLane="0" toLane="0" tl="Junction5" linkIndex="0"/>
    <connection from="-E1" to="E2" fromLane="0" toLane="0" tl="Junction5" linkIndex="1"/>
    <connection from="-E1" to="E3" fromLane="0" toLane="0" tl="Junction5" linkIndex="2"/>
    <connection from="-E2" to="E3" fromLane="0" toLane="0" tl="Junction5" linkIndex="6"/>
    <connection from="-E2" to="E1" fromLane="0" toLane="0" tl="Junction5" linkIndex="7"/>
    <connection from="-E2" to="E0" fromLane="0" toLane="0" tl="Junction5" linkIndex="8"/>
    <connection from="-E3" to="E1" fromLane="0" toLane="0" tl="Junction5" linkIndex="3"/>
    <connection from="-E3" to="E0" fromLane="0" toLane="0" tl="Junction5" linkIndex="4"/>
    <connection from="-E3" to="E2" fromLane="0" toLane="0" tl="Junction5" linkIndex="5"/>
    <connection from="-E4" to="-E3" fromLane="0" toLane="0" tl="J3" linkIndex="0"/>
    <connection from="-E4" to="E5" fromLane="0" toLane="0" tl="J3" linkIndex="1"/>
    <connection from="-E5" to="E4" fromLane="0" toLane="0" tl="J3" linkIndex="2"/>
    <connection from="-E5" to="-E3" fromLane="0" toLane="0" tl="J3" linkIndex="3"/>
    <connection from="-E6" to="E7" fromLane="0" toLane="0" tl="J0" linkIndex="0"/>
    <connection from="-E6" to="-E0" fromLane="0" toLane="0" tl="J0" linkIndex="1"/>
    <connection from="-E7" to="-E0" fromLane="0" toLane="0" tl="J0" linkIndex="4"/>
    <connection from="-E7" to="E6" fromLane="0" toLane="0" tl="J0" linkIndex="5"/>
    <connection from="E0" to="E6" fromLane="0" toLane="0" tl="J0" linkIndex="2"/>
    <connection from="E0" to="E7" fromLane="0" toLane="0" tl="J0" linkIndex="3"/>
    <connection from="E3" to="E5" fromLane="0" toLane="0" tl="J3" linkIndex="4"/>
    <connection from="E3" to="E4" fromLane="0" toLane="0" tl="J3" linkIndex="5"/>
</tlLogics>
