<?xml version="1.0" encoding="UTF-8"?>

<!-- generated on Mon 03 Mar 2014 04:04:38 PM CET by Netedit Version dev-SVN-r15775
<?xml version="1.0" encoding="UTF-8"?>

<configuration xmlns:xsi="http://www.w3.org/2001/XMLSchema-instance" xsi:noNamespaceSchemaLocation="http://sumo.dlr.de/xsd/netedit.exeConfiguration.xsd">

    <output>
        <output-file value="/scr1/erdm_ja/debug/1139/net.net.xml"/>
    </output>

    <processing>
        <no-turnarounds value="true"/>
        <offset.disable-normalization value="true"/>
    </processing>

</configuration>
-->

<net version="0.13" xmlns:xsi="http://www.w3.org/2001/XMLSchema-instance" xsi:noNamespaceSchemaLocation="http://sumo.dlr.de/xsd/net_file.xsd">

    <location netOffset="0.00,0.00" convBoundary="0.00,0.00,1000.00,0.00" origBoundary="10000000000.00,10000000000.00,-10000000000.00,-10000000000.00" projParameter="!"/>

    <edge id="beg" from="gneJ0" to="gneJ1" priority="1">
        <lane id="beg_0" index="0" speed="13.89" length="1000.00" shape="0.00,-4.95 1000.00,-4.95"/>
        <lane id="beg_1" index="1" speed="13.89" length="1000.00" shape="0.00,-1.65 1000.00,-1.65"/>
    </edge>

    <junction id="gneJ0" type="unregulated" x="0.00" y="0.00" incLanes="" intLanes="" shape="-0.00,-0.05 -0.00,-6.55"/>
    <junction id="gneJ1" type="unregulated" x="1000.00" y="0.00" incLanes="beg_0 beg_1" intLanes="" shape="1000.00,-6.55 1000.00,-0.05"/>

</net>
