<?xml version="1.0" encoding="UTF-8"?>

<!-- generated on Tue 18 Sep 2018 05:13:38 PM CEST by Eclipse SUMO netedit Version 5345f89a38
<configuration xmlns:xsi="http://www.w3.org/2001/XMLSchema-instance" xsi:noNamespaceSchemaLocation="http://sumo.dlr.de/xsd/netconvertConfiguration.xsd">

    <input>
        <sumo-net-file value="example.net.xml"/>
    </input>

    <output>
        <output-file value="example.net.xml"/>
    </output>

    <processing>
        <offset.disable-normalization value="true"/>
        <lefthand value="false"/>
    </processing>

    <junctions>
        <no-turnarounds value="true"/>
        <junctions.corner-detail value="5"/>
        <junctions.limit-turn-speed value="5.5"/>
        <rectangular-lane-cut value="false"/>
    </junctions>

    <pedestrian>
        <walkingareas value="false"/>
    </pedestrian>

</configuration>
-->

<net version="1.0" junctionCornerDetail="5" limitTurnSpeed="5.50" xmlns:xsi="http://www.w3.org/2001/XMLSchema-instance" xsi:noNamespaceSchemaLocation="http://sumo.dlr.de/xsd/net_file.xsd">

    <location netOffset="0.00,0.00" convBoundary="-300.00,-300.00,200.00,0.00" origBoundary="-10000000000.00,-10000000000.00,10000000000.00,10000000000.00" projParameter="!"/>

    <edge id=":gneJ25_0" function="internal">
        <lane id=":gneJ25_0_0" index="0" speed="13.89" length="0.10" shape="-98.87,-101.13 -98.87,-101.13"/>
        <lane id=":gneJ25_0_1" index="1" speed="13.89" length="0.10" shape="-101.13,-98.87 -101.13,-98.87"/>
    </edge>
    <edge id=":gneJ26_0" function="internal">
        <lane id=":gneJ26_0_0" index="0" speed="4.20" length="1.26" shape="0.19,-2.07 0.44,-1.86 0.71,-1.72 1.01,-1.63 1.33,-1.60"/>
    </edge>
    <edge id=":gneJ26_1" function="internal">
        <lane id=":gneJ26_1_0" index="0" speed="6.63" length="3.77" shape="-2.07,0.19 -1.33,0.81 -0.52,1.25 0.37,1.51 1.33,1.60"/>
    </edge>
    <edge id=":gneJ27_0" function="internal">
        <lane id=":gneJ27_0_0" index="0" speed="4.20" length="1.26" shape="98.67,-1.60 98.99,-1.63 99.29,-1.72 99.56,-1.86 99.81,-2.07"/>
    </edge>
    <edge id=":gneJ27_1" function="internal">
        <lane id=":gneJ27_1_0" index="0" speed="6.63" length="3.77" shape="98.67,1.60 99.63,1.51 100.52,1.25 101.33,0.81 102.07,0.19"/>
    </edge>
    <edge id=":gneJ28_0" function="internal">
        <lane id=":gneJ28_0_0" index="0" speed="4.20" length="1.26" shape="197.93,-100.19 198.14,-100.44 198.28,-100.71 198.37,-101.01 198.40,-101.33"/>
    </edge>
    <edge id=":gneJ28_1" function="internal">
        <lane id=":gneJ28_1_0" index="0" speed="6.63" length="3.77" shape="200.19,-97.93 200.81,-98.67 201.25,-99.48 201.51,-100.37 201.60,-101.33"/>
    </edge>

    <edge id="gneE24" from="gneJ25" to="gneJ26" priority="-1" spreadType="center">
        <lane id="gneE24_0" index="0" speed="13.89" length="140.10" shape="-98.87,-101.13 0.19,-2.07"/>
        <lane id="gneE24_1" index="1" speed="13.89" length="140.10" shape="-101.13,-98.87 -2.07,0.19"/>
    </edge>
    <edge id="gneE25" from="gneJ27" to="gneJ28" priority="-1" spreadType="center">
        <lane id="gneE25_0" index="0" speed="13.89" length="138.77" shape="99.81,-2.07 197.93,-100.19"/>
        <lane id="gneE25_1" index="1" speed="13.89" length="138.77" shape="102.07,0.19 200.19,-97.93"/>
    </edge>
    <edge id="gneE27" from="gneJ26" to="gneJ27" priority="-1" spreadType="center">
        <lane id="gneE27_0" index="0" speed="13.89" length="97.35" shape="1.33,-1.60 98.67,-1.60"/>
        <lane id="gneE27_1" index="1" speed="13.89" length="97.35" shape="1.33,1.60 98.67,1.60"/>
    </edge>
    <edge id="gneE28" from="gneJ28" to="gneJ29" priority="-1" spreadType="center">
        <lane id="gneE28_0" index="0" speed="13.89" length="198.67" shape="198.40,-101.33 198.40,-300.00"/>
        <lane id="gneE28_1" index="1" speed="13.89" length="198.67" shape="201.60,-101.33 201.60,-300.00"/>
    </edge>
    <edge id="gneE30" from="gneJ33" to="gneJ25" priority="-1" spreadType="center">
        <lane id="gneE30_0" index="0" speed="13.89" length="282.84" shape="-298.87,-301.13 -98.87,-101.13"/>
        <lane id="gneE30_1" index="1" speed="13.89" length="282.84" shape="-301.13,-298.87 -101.13,-98.87"/>
    </edge>

    <junction id="gneJ25" type="priority" x="-100.00" y="-100.00" incLanes="gneE30_0 gneE30_1" intLanes=":gneJ25_0_0 :gneJ25_0_1" shape="-102.26,-97.74 -97.74,-102.26 -102.26,-97.74">
        <request index="0" response="00" foes="00" cont="0"/>
        <request index="1" response="00" foes="00" cont="0"/>
    </junction>
    <junction id="gneJ26" type="priority" x="0.00" y="0.00" incLanes="gneE24_0 gneE24_1" intLanes=":gneJ26_0_0 :gneJ26_1_0" shape="1.33,3.20 1.33,-3.20 -3.20,1.33 -1.86,2.37 -1.13,2.73 -0.36,2.99 0.46,3.15">
        <request index="0" response="00" foes="00" cont="0"/>
        <request index="1" response="00" foes="00" cont="0"/>
    </junction>
    <junction id="gneJ27" type="priority" x="100.00" y="0.00" incLanes="gneE27_0 gneE27_1" intLanes=":gneJ27_0_0 :gneJ27_1_0" shape="103.20,1.33 98.67,-3.20 98.67,3.20 100.36,2.99 101.13,2.73 101.86,2.37 102.55,1.90">
        <request index="0" response="00" foes="00" cont="0"/>
        <request index="1" response="00" foes="00" cont="0"/>
    </junction>
    <junction id="gneJ28" type="priority" x="200.00" y="-100.00" incLanes="gneE25_0 gneE25_1" intLanes=":gneJ28_0_0 :gneJ28_1_0" shape="203.20,-101.33 196.80,-101.33 201.33,-96.80 202.37,-98.14 202.73,-98.87 202.99,-99.64 203.15,-100.46">
        <request index="0" response="00" foes="00" cont="0"/>
        <request index="1" response="00" foes="00" cont="0"/>
    </junction>
    <junction id="gneJ29" type="dead_end" x="200.00" y="-300.00" incLanes="gneE28_0 gneE28_1" intLanes="" shape="196.80,-300.00 203.20,-300.00"/>
    <junction id="gneJ33" type="dead_end" x="-300.00" y="-300.00" incLanes="" intLanes="" shape="-302.26,-297.74 -297.74,-302.26"/>

    <connection from="gneE24" to="gneE27" fromLane="0" toLane="0" via=":gneJ26_0_0" dir="r" state="M"/>
    <connection from="gneE24" to="gneE27" fromLane="1" toLane="1" via=":gneJ26_1_0" dir="r" state="M"/>
    <connection from="gneE25" to="gneE28" fromLane="0" toLane="0" via=":gneJ28_0_0" dir="r" state="M"/>
    <connection from="gneE25" to="gneE28" fromLane="1" toLane="1" via=":gneJ28_1_0" dir="r" state="M"/>
    <connection from="gneE27" to="gneE25" fromLane="0" toLane="0" via=":gneJ27_0_0" dir="r" state="M"/>
    <connection from="gneE27" to="gneE25" fromLane="1" toLane="1" via=":gneJ27_1_0" dir="r" state="M"/>
    <connection from="gneE30" to="gneE24" fromLane="0" toLane="0" via=":gneJ25_0_0" dir="s" state="M"/>
    <connection from="gneE30" to="gneE24" fromLane="1" toLane="1" via=":gneJ25_0_1" dir="s" state="M"/>

    <connection from=":gneJ25_0" to="gneE24" fromLane="0" toLane="0" dir="s" state="M"/>
    <connection from=":gneJ25_0" to="gneE24" fromLane="1" toLane="1" dir="s" state="M"/>
    <connection from=":gneJ26_0" to="gneE27" fromLane="0" toLane="0" dir="r" state="M"/>
    <connection from=":gneJ26_1" to="gneE27" fromLane="0" toLane="1" dir="r" state="M"/>
    <connection from=":gneJ27_0" to="gneE25" fromLane="0" toLane="0" dir="r" state="M"/>
    <connection from=":gneJ27_1" to="gneE25" fromLane="0" toLane="1" dir="r" state="M"/>
    <connection from=":gneJ28_0" to="gneE28" fromLane="0" toLane="0" dir="r" state="M"/>
    <connection from=":gneJ28_1" to="gneE28" fromLane="0" toLane="1" dir="r" state="M"/>

</net>
