<?xml version="1.0" encoding="UTF-8"?>

<!-- generated on 07.02.2018 15:13:37 by Netedit Version v0_32_0+0355-43cc681991
<configuration xmlns:xsi="http://www.w3.org/2001/XMLSchema-instance" xsi:noNamespaceSchemaLocation="http://sumo.dlr.de/xsd/netconvertConfiguration.xsd">

    <input>
        <new value="true"/>
    </input>

    <output>
        <additionals-output value="C:/Users/Palcraft/.texttest/tmp/netedit.gui.1_from_07Feb151144.2256/netedit.gui/bugs/ticket2948\additionals.xml"/>
        <shapes-output value="C:/Users/Palcraft/.texttest/tmp/netedit.gui.1_from_07Feb151144.2256/netedit.gui/bugs/ticket2948\shapes.xml"/>
        <output-file value="C:/Users/Palcraft/.texttest/tmp/netedit.gui.1_from_07Feb151144.2256/netedit.gui/bugs/ticket2948\net.net.xml"/>
    </output>

    <processing>
        <no-turnarounds value="true"/>
        <offset.disable-normalization value="true"/>
    </processing>

    <visualisation>
        <gui-settings-file value="C:/Users/Palcraft/.texttest/tmp/netedit.gui.1_from_07Feb151144.2256/netedit.gui/bugs/ticket2948\gui-settings.xml"/>
        <window-size value="700,500"/>
        <window-pos value="50,50"/>
        <gui-testing value="true"/>
        <gui-testing-debug value="true"/>
    </visualisation>

    <report>
        <no-warnings value="true"/>
        <error-log value="C:/Users/Palcraft/.texttest/tmp/netedit.gui.1_from_07Feb151144.2256/netedit.gui/bugs/ticket2948\log.txt"/>
    </report>

</configuration>
-->

<net version="0.27" xmlns:xsi="http://www.w3.org/2001/XMLSchema-instance" xsi:noNamespaceSchemaLocation="http://sumo.dlr.de/xsd/net_file.xsd">

    <location netOffset="0.00,0.00" convBoundary="47.00,25.00,87.00,65.00" origBoundary="10000000000.00,10000000000.00,-10000000000.00,-10000000000.00" projParameter="!"/>

    <edge id=":gneJ1_0" function="internal">
        <lane id=":gneJ1_0_0" index="0" speed="20.00" length="7.90" shape="88.65,61.75 88.34,63.89 87.43,65.43 85.89,66.34 83.75,66.65"/>
    </edge>
    <edge id=":gneJ1_1" function="internal">
        <lane id=":gneJ1_1_0" index="0" speed="20.00" length="2.58" shape="83.75,63.35 84.45,63.25 84.95,62.95 85.25,62.45 85.35,61.75"/>
    </edge>
    <edge id=":gneJ2_0" function="internal">
        <lane id=":gneJ2_0_0" index="0" speed="20.00" length="0.10" shape="85.35,45.00 85.35,45.00"/>
    </edge>
    <edge id=":gneJ2_1" function="internal">
        <lane id=":gneJ2_1_0" index="0" speed="20.00" length="0.10" shape="88.65,45.00 88.65,45.00"/>
    </edge>
    <edge id=":gneJ3_0" function="internal">
        <lane id=":gneJ3_0_0" index="0" speed="20.00" length="2.58" shape="85.35,28.25 85.25,27.55 84.95,27.05 84.45,26.75 83.75,26.65"/>
    </edge>
    <edge id=":gneJ3_1" function="internal">
        <lane id=":gneJ3_1_0" index="0" speed="20.00" length="7.90" shape="83.75,23.35 85.89,23.66 87.43,24.58 88.34,26.11 88.65,28.25"/>
    </edge>
    <edge id=":gneJ4_0" function="internal">
        <lane id=":gneJ4_0_0" index="0" speed="20.00" length="0.10" shape="67.00,26.65 67.00,26.65"/>
    </edge>
    <edge id=":gneJ4_1" function="internal">
        <lane id=":gneJ4_1_0" index="0" speed="20.00" length="0.10" shape="67.00,23.35 67.00,23.35"/>
    </edge>
    <edge id=":gneJ5_0" function="internal">
        <lane id=":gneJ5_0_0" index="0" speed="20.00" length="7.90" shape="45.35,28.25 45.66,26.11 46.58,24.57 48.11,23.66 50.25,23.35"/>
    </edge>
    <edge id=":gneJ5_1" function="internal">
        <lane id=":gneJ5_1_0" index="0" speed="20.00" length="2.58" shape="50.25,26.65 49.55,26.75 49.05,27.05 48.75,27.55 48.65,28.25"/>
    </edge>

    <edge id="-gneE0" from="gneJ1" to="gneJ0" priority="1">
        <lane id="-gneE0_0" index="0" speed="20.00" length="16.75" shape="83.75,66.65 67.00,66.65"/>
    </edge>
    <edge id="-gneE1" from="gneJ2" to="gneJ1" priority="1">
        <lane id="-gneE1_0" index="0" speed="20.00" length="16.75" shape="88.65,45.00 88.65,61.75"/>
    </edge>
    <edge id="-gneE2" from="gneJ3" to="gneJ2" priority="1">
        <lane id="-gneE2_0" index="0" speed="20.00" length="16.75" shape="88.65,28.25 88.65,45.00"/>
    </edge>
    <edge id="-gneE3" from="gneJ4" to="gneJ3" priority="1">
        <lane id="-gneE3_0" index="0" speed="20.00" length="16.75" shape="67.00,23.35 83.75,23.35"/>
    </edge>
    <edge id="-gneE4" from="gneJ5" to="gneJ4" priority="1">
        <lane id="-gneE4_0" index="0" speed="20.00" length="16.75" shape="50.25,23.35 67.00,23.35"/>
    </edge>
    <edge id="-gneE5" from="gneJ6" to="gneJ5" priority="1">
        <lane id="-gneE5_0" index="0" speed="20.00" length="16.75" shape="45.35,45.00 45.35,28.25"/>
    </edge>
    <edge id="gneE0" from="gneJ0" to="gneJ1" priority="1">
        <lane id="gneE0_0" index="0" speed="20.00" length="16.75" shape="67.00,63.35 83.75,63.35"/>
    </edge>
    <edge id="gneE1" from="gneJ1" to="gneJ2" priority="1">
        <lane id="gneE1_0" index="0" speed="20.00" length="16.75" shape="85.35,61.75 85.35,45.00"/>
    </edge>
    <edge id="gneE2" from="gneJ2" to="gneJ3" priority="1">
        <lane id="gneE2_0" index="0" speed="20.00" length="16.75" shape="85.35,45.00 85.35,28.25"/>
    </edge>
    <edge id="gneE3" from="gneJ3" to="gneJ4" priority="1">
        <lane id="gneE3_0" index="0" speed="20.00" length="16.75" shape="83.75,26.65 67.00,26.65"/>
    </edge>
    <edge id="gneE4" from="gneJ4" to="gneJ5" priority="1">
        <lane id="gneE4_0" index="0" speed="20.00" length="16.75" shape="67.00,26.65 50.25,26.65"/>
    </edge>
    <edge id="gneE5" from="gneJ5" to="gneJ6" priority="1">
        <lane id="gneE5_0" index="0" speed="20.00" length="16.75" shape="48.65,28.25 48.65,45.00"/>
    </edge>

    <tlLogic id="gneJ1" type="static" programID="0" offset="0">
        <phase duration="40" state="GG"/>
        <phase duration="5" state="yy"/>
        <phase duration="40" state="GG"/>
        <phase duration="5" state="yy"/>
    </tlLogic>
    <tlLogic id="gneJ2" type="static" programID="0" offset="0">
        <phase duration="80" state="GG"/>
        <phase duration="5" state="yy"/>
        <phase duration="5" state="rr"/>
    </tlLogic>
    <tlLogic id="gneJ3" type="static" programID="0" offset="0">
        <phase duration="40" state="GG"/>
        <phase duration="5" state="yy"/>
        <phase duration="40" state="GG"/>
        <phase duration="5" state="yy"/>
    </tlLogic>
    <tlLogic id="gneJ4" type="static" programID="0" offset="0">
        <phase duration="80" state="GG"/>
        <phase duration="5" state="yy"/>
        <phase duration="5" state="rr"/>
    </tlLogic>
    <tlLogic id="gneJ5" type="static" programID="0" offset="0">
        <phase duration="40" state="GG"/>
        <phase duration="5" state="yy"/>
        <phase duration="40" state="GG"/>
        <phase duration="5" state="yy"/>
    </tlLogic>

    <junction id="gneJ0" type="dead_end" x="67.00" y="65.00" incLanes="-gneE0_0" intLanes="" shape="67.00,64.95 67.00,68.25 67.00,65.05"/>
    <junction id="gneJ1" type="traffic_light" x="87.00" y="65.00" incLanes="-gneE1_0 gneE0_0" intLanes=":gneJ1_0_0 :gneJ1_1_0" shape="90.25,61.75 83.75,61.75 83.75,68.25">
        <request index="0" response="00" foes="00" cont="0"/>
        <request index="1" response="00" foes="00" cont="0"/>
    </junction>
    <junction id="gneJ2" type="traffic_light" x="87.00" y="45.00" incLanes="gneE1_0 -gneE2_0" intLanes=":gneJ2_0_0 :gneJ2_1_0" shape="83.75,45.00 90.25,45.00 83.75,45.00">
        <request index="0" response="00" foes="00" cont="0"/>
        <request index="1" response="00" foes="00" cont="0"/>
    </junction>
    <junction id="gneJ3" type="traffic_light" x="87.00" y="25.00" incLanes="gneE2_0 -gneE3_0" intLanes=":gneJ3_0_0 :gneJ3_1_0" shape="83.75,28.25 90.25,28.25 83.75,21.75">
        <request index="0" response="00" foes="00" cont="0"/>
        <request index="1" response="00" foes="00" cont="0"/>
    </junction>
    <junction id="gneJ4" type="traffic_light" x="67.00" y="25.00" incLanes="gneE3_0 -gneE4_0" intLanes=":gneJ4_0_0 :gneJ4_1_0" shape="67.00,28.25 67.00,21.75 67.00,28.25">
        <request index="0" response="00" foes="00" cont="0"/>
        <request index="1" response="00" foes="00" cont="0"/>
    </junction>
    <junction id="gneJ5" type="traffic_light" x="47.00" y="25.00" incLanes="-gneE5_0 gneE4_0" intLanes=":gneJ5_0_0 :gneJ5_1_0" shape="43.75,28.25 50.25,28.25 50.25,21.75">
        <request index="0" response="00" foes="00" cont="0"/>
        <request index="1" response="00" foes="00" cont="0"/>
    </junction>
    <junction id="gneJ6" type="dead_end" x="47.00" y="45.00" incLanes="gneE5_0" intLanes="" shape="46.95,45.00 50.25,45.00 47.05,45.00"/>

    <connection from="-gneE1" to="-gneE0" fromLane="0" toLane="0" via=":gneJ1_0_0" tl="gneJ1" linkIndex="0" dir="l" state="o"/>
    <connection from="-gneE2" to="-gneE1" fromLane="0" toLane="0" via=":gneJ2_1_0" tl="gneJ2" linkIndex="1" dir="s" state="o"/>
    <connection from="-gneE3" to="-gneE2" fromLane="0" toLane="0" via=":gneJ3_1_0" tl="gneJ3" linkIndex="1" dir="l" state="o"/>
    <connection from="-gneE4" to="-gneE3" fromLane="0" toLane="0" via=":gneJ4_1_0" tl="gneJ4" linkIndex="1" dir="s" state="o"/>
    <connection from="-gneE5" to="-gneE4" fromLane="0" toLane="0" via=":gneJ5_0_0" tl="gneJ5" linkIndex="0" dir="l" state="o"/>
    <connection from="gneE0" to="gneE1" fromLane="0" toLane="0" via=":gneJ1_1_0" tl="gneJ1" linkIndex="1" dir="r" state="o"/>
    <connection from="gneE1" to="gneE2" fromLane="0" toLane="0" via=":gneJ2_0_0" tl="gneJ2" linkIndex="0" dir="s" state="o"/>
    <connection from="gneE2" to="gneE3" fromLane="0" toLane="0" via=":gneJ3_0_0" tl="gneJ3" linkIndex="0" dir="r" state="o"/>
    <connection from="gneE3" to="gneE4" fromLane="0" toLane="0" via=":gneJ4_0_0" tl="gneJ4" linkIndex="0" dir="s" state="o"/>
    <connection from="gneE4" to="gneE5" fromLane="0" toLane="0" via=":gneJ5_1_0" tl="gneJ5" linkIndex="1" dir="r" state="o"/>

    <connection from=":gneJ1_0" to="-gneE0" fromLane="0" toLane="0" dir="l" state="M"/>
    <connection from=":gneJ1_1" to="gneE1" fromLane="0" toLane="0" dir="r" state="M"/>
    <connection from=":gneJ2_0" to="gneE2" fromLane="0" toLane="0" dir="s" state="M"/>
    <connection from=":gneJ2_1" to="-gneE1" fromLane="0" toLane="0" dir="s" state="M"/>
    <connection from=":gneJ3_0" to="gneE3" fromLane="0" toLane="0" dir="r" state="M"/>
    <connection from=":gneJ3_1" to="-gneE2" fromLane="0" toLane="0" dir="l" state="M"/>
    <connection from=":gneJ4_0" to="gneE4" fromLane="0" toLane="0" dir="s" state="M"/>
    <connection from=":gneJ4_1" to="-gneE3" fromLane="0" toLane="0" dir="s" state="M"/>
    <connection from=":gneJ5_0" to="-gneE4" fromLane="0" toLane="0" dir="l" state="M"/>
    <connection from=":gneJ5_1" to="gneE5" fromLane="0" toLane="0" dir="r" state="M"/>

</net>
