<?xml version="1.0" encoding="UTF-8"?>

<!-- generated on 2022-12-02 08:45:54 by Eclipse SUMO sumo Version v1_15_0+0714-4818e7c
This data file and the accompanying materials
are made available under the terms of the Eclipse Public License v2.0
which accompanies this distribution, and is available at
http://www.eclipse.org/legal/epl-v20.html
This file may also be made available under the following Secondary
Licenses when the conditions for such availability set forth in the Eclipse
Public License 2.0 are satisfied: GNU General Public License, version 2
or later which is available at
https://www.gnu.org/licenses/old-licenses/gpl-2.0-standalone.html
SPDX-License-Identifier: EPL-2.0 OR GPL-2.0-or-later
<configuration xmlns:xsi="http://www.w3.org/2001/XMLSchema-instance" xsi:noNamespaceSchemaLocation="http://sumo.dlr.de/xsd/sumoConfiguration.xsd">

    <input>
        <net-file value="net.net.xml"/>
        <route-files value="input_routes.rou.xml"/>
    </input>

    <output>
        <write-license value="true"/>
        <tripinfo-output value="tripinfos.xml"/>
        <railsignal-block-output value="railsignal_blocks.xml"/>
    </output>

    <processing>
        <default.speeddev value="0"/>
    </processing>

    <report>
        <xml-validation value="never"/>
        <duration-log.disable value="true"/>
        <no-step-log value="true"/>
    </report>

    <mesoscopic>
        <mesosim value="true"/>
    </mesoscopic>

</configuration>
-->

<railsignal-block-output>
    <railSignal id="J2">
        <link linkIndex="0" from="E1_0" to="E2_0">
            <driveWay edges="E2">
                <forward lanes="E2_0"/>
                <bidi lanes="-E2_0"/>
                <flank lanes=""/>
                <protectingSwitches links=""/>
                <conflictLinks signals="J3_0"/>
            </driveWay>
        </link>
    </railSignal>
    <railSignal id="J3">
        <link linkIndex="0" from="-E3_0" to="-E2_0">
            <driveWay edges="-E2 -E1">
                <forward lanes="-E2_0 -E1_0"/>
                <bidi lanes="E2_0 E1_0"/>
                <flank lanes="E0_0"/>
                <protectingSwitches links=""/>
                <conflictLinks signals=""/>
            </driveWay>
        </link>
    </railSignal>
</railsignal-block-output>
