<?xml version="1.0" encoding="UTF-8"?>

<!-- generated on 2022-03-04 11:05:15 by Eclipse SUMO netedit Version v1_12_0+1137-e9106068858
-->

<additional xmlns:xsi="http://www.w3.org/2001/XMLSchema-instance" xsi:noNamespaceSchemaLocation="http://sumo.dlr.de/xsd/additional_file.xsd">
    <!-- Shapes -->
    <poly id="poly_0" color="red" fill="0" layer="128.00" geo="1" shape="10.511140,0.000072 10.511140,0.000162 10.511050,0.000162 10.511050,0.000072 10.511140,0.000072"/>
    <poly id="poly_1" color="red" fill="0" layer="128.00" geo="1" shape="10.511319,0.000072 10.511319,0.000162 10.511229,0.000162 10.511229,0.000072 10.511319,0.000072"/>
</additional>
