<?xml version="1.0" encoding="UTF-8"?>

<!-- generated on Fri Dec 15 21:48:57 2017 by SUMO netconvert Version v0_31_0+1632-61f2595
<?xml version="1.0" encoding="UTF-8"?>

<configuration xmlns:xsi="http://www.w3.org/2001/XMLSchema-instance" xsi:noNamespaceSchemaLocation="http://sumo.dlr.de/xsd/netconvertConfiguration.xsd">

    <input>
        <osm-files value="osm.xml"/>
    </input>

    <projection>
        <proj.utm value="true"/>
    </projection>

    <tls_building>
        <tls.join value="true"/>
    </tls_building>

    <report>
        <xml-validation value="never"/>
    </report>

</configuration>
-->

<net version="0.27" xmlns:xsi="http://www.w3.org/2001/XMLSchema-instance" xsi:noNamespaceSchemaLocation="http://sumo.dlr.de/xsd/net_file.xsd">

    <location netOffset="-602601.90,-5791894.51" convBoundary="0.00,0.00,576.44,414.49" origBoundary="10.503602,52.267839,10.512115,52.271521" projParameter="+proj=utm +zone=32 +ellps=WGS84 +datum=WGS84 +units=m +no_defs"/>

    <type id="highway.bridleway" priority="1" numLanes="1" speed="2.78" allow="pedestrian" oneway="1" width="2.00"/>
    <type id="highway.bus_guideway" priority="1" numLanes="1" speed="8.33" allow="bus" oneway="1"/>
    <type id="highway.cycleway" priority="1" numLanes="1" speed="5.56" allow="bicycle" oneway="0" width="1.00"/>
    <type id="highway.footway" priority="1" numLanes="1" speed="2.78" allow="pedestrian" oneway="1" width="2.00"/>
    <type id="highway.ford" priority="1" numLanes="1" speed="2.78" allow="army" oneway="0"/>
    <type id="highway.living_street" priority="3" numLanes="1" speed="2.78" disallow="tram rail_urban rail rail_electric ship" oneway="0"/>
    <type id="highway.motorway" priority="13" numLanes="2" speed="44.44" allow="private emergency authority army vip passenger hov taxi bus coach delivery truck trailer motorcycle evehicle custom1 custom2" oneway="1"/>
    <type id="highway.motorway_link" priority="12" numLanes="1" speed="22.22" allow="private emergency authority army vip passenger hov taxi bus coach delivery truck trailer motorcycle evehicle custom1 custom2" oneway="1"/>
    <type id="highway.path" priority="1" numLanes="1" speed="2.78" allow="bicycle pedestrian" oneway="1" width="2.00"/>
    <type id="highway.pedestrian" priority="1" numLanes="1" speed="2.78" allow="pedestrian" oneway="1" width="2.00"/>
    <type id="highway.primary" priority="9" numLanes="2" speed="27.78" disallow="tram rail_urban rail rail_electric ship" oneway="0"/>
    <type id="highway.primary_link" priority="8" numLanes="1" speed="22.22" disallow="tram rail_urban rail rail_electric ship" oneway="0"/>
    <type id="highway.raceway" priority="14" numLanes="2" speed="83.33" allow="vip" oneway="0"/>
    <type id="highway.residential" priority="4" numLanes="1" speed="13.89" disallow="tram rail_urban rail rail_electric ship" oneway="0"/>
    <type id="highway.secondary" priority="7" numLanes="2" speed="27.78" disallow="tram rail_urban rail rail_electric ship" oneway="0"/>
    <type id="highway.secondary_link" priority="6" numLanes="1" speed="22.22" disallow="tram rail_urban rail rail_electric ship" oneway="0"/>
    <type id="highway.service" priority="2" numLanes="1" speed="5.56" allow="delivery bicycle pedestrian" oneway="0"/>
    <type id="highway.services" priority="1" numLanes="1" speed="8.33" disallow="tram rail_urban rail rail_electric ship" oneway="0"/>
    <type id="highway.stairs" priority="1" numLanes="1" speed="1.39" allow="pedestrian" oneway="1" width="2.00"/>
    <type id="highway.step" priority="1" numLanes="1" speed="1.39" allow="pedestrian" oneway="1" width="2.00"/>
    <type id="highway.steps" priority="1" numLanes="1" speed="1.39" allow="pedestrian" oneway="1" width="2.00"/>
    <type id="highway.tertiary" priority="6" numLanes="1" speed="22.22" disallow="tram rail_urban rail rail_electric ship" oneway="0"/>
    <type id="highway.tertiary_link" priority="5" numLanes="1" speed="22.22" disallow="tram rail_urban rail rail_electric ship" oneway="0"/>
    <type id="highway.track" priority="1" numLanes="1" speed="5.56" disallow="tram rail_urban rail rail_electric ship" oneway="0"/>
    <type id="highway.trunk" priority="11" numLanes="2" speed="27.78" disallow="tram rail_urban rail rail_electric bicycle pedestrian ship" oneway="0"/>
    <type id="highway.trunk_link" priority="10" numLanes="1" speed="22.22" disallow="tram rail_urban rail rail_electric bicycle pedestrian ship" oneway="0"/>
    <type id="highway.unclassified" priority="5" numLanes="1" speed="13.89" disallow="tram rail_urban rail rail_electric ship" oneway="0"/>
    <type id="highway.unsurfaced" priority="1" numLanes="1" speed="8.33" disallow="tram rail_urban rail rail_electric ship" oneway="0"/>
    <type id="railway.light_rail" priority="15" numLanes="1" speed="27.78" allow="rail_urban" oneway="1"/>
    <type id="railway.preserved" priority="15" numLanes="1" speed="27.78" allow="rail" oneway="1"/>
    <type id="railway.rail" priority="15" numLanes="1" speed="83.33" allow="rail rail_electric" oneway="1"/>
    <type id="railway.subway" priority="15" numLanes="1" speed="27.78" allow="rail_urban" oneway="1"/>
    <type id="railway.tram" priority="15" numLanes="1" speed="13.89" allow="tram" oneway="1"/>

    <edge id=":2174961454_0" function="internal">
        <lane id=":2174961454_0_0" index="0" disallow="tram rail_urban rail rail_electric ship" speed="8.33" length="4.82" shape="512.87,245.60 513.92,246.66 514.16,247.55 513.59,248.27 512.21,248.84"/>
    </edge>
    <edge id=":3325293450_0" function="internal">
        <lane id=":3325293450_0_0" index="0" allow="bicycle pedestrian" speed="2.78" length="3.07" width="2.00" shape="376.49,259.19 375.64,259.62 375.05,259.59 374.73,259.10 374.66,258.15"/>
    </edge>
    <edge id=":3790696291_0" function="internal">
        <lane id=":3790696291_0_0" index="0" disallow="tram rail_urban rail rail_electric ship" speed="13.89" length="0.30" shape="406.93,199.50 406.74,199.72"/>
        <lane id=":3790696291_0_1" index="1" disallow="tram rail_urban rail rail_electric ship" speed="13.89" length="0.30" shape="404.44,197.34 404.24,197.58"/>
    </edge>
    <edge id=":3790696292_0" function="internal">
        <lane id=":3790696292_0_0" index="0" disallow="tram rail_urban rail rail_electric ship" speed="9.72" length="4.66" shape="392.23,197.29 393.22,197.93 394.22,198.06 395.24,197.67 396.27,196.75"/>
    </edge>
    <edge id=":3790696292_1" function="internal">
        <lane id=":3790696292_1_0" index="0" allow="delivery bicycle pedestrian" speed="5.56" length="4.82" shape="392.23,197.29 392.58,198.73 392.32,199.62 391.46,199.94 389.99,199.71"/>
    </edge>
    <edge id=":3790696292_2" function="internal">
        <lane id=":3790696292_2_0" index="0" allow="delivery bicycle pedestrian" speed="9.72" length="4.82" shape="390.32,204.01 390.97,202.86 391.13,201.76 390.80,200.71 389.99,199.71"/>
    </edge>
    <edge id=":3790696292_3" function="internal">
        <lane id=":3790696292_3_0" index="0" disallow="tram rail_urban rail rail_electric ship" speed="13.89" length="9.26" shape="390.32,204.01 396.27,196.75"/>
        <lane id=":3790696292_3_1" index="1" disallow="tram rail_urban rail rail_electric ship" speed="13.89" length="9.26" shape="392.95,206.00 398.74,198.93"/>
    </edge>
    <edge id=":3790696293_0" function="internal">
        <lane id=":3790696293_0_0" index="0" disallow="tram rail_urban rail rail_electric ship" speed="13.89" length="0.25" shape="400.34,207.22 400.21,207.37"/>
        <lane id=":3790696293_0_1" index="1" disallow="tram rail_urban rail rail_electric ship" speed="13.89" length="0.25" shape="397.83,205.08 397.64,205.31"/>
    </edge>
    <edge id=":3790696295_0" function="internal">
        <lane id=":3790696295_0_0" index="0" disallow="tram rail_urban rail rail_electric ship" speed="11.11" length="6.06" shape="395.88,212.78 394.71,214.15 393.90,215.14 393.39,216.25 393.09,217.98"/>
    </edge>
    <edge id=":3790696295_1" function="internal">
        <lane id=":3790696295_1_0" index="0" disallow="tram rail_urban rail rail_electric ship" speed="13.89" length="3.00" shape="395.88,212.78 394.14,215.09"/>
        <lane id=":3790696295_1_1" index="1" disallow="tram rail_urban rail rail_electric ship" speed="13.89" length="3.00" shape="393.31,210.71 391.44,213.19"/>
    </edge>
    <edge id=":3790696297_0" function="internal">
        <lane id=":3790696297_0_0" index="0" disallow="tram rail_urban rail rail_electric ship" speed="11.11" length="6.90" shape="393.31,224.86 391.01,224.56 389.19,224.67 387.83,225.20 386.94,226.15"/>
    </edge>
    <edge id=":3790696297_1" function="internal">
        <lane id=":3790696297_1_0" index="0" disallow="tram rail_urban rail rail_electric ship" speed="11.11" length="10.64" shape="393.31,224.86 389.87,223.89 387.45,222.55 386.05,220.84 385.67,218.78"/>
    </edge>
    <edge id=":3790696297_2" function="internal">
        <lane id=":3790696297_2_0" index="0" disallow="tram rail_urban rail rail_electric ship" speed="8.33" length="4.82" shape="393.31,224.86 392.26,223.81 392.01,222.92 392.58,222.19 393.96,221.63"/>
    </edge>
    <edge id=":3790696297_3" function="internal">
        <lane id=":3790696297_3_0" index="0" disallow="tram rail_urban rail rail_electric ship" speed="11.11" length="5.68" shape="392.43,217.52 391.64,219.03 391.64,220.21 392.41,221.08 393.96,221.63"/>
    </edge>
    <edge id=":3790696297_4" function="internal">
        <lane id=":3790696297_4_0" index="0" disallow="tram rail_urban rail rail_electric ship" speed="13.89" length="10.31" shape="392.43,217.52 390.68,220.01 389.53,221.74 388.45,223.52 386.94,226.15"/>
        <lane id=":3790696297_4_1" index="1" disallow="tram rail_urban rail rail_electric ship" speed="13.89" length="10.31" shape="389.64,215.75 387.87,218.27 386.70,220.03 385.61,221.84 384.07,224.51"/>
    </edge>
    <edge id=":3790696297_6" function="internal">
        <lane id=":3790696297_6_0" index="0" disallow="tram rail_urban rail rail_electric ship" speed="13.89" length="6.46" shape="389.64,215.75 387.84,218.14 386.58,219.45 385.85,219.66 385.67,218.78"/>
    </edge>
    <edge id=":3790696299_0" function="internal">
        <lane id=":3790696299_0_0" index="0" disallow="tram rail_urban rail rail_electric ship" speed="15.28" length="5.98" shape="370.82,244.36 365.21,242.30"/>
    </edge>
    <edge id=":3790696299_1" function="internal">
        <lane id=":3790696299_1_0" index="0" disallow="tram rail_urban rail rail_electric ship" speed="18.05" length="3.98" shape="370.82,244.36 370.25,243.93 370.09,243.20 370.32,242.17 370.96,240.85"/>
    </edge>
    <edge id=":3790696299_2" function="internal">
        <lane id=":3790696299_2_0" index="0" disallow="tram rail_urban rail rail_electric ship" speed="11.11" length="3.62" shape="364.50,245.59 364.95,244.76 365.39,243.75 365.56,242.84 365.21,242.30"/>
    </edge>
    <edge id=":3790696299_3" function="internal">
        <lane id=":3790696299_3_0" index="0" disallow="tram rail_urban rail rail_electric ship" speed="13.89" length="7.30" shape="364.50,245.59 368.09,239.21"/>
        <lane id=":3790696299_3_1" index="1" disallow="tram rail_urban rail rail_electric ship" speed="13.89" length="7.30" shape="367.39,247.20 370.96,240.85"/>
    </edge>
    <edge id=":3790696300_0" function="internal">
        <lane id=":3790696300_0_0" index="0" disallow="tram rail_urban rail rail_electric ship" speed="13.89" length="0.30" shape="361.31,251.35 361.46,251.08"/>
        <lane id=":3790696300_0_1" index="1" disallow="tram rail_urban rail rail_electric ship" speed="13.89" length="0.30" shape="364.20,252.94 364.34,252.68"/>
    </edge>
    <edge id=":3790696301_0" function="internal">
        <lane id=":3790696301_0_0" index="0" disallow="tram rail_urban rail rail_electric ship" speed="13.89" length="0.27" shape="370.05,255.70 369.94,255.90"/>
        <lane id=":3790696301_0_1" index="1" disallow="tram rail_urban rail rail_electric ship" speed="13.89" length="0.27" shape="367.22,254.00 367.06,254.27"/>
    </edge>
    <edge id=":3815833413_0" function="internal">
        <lane id=":3815833413_0_0" index="0" allow="bicycle pedestrian" speed="2.78" length="3.07" width="2.00" shape="391.10,229.37 391.95,228.94 392.54,228.98 392.86,229.47 392.93,230.41"/>
    </edge>
    <edge id=":3815833414_0" function="internal">
        <lane id=":3815833414_0_0" index="0" allow="bicycle pedestrian" speed="4.17" length="6.64" width="2.00" shape="361.66,232.32 363.37,232.17 364.87,231.61 366.15,230.65 367.22,229.30"/>
    </edge>
    <edge id=":3815833414_1" function="internal">
        <lane id=":3815833414_1_0" index="0" allow="bicycle" speed="5.56" length="1.61" width="1.00" shape="361.66,232.32 362.06,232.61 362.19,232.89 362.05,233.16 361.63,233.42"/>
    </edge>
    <edge id=":3889644102_0" function="internal">
        <lane id=":3889644102_0_0" index="0" disallow="tram rail_urban rail rail_electric ship" speed="13.89" length="0.26" shape="444.75,155.93 444.66,156.02"/>
        <lane id=":3889644102_0_1" index="1" disallow="tram rail_urban rail rail_electric ship" speed="13.89" length="0.26" shape="442.48,153.53 442.21,153.81"/>
    </edge>
    <edge id=":3889644103_0" function="internal">
        <lane id=":3889644103_0_0" index="0" disallow="tram rail_urban rail rail_electric ship" speed="13.89" length="0.24" shape="433.45,154.45 433.66,154.22"/>
        <lane id=":3889644103_0_1" index="1" disallow="tram rail_urban rail rail_electric ship" speed="13.89" length="0.24" shape="435.94,156.62 436.05,156.49"/>
    </edge>
    <edge id=":3971103570_0" function="internal">
        <lane id=":3971103570_0_0" index="0" allow="delivery bicycle pedestrian" speed="5.56" length="4.65" shape="389.84,199.57 386.33,196.53"/>
    </edge>
    <edge id=":3971103570_1" function="internal">
        <lane id=":3971103570_1_0" index="0" allow="bicycle pedestrian" speed="4.17" length="2.52" width="2.00" shape="389.84,199.57 389.36,198.58 389.62,197.18"/>
    </edge>
    <edge id=":3971103570_2" function="internal">
        <lane id=":3971103570_2_0" index="0" allow="delivery bicycle pedestrian" speed="5.56" length="2.41" shape="389.84,199.57 389.50,198.12 389.75,197.24"/>
    </edge>
    <edge id=":3971103570_9" function="internal">
        <lane id=":3971103570_9_0" index="0" speed="4.17" length="4.87" width="2.00" shape="389.62,197.18 390.61,195.38 392.34,193.16"/>
    </edge>
    <edge id=":3971103570_10" function="internal">
        <lane id=":3971103570_10_0" index="0" speed="5.56" length="2.41" shape="389.75,197.24 390.62,196.91 392.09,197.15"/>
    </edge>
    <edge id=":3971103570_3" function="internal">
        <lane id=":3971103570_3_0" index="0" allow="bicycle pedestrian" speed="4.17" length="4.53" width="2.00" shape="388.41,193.96 389.36,194.49 390.34,194.54 391.33,194.09 392.34,193.16"/>
    </edge>
    <edge id=":3971103570_4" function="internal">
        <lane id=":3971103570_4_0" index="0" allow="delivery bicycle pedestrian" speed="5.56" length="4.87" shape="388.41,193.96 392.09,197.15"/>
    </edge>
    <edge id=":3971103570_5" function="internal">
        <lane id=":3971103570_5_0" index="0" allow="delivery bicycle pedestrian" speed="5.56" length="2.52" shape="388.41,193.96 388.85,195.38 388.65,196.29 388.55,196.33"/>
    </edge>
    <edge id=":3971103570_11" function="internal">
        <lane id=":3971103570_11_0" index="0" speed="5.56" length="2.30" shape="388.55,196.33 387.81,196.67 386.33,196.53"/>
    </edge>
    <edge id=":3971103570_6" function="internal">
        <lane id=":3971103570_6_0" index="0" allow="delivery bicycle pedestrian" speed="4.17" length="4.60" shape="386.28,200.58 387.03,199.40 387.29,198.33 387.05,197.37 386.33,196.53"/>
    </edge>
    <edge id=":3971103570_7" function="internal">
        <lane id=":3971103570_7_0" index="0" allow="bicycle pedestrian" speed="2.78" length="9.58" width="2.00" shape="386.28,200.58 392.34,193.16"/>
    </edge>
    <edge id=":3971103570_8" function="internal">
        <lane id=":3971103570_8_0" index="0" allow="delivery bicycle pedestrian" speed="4.17" length="7.35" shape="386.28,200.58 388.16,198.47 389.76,197.20 391.07,196.76 392.09,197.15"/>
    </edge>
    <edge id=":3971103577_0" function="internal">
        <lane id=":3971103577_0_0" index="0" allow="delivery bicycle pedestrian" speed="5.56" length="4.82" shape="319.69,171.05 318.22,171.27 317.36,170.94 317.11,170.05 317.48,168.61"/>
    </edge>
    <edge id=":3971103633_0" function="internal">
        <lane id=":3971103633_0_0" index="0" disallow="tram rail_urban rail rail_electric ship" speed="13.89" length="7.83" shape="379.86,219.21 384.07,212.62"/>
        <lane id=":3971103633_0_1" index="1" disallow="tram rail_urban rail rail_electric ship" speed="13.89" length="7.83" shape="382.64,220.99 386.86,214.39"/>
    </edge>
    <edge id=":3971103633_2" function="internal">
        <lane id=":3971103633_2_0" index="0" disallow="tram rail_urban rail rail_electric ship" speed="13.89" length="4.44" shape="385.68,218.58 385.75,217.27 385.88,216.36 386.20,215.51 386.86,214.39"/>
    </edge>
    <edge id=":3971103634_0" function="internal">
        <lane id=":3971103634_0_0" index="0" disallow="tram rail_urban rail rail_electric ship" speed="13.89" length="6.35" shape="376.88,244.11 373.67,249.64"/>
        <lane id=":3971103634_0_1" index="1" disallow="tram rail_urban rail rail_electric ship" speed="13.89" length="6.35" shape="373.99,242.50 370.83,247.95"/>
    </edge>
    <edge id=":3971103634_2" function="internal">
        <lane id=":3971103634_2_0" index="0" disallow="tram rail_urban rail rail_electric ship" speed="18.05" length="3.87" shape="373.99,242.50 373.28,243.57 372.55,244.24 371.79,244.53 371.01,244.43"/>
    </edge>
    <edge id=":3971103767_0" function="internal">
        <lane id=":3971103767_0_0" index="0" disallow="tram rail_urban rail rail_electric ship" speed="13.89" length="0.43" shape="366.54,239.39 366.66,239.36 366.74,239.32 366.81,239.27 366.92,239.19"/>
    </edge>
    <edge id=":3971103768_0" function="internal">
        <lane id=":3971103768_0_0" index="0" disallow="tram rail_urban rail rail_electric ship" speed="13.89" length="6.50" shape="367.18,239.02 368.70,237.90 369.55,236.89 370.18,235.69 371.07,233.98"/>
    </edge>
    <edge id=":3971103768_1" function="internal">
        <lane id=":3971103768_1_0" index="0" disallow="tram rail_urban rail rail_electric ship" speed="13.89" length="3.00" shape="369.59,236.58 371.07,233.98"/>
        <lane id=":3971103768_1_1" index="1" disallow="tram rail_urban rail rail_electric ship" speed="13.89" length="3.00" shape="372.46,238.22 373.94,235.61"/>
    </edge>
    <edge id=":3971103772_0" function="internal">
        <lane id=":3971103772_0_0" index="0" disallow="tram rail_urban rail rail_electric ship" speed="8.33" length="1.16" shape="392.98,219.03 392.96,219.37 392.98,219.61 393.08,219.83 393.26,220.11"/>
    </edge>
    <edge id=":5119194946_0" function="internal">
        <lane id=":5119194946_0_0" index="0" disallow="tram rail_urban rail rail_electric ship" speed="8.33" length="8.07" shape="365.02,242.24 362.70,241.70 361.00,241.69 359.35,241.58 357.18,240.71"/>
    </edge>
    <edge id=":5119194946_1" function="internal">
        <lane id=":5119194946_1_0" index="0" disallow="tram rail_urban rail rail_electric ship" speed="11.11" length="2.13" shape="365.02,242.24 363.25,241.39 363.18,241.24"/>
    </edge>
    <edge id=":5119194946_4" function="internal">
        <lane id=":5119194946_4_0" index="0" speed="11.11" length="4.36" shape="363.18,241.24 362.88,240.64 363.90,239.98 366.31,239.43"/>
    </edge>
    <edge id=":5119194946_2" function="internal">
        <lane id=":5119194946_2_0" index="0" disallow="tram rail_urban rail rail_electric ship" speed="11.11" length="7.95" shape="358.79,237.83 360.85,238.96 362.39,239.57 364.01,239.70 366.31,239.43"/>
    </edge>
    <edge id=":5119194946_3" function="internal">
        <lane id=":5119194946_3_0" index="0" disallow="tram rail_urban rail rail_electric ship" speed="8.33" length="2.22" shape="358.79,237.83 359.47,239.16 359.43,239.89"/>
    </edge>
    <edge id=":5119194946_5" function="internal">
        <lane id=":5119194946_5_0" index="0" speed="8.33" length="2.60" shape="359.43,239.89 359.43,240.08 358.66,240.60 357.18,240.71"/>
    </edge>
    <edge id=":5119194973_0" function="internal">
        <lane id=":5119194973_0_0" index="0" allow="bicycle" speed="5.56" length="1.61" width="1.00" shape="349.65,231.28 349.19,231.09 349.00,230.84 349.09,230.55 349.44,230.20"/>
    </edge>
    <edge id=":59654694_0" function="internal">
        <lane id=":59654694_0_0" index="0" disallow="tram rail_urban rail rail_electric ship" speed="8.33" length="4.82" shape="255.80,184.07 255.12,182.74 255.16,181.82 255.93,181.30 257.41,181.19"/>
    </edge>

    <edge id="-375727032" from="2174961454" to="3790696297" priority="4" type="highway.residential">
        <lane id="-375727032_0" index="0" disallow="tram rail_urban rail rail_electric ship" speed="8.33" length="121.30" shape="512.21,248.84 393.31,224.86"/>
    </edge>
    <edge id="-376710253" from="3325293450" to="3815833413" priority="1" type="highway.path">
        <lane id="-376710253_0" index="0" allow="bicycle pedestrian" speed="2.78" length="33.15" width="2.00" shape="374.66,258.15 391.10,229.37"/>
    </edge>
    <edge id="-394076917#0" from="3971103570" to="3790696292" priority="2" type="highway.service">
        <lane id="-394076917#0_0" index="0" allow="delivery bicycle pedestrian" speed="5.56" length="0.20" shape="392.09,197.15 392.23,197.29"/>
    </edge>
    <edge id="-394076917#1" from="3971103577" to="3971103570" priority="2" type="highway.service" shape="318.59,169.83 328.19,161.11 333.25,155.92 335.93,154.77 344.70,157.00 351.84,162.57 363.75,176.07 389.30,196.82">
        <lane id="-394076917#1_0" index="0" allow="delivery bicycle pedestrian" speed="5.56" length="92.07" shape="317.48,168.61 327.05,159.92 332.30,154.53 335.80,153.03 345.45,155.49 352.97,161.36 364.90,174.87 388.41,193.96"/>
    </edge>
    <edge id="-526422259" from="5119194946" to="59654694" priority="4" type="highway.residential">
        <lane id="-526422259_0" index="0" disallow="tram rail_urban rail rail_electric ship" speed="8.33" length="116.13" shape="357.18,240.71 255.80,184.07"/>
    </edge>
    <edge id="-526422275" from="3815833414" to="5119194973" priority="1" type="highway.cycleway" shape="364.96,232.95 360.63,232.85 357.88,232.51 355.68,231.82 352.39,230.18 349.54,230.74">
        <lane id="-526422275_0" index="0" allow="bicycle" speed="5.56" length="12.53" width="1.00" shape="361.63,233.42 360.59,233.40 357.76,233.05 355.47,232.33 352.32,230.76 349.65,231.28"/>
    </edge>
    <edge id="294126391" from="2976985591" to="3815833414" priority="1" type="highway.footway" spreadType="center" shape="45.50,0.00 44.03,3.84 42.41,5.63 22.69,27.45 11.61,39.70 1.80,50.30 0.00,52.24 1.32,59.21 5.98,64.05 64.05,86.36 68.26,87.98 72.08,89.51 105.68,102.94 125.09,110.68 150.38,120.79 157.66,123.70 163.03,126.23 166.96,128.09 223.27,158.31 259.85,177.94 358.63,231.38 360.81,231.43 364.62,230.38 364.96,232.95">
        <lane id="294126391_0" index="0" allow="pedestrian" speed="2.78" length="478.78" width="2.00" shape="45.50,0.00 44.03,3.84 42.41,5.63 22.69,27.45 11.61,39.70 1.80,50.30 0.00,52.24 1.32,59.21 5.98,64.05 64.05,86.36 68.26,87.98 72.08,89.51 105.68,102.94 125.09,110.68 150.38,120.79 157.66,123.70 163.03,126.23 166.96,128.09 223.27,158.31 259.85,177.94 358.63,231.38 360.81,231.43 362.97,230.83"/>
    </edge>
    <edge id="375727027#0" from="3790696299" to="3971103768" priority="7" type="highway.secondary" spreadType="center">
        <lane id="375727027#0_0" index="0" disallow="tram rail_urban rail rail_electric ship" speed="13.89" length="3.03" shape="368.09,239.21 369.59,236.58"/>
        <lane id="375727027#0_1" index="1" disallow="tram rail_urban rail rail_electric ship" speed="13.89" length="3.03" shape="370.96,240.85 372.46,238.22"/>
    </edge>
    <edge id="375727027#1" from="3971103768" to="3971103633" priority="7" type="highway.secondary" spreadType="center" shape="371.77,236.10 377.79,225.52 386.02,212.63">
        <lane id="375727027#1_0" index="0" disallow="tram rail_urban rail rail_electric ship" speed="13.89" length="17.10" shape="371.07,233.98 376.38,224.67 379.86,219.21"/>
        <lane id="375727027#1_1" index="1" disallow="tram rail_urban rail rail_electric ship" speed="13.89" length="17.10" shape="373.94,235.61 379.20,226.37 382.64,220.99"/>
    </edge>
    <edge id="375727027#2" from="3971103633" to="3790696292" priority="7" type="highway.secondary" spreadType="center" shape="386.02,212.63 386.78,211.44 394.31,201.46">
        <lane id="375727027#2_0" index="0" disallow="tram rail_urban rail rail_electric ship" speed="13.89" length="10.51" shape="384.07,212.62 385.42,210.50 390.32,204.01"/>
        <lane id="375727027#2_1" index="1" disallow="tram rail_urban rail rail_electric ship" speed="13.89" length="10.51" shape="386.86,214.39 388.13,212.38 392.95,206.00"/>
    </edge>
    <edge id="375727027#3" from="3790696292" to="3889644103" priority="7" type="highway.secondary" spreadType="center" shape="394.31,201.46 418.84,173.69 434.77,155.44">
        <lane id="375727027#3_0" index="0" disallow="tram rail_urban rail rail_electric ship" speed="13.89" length="56.33" shape="396.27,196.75 417.60,172.60 433.45,154.45"/>
        <lane id="375727027#3_1" index="1" disallow="tram rail_urban rail rail_electric ship" speed="13.89" length="56.33" shape="398.74,198.93 420.08,174.78 435.94,156.62"/>
    </edge>
    <edge id="375727027#4" from="3889644103" to="3790696281" priority="7" type="highway.secondary" spreadType="center" shape="434.77,155.44 437.13,152.95 446.13,142.89 456.97,133.72 459.59,131.82 472.30,122.60">
        <lane id="375727027#4_0" index="0" disallow="tram rail_urban rail rail_electric ship" speed="13.89" length="49.94" shape="433.66,154.22 435.92,151.83 444.98,141.71 455.96,132.42 458.62,130.49 471.33,121.26"/>
        <lane id="375727027#4_1" index="1" disallow="tram rail_urban rail rail_electric ship" speed="13.89" length="49.94" shape="436.05,156.49 438.35,154.07 447.29,144.08 457.99,135.02 460.56,133.16 473.27,123.93"/>
    </edge>
    <edge id="375727032" from="3790696297" to="2174961454" priority="4" type="highway.residential">
        <lane id="375727032_0" index="0" disallow="tram rail_urban rail rail_electric ship" speed="8.33" length="121.30" shape="393.96,221.63 512.87,245.60"/>
    </edge>
    <edge id="376710253" from="3815833413" to="3325293450" priority="1" type="highway.path">
        <lane id="376710253_0" index="0" allow="bicycle pedestrian" speed="2.78" length="33.15" width="2.00" shape="392.93,230.41 376.49,259.19"/>
    </edge>
    <edge id="394076917#0" from="3790696292" to="3971103570" priority="2" type="highway.service">
        <lane id="394076917#0_0" index="0" allow="delivery bicycle pedestrian" speed="5.56" length="0.20" shape="389.99,199.71 389.84,199.57"/>
    </edge>
    <edge id="394076917#1" from="3971103570" to="3971103577" priority="2" type="highway.service" shape="389.30,196.82 363.75,176.07 351.84,162.57 344.70,157.00 335.93,154.77 333.25,155.92 328.19,161.11 318.59,169.83">
        <lane id="394076917#1_0" index="0" allow="delivery bicycle pedestrian" speed="5.56" length="87.27" shape="386.33,196.53 362.61,177.26 350.70,163.77 343.96,158.51 336.07,156.51 334.20,157.30 329.34,162.29 319.69,171.05"/>
    </edge>
    <edge id="394076960#0" from="3790696283" to="3889644102" priority="7" type="highway.secondary" spreadType="center" shape="477.88,126.70 463.09,137.26 452.86,145.65 445.61,152.84 443.52,154.82">
        <lane id="394076960#0_0" index="0" disallow="tram rail_urban rail rail_electric ship" speed="13.89" length="44.36" shape="478.84,128.04 464.10,138.57 453.97,146.87 446.77,154.02 444.75,155.93"/>
        <lane id="394076960#0_1" index="1" disallow="tram rail_urban rail rail_electric ship" speed="13.89" length="44.36" shape="476.92,125.35 462.09,135.95 451.76,144.42 444.46,151.66 442.48,153.53"/>
    </edge>
    <edge id="394076960#1" from="3889644102" to="3790696291" priority="7" type="highway.secondary" spreadType="center" shape="443.52,154.82 441.49,157.08 405.59,198.54">
        <lane id="394076960#1_0" index="0" disallow="tram rail_urban rail rail_electric ship" speed="13.89" length="57.60" shape="444.66,156.02 442.73,158.17 406.93,199.50"/>
        <lane id="394076960#1_1" index="1" disallow="tram rail_urban rail rail_electric ship" speed="13.89" length="57.60" shape="442.21,153.81 440.25,155.99 404.44,197.34"/>
    </edge>
    <edge id="394076991" from="3790696297" to="3971103633" priority="4" type="highway.residential" spreadType="center" shape="387.41,221.99 385.66,218.86 386.02,212.63">
        <lane id="394076991_0" index="0" disallow="tram rail_urban rail rail_electric ship" speed="13.89" length="0.20" shape="385.67,218.78 385.68,218.58"/>
    </edge>
    <edge id="394076993" from="3971103634" to="3790696299" priority="6" type="highway.tertiary" spreadType="center">
        <lane id="394076993_0" index="0" disallow="tram rail_urban rail rail_electric ship" speed="22.22" length="0.20" shape="371.01,244.43 370.82,244.36"/>
    </edge>
    <edge id="394077003#0" from="3790696302" to="3790696300" priority="7" type="highway.secondary" spreadType="center" shape="338.07,295.59 359.34,258.36 362.83,252.01">
        <lane id="394077003#0_0" index="0" disallow="tram rail_urban rail rail_electric ship" speed="13.89" length="49.97" shape="336.64,294.77 357.90,257.55 361.31,251.35"/>
        <lane id="394077003#0_1" index="1" disallow="tram rail_urban rail rail_electric ship" speed="13.89" length="49.97" shape="339.50,296.41 360.78,259.16 364.20,252.94"/>
    </edge>
    <edge id="394077003#1" from="3790696300" to="3790696299" priority="7" type="highway.secondary" spreadType="center">