<?xml version="1.0" encoding="UTF-8"?>

<!-- generated on 16.02.2021 11:03:53 by Eclipse SUMO netedit Version v1_8_0+1218-475db5b72d
<configuration xmlns:xsi="http://www.w3.org/2001/XMLSchema-instance" xsi:noNamespaceSchemaLocation="http://sumo.dlr.de/xsd/netconvertConfiguration.xsd">

    <input>
        <sumo-net-file value="C:\Users\alva_pa\.texttest\tmp\netedit.gui.16Feb110336.17304\netedit.gui\demandElements\basic\separated_vtypes\input_net.net.xml"/>
    </input>

    <output>
        <output-file value="C:\Users\alva_pa\.texttest\tmp\netedit.gui.16Feb110336.17304\netedit.gui\demandElements\basic\separated_vtypes\net.net.xml"/>
    </output>

    <processing>
        <geometry.min-radius.fix.railways value="false"/>
        <geometry.max-grade.fix value="false"/>
        <offset.disable-normalization value="true"/>
        <lefthand value="false"/>
    </processing>

    <junctions>
        <no-turnarounds value="true"/>
        <junctions.corner-detail value="5"/>
        <junctions.limit-turn-speed value="5.5"/>
        <rectangular-lane-cut value="false"/>
    </junctions>

    <pedestrian>
        <walkingareas value="false"/>
    </pedestrian>

    <netedit>
        <additional-files value="C:\Users\alva_pa\.texttest\tmp\netedit.gui.16Feb110336.17304\netedit.gui\demandElements\basic\separated_vtypes\additionals.xml"/>
        <additionals-output value="C:\Users\alva_pa\.texttest\tmp\netedit.gui.16Feb110336.17304\netedit.gui\demandElements\basic\separated_vtypes\additionals.xml"/>
        <route-files value="C:\Users\alva_pa\.texttest\tmp\netedit.gui.16Feb110336.17304\netedit.gui\demandElements\basic\separated_vtypes\routes.xml"/>
        <demandelements-output value="C:\Users\alva_pa\.texttest\tmp\netedit.gui.16Feb110336.17304\netedit.gui\demandElements\basic\separated_vtypes\routes.xml"/>
        <data-files value="C:\Users\alva_pa\.texttest\tmp\netedit.gui.16Feb110336.17304\netedit.gui\demandElements\basic\separated_vtypes\datas.xml"/>
        <dataelements-output value="C:\Users\alva_pa\.texttest\tmp\netedit.gui.16Feb110336.17304\netedit.gui\demandElements\basic\separated_vtypes\datas.xml"/>
    </netedit>

    <visualisation>
        <gui-settings-file value="C:\Users\alva_pa\.texttest\tmp\netedit.gui.16Feb110336.17304\netedit.gui\demandElements\basic\separated_vtypes\gui-settings.xml"/>
        <window-size value="936,697"/>
        <window-pos value="50,50"/>
        <gui-testing value="true"/>
        <gui-testing-debug value="true"/>
        <gui-testing-debug-gl value="true"/>
        <gui-testing.setting-output value="C:\Users\alva_pa\.texttest\tmp\netedit.gui.16Feb110336.17304\netedit.gui\demandElements\basic\separated_vtypes\guisettingsoutput.xml"/>
    </visualisation>

    <report>
        <no-warnings value="true"/>
        <aggregate-warnings value="5"/>
        <error-log value="C:\Users\alva_pa\.texttest\tmp\netedit.gui.16Feb110336.17304\netedit.gui\demandElements\basic\separated_vtypes\log.txt"/>
    </report>

</configuration>
-->

<routes xmlns:xsi="http://www.w3.org/2001/XMLSchema-instance" xsi:noNamespaceSchemaLocation="http://sumo.dlr.de/xsd/routes_file.xsd">
    <vType id="custom_vType" color="23,45,67"/>
    <route edges="gneE2 gneE4 gneE5" color="yellow" id="route_0"/>
    <vehicle id="vehicle_0" type="custom_vType" depart="20.00" route="route_0"/>
</routes>
