<?xml version="1.0" encoding="UTF-8"?>

<routes xmlns:xsi="http://www.w3.org/2001/XMLSchema-instance" xsi:noNamespaceSchemaLocation="http://sumo.dlr.de/xsd/routes_file.xsd">
    <route edges="gneE2 gneE4 gneE5" color="yellow" id="route_0"/>
    <vehicle id="vehicle_0" type="custom_vType" depart="20.00" route="route_0"/>
</routes>