<?xml version="1.0" encoding="utf-8"?>
<!DOCTYPE population SYSTEM "http://www.matsim.org/files/dtd/population_v6.dtd">

<population>

	<attributes>
		<attribute name="coordinateReferenceSystem" class="java.lang.String" >GK4</attribute>
	</attributes>


<!-- ====================================================================== -->

	<person id="10000001">
		<attributes>
			<attribute name="home-activity-zone" class="java.lang.String" >brandenburg</attribute>
			<attribute name="subpopulation" class="java.lang.String" >person</attribute>
		</attributes>
		<plan score="69.15514945414091" selected="yes">
			<activity type="home_77400.0" link="144395" x="4603071.199838993" y="5705495.849204387" end_time="09:17:00" >
				<attributes>
					<attribute name="zoneId" class="java.lang.String" >12062410</attribute>
				</attributes>
			</activity>
			<leg mode="non_network_walk" dep_time="09:17:00">
				<route type="generic" start_link="144395" end_link="144395" trav_time="00:06:50" distance="820.9624695986402"></route>
			</leg>
			<activity type="car interaction" link="144395" x="4602585.759970994" y="5705899.77060682" max_dur="00:00:00" >
			</activity>
			<leg mode="car" dep_time="09:23:50">
				<route type="links" start_link="144395" end_link="134075" trav_time="00:09:23" distance="7483.395897460802" vehicleRefId="10000001">144395 13185 110920 110771 110773 13324 110367 110369 143404 98098 143528 111248 111278 111280 143420 143410 131204 133161 13679 93161 26733 26730 46537 41913 134075</route>
			</leg>
			<activity type="car interaction" link="134075" x="4597263.703775147" y="5709947.268397132" max_dur="00:00:00" >
			</activity>
			<leg mode="non_network_walk" dep_time="09:33:13">
				<route type="generic" start_link="134075" end_link="134075" trav_time="00:03:06" distance="373.3776016052998"></route>
			</leg>
			<activity type="shopping_600.0" link="134075" x="4597351.588486795" y="5710220.705583417" max_dur="00:05:00" >
				<attributes>
					<attribute name="cemdapStopDuration_s" class="java.lang.Integer" >300</attribute>
					<attribute name="zoneId" class="java.lang.String" >12062024</attribute>
				</attributes>
			</activity>
			<leg mode="non_network_walk" dep_time="09:41:19">
				<route type="generic" start_link="134075" end_link="134075" trav_time="00:03:06" distance="373.3776016052998"></route>
			</leg>
			<activity type="car interaction" link="134075" x="4597263.703775147" y="5709947.268397132" max_dur="00:00:00" >
			</activity>
			<leg mode="car" dep_time="09:44:25">
				<route type="links" start_link="134075" end_link="77361" trav_time="00:17:24" distance="17849.917799427174" vehicleRefId="10000001">134075 137218 55958 55956 13681 134069 137724 60429 53966 155431 54475 4865 92765 157313 98219 157305 20747 20736 20749 69603 69613 69617 73428 73436 77370 77267 4859 157309 4857 40022 40020 103508 103510 157281 4863 73434 73438 73440 73287 73432 4861 157295 157285 18715 18713 77364 56371 157287 123456 157289 123460 123448 123452 77368 157283 77362 77361</route>
			</leg>
			<activity type="car interaction" link="77361" x="4585131.825909856" y="5712672.60526504" max_dur="00:00:00" >
			</activity>
			<leg mode="non_network_walk" dep_time="10:01:49">
				<route type="generic" start_link="77361" end_link="77361" trav_time="00:14:17" distance="1715.0601937227968"></route>
			</leg>
			<activity type="other_600.0" link="77361" x="4583822.408322443" y="5712833.594627201" max_dur="00:12:00" >
				<attributes>
					<attribute name="cemdapStopDuration_s" class="java.lang.Integer" >720</attribute>
					<attribute name="zoneId" class="java.lang.String" >12062341</attribute>
				</attributes>
			</activity>
			<leg mode="non_network_walk" dep_time="10:28:06">
				<route type="generic" start_link="77361" end_link="77361" trav_time="00:14:17" distance="1715.0601937227968"></route>
			</leg>
			<activity type="car interaction" link="77361" x="4585131.825909856" y="5712672.60526504" max_dur="00:00:00" >
			</activity>
			<leg mode="car" dep_time="10:42:23">
				<route type="links" start_link="77361" end_link="31841" trav_time="00:41:44" distance="34203.776229684496" vehicleRefId="10000001">77361 157282 77367 123451 123447 123459 157288 123455 157286 56370 77363 18712 18714 157284 157294 4860 73431 73286 73439 73437 73433 4862 157280 103509 103507 40019 40021 4856 157308 4858 77266 77369 73435 73427 69616 69612 69602 20748 20735 20746 157304 98218 157312 92764 4864 54476 155427 155428 155429 53964 60430 137725 134070 13682 55957 55812 137219 134076 41914 46538 26731 26732 93162 13680 133162 131205 143411 143421 111281 93540 6914 98101 143405 110370 22540 115801 144154 152637 152641 46550 46544 152610 152539 152531 152551 46546 152606 152584 158392 157316 18486 146555 109917 28832 17495 17352 72035 17914 17890 32164 127922 74865 16919 16913 109920 10267 54749 31842 31841</route>
			</leg>
			<activity type="car interaction" link="31841" x="4608312.293983194" y="5708117.528661269" max_dur="00:00:00" >
			</activity>
			<leg mode="non_network_walk" dep_time="11:24:07">
				<route type="generic" start_link="31841" end_link="31841" trav_time="00:00:32" distance="64.66267022139832"></route>
			</leg>
			<activity type="shopping_3000.0" link="31841" x="4608361.116197486" y="5708108.014972223" max_dur="00:54:00" >
				<attributes>
					<attribute name="cemdapStopDuration_s" class="java.lang.Integer" >3240</attribute>
					<attribute name="zoneId" class="java.lang.String" >12062240</attribute>
				</attributes>
			</activity>
			<leg mode="non_network_walk" dep_time="12:18:39">
				<route type="generic" start_link="31841" end_link="31841" trav_time="00:00:32" distance="64.66267022139832"></route>
			</leg>
			<activity type="car interaction" link="31841" x="4608312.293983194" y="5708117.528661269" max_dur="00:00:00" >
			</activity>
			<leg mode="car" dep_time="12:19:11">
				<route type="links" start_link="31841" end_link="144395" trav_time="00:14:56" distance="10275.939090685248" vehicleRefId="10000001">31841 54748 10266 109919 16912 16918 74864 127921 32163 17889 17913 72034 17351 17494 28833 109918 146556 18485 157317 158391 152582 46585 152523 46589 24726 152594 133144 144395</route>
			</leg>
			<activity type="car interaction" link="144395" x="4602585.759970994" y="5705899.77060682" max_dur="00:00:00" >
			</activity>
			<leg mode="non_network_walk" dep_time="12:34:07">
				<route type="generic" start_link="144395" end_link="144395" trav_time="00:06:50" distance="820.9624695986402"></route>
			</leg>
			<activity type="home_3000.0" link="144395" x="4603071.199838993" y="5705495.849204387" max_dur="00:45:00" >
				<attributes>
					<attribute name="cemdapStopDuration_s" class="java.lang.Integer" >2700</attribute>
					<attribute name="zoneId" class="java.lang.String" >12062410</attribute>
				</attributes>
			</activity>
			<leg mode="non_network_walk" dep_time="13:25:57">
				<route type="generic" start_link="144395" end_link="144395" trav_time="00:06:50" distance="820.9624695986402"></route>
			</leg>
			<activity type="car interaction" link="144395" x="4602585.759970994" y="5705899.77060682" max_dur="00:00:00" >
			</activity>
			<leg mode="car" dep_time="13:32:47">
				<route type="links" start_link="144395" end_link="106140" trav_time="00:27:54" distance="16777.40842211167" vehicleRefId="10000001">144395 144396 133145 152592 125365 152623 125377 125373 152629 152625 152633 152631 46579 152627 143158 64491 152567 152575 64493 14950 152643 70337 110903 81987 95465 129162 125367 125375 67670 67906 67893 25040 143820 25933 67916 76667 76665 25138 143802 110894 25056 128334 128328 155332 112176 112182 155339 20181 95453 124643 36231 104080 36229 30860 134278 73078 134284 134276 134274 73092 133695 106141 106140</route>
			</leg>
			<activity type="car interaction" link="106140" x="4609622.857217953" y="5697718.280617254" max_dur="00:00:00" >
			</activity>
			<leg mode="non_network_walk" dep_time="14:00:41">
				<route type="generic" start_link="106140" end_link="106140" trav_time="00:08:18" distance="997.1236484646269"></route>
			</leg>
			<activity type="other_600.0" link="106140" x="4609163.772113372" y="5698332.737916235" max_dur="00:07:00" >
				<attributes>
					<attribute name="cemdapStopDuration_s" class="java.lang.Integer" >420</attribute>
					<attribute name="zoneId" class="java.lang.String" >12062196</attribute>
				</attributes>
			</activity>
			<leg mode="non_network_walk" dep_time="14:15:59">
				<route type="generic" start_link="106140" end_link="106140" trav_time="00:08:18" distance="997.1236484646269"></route>
			</leg>
			<activity type="car interaction" link="106140" x="4609622.857217953" y="5697718.280617254" max_dur="00:00:00" >
			</activity>
			<leg mode="car" dep_time="14:24:17">
				<route type="links" start_link="106140" end_link="144395" trav_time="00:27:09" distance="16159.974706436898" vehicleRefId="10000001">106140 133694 73091 134273 134275 134283 73077 134277 30859 36228 104079 36230 124642 95452 20180 155338 112181 112175 155331 128329 128335 25057 110895 143803 25139 76666 76668 67917 25934 143821 25041 67892 67905 67669 125374 125366 129161 95464 81986 110902 70336 152642 14949 64492 152574 152566 64490 143157 152626 46578 152630 152632 152624 152628 125372 125376 152622 125364 152591 133144 144395</route>
			</leg>
			<activity type="car interaction" link="144395" x="4602585.759970994" y="5705899.77060682" max_dur="00:00:00" >
			</activity>
			<leg mode="non_network_walk" dep_time="14:51:26">
				<route type="generic" start_link="144395" end_link="144395" trav_time="00:06:50" distance="820.9624695986402"></route>
			</leg>
			<activity type="home_1200.0" link="144395" x="4603071.199838993" y="5705495.849204387" max_dur="00:17:00" >
				<attributes>
					<attribute name="cemdapStopDuration_s" class="java.lang.Integer" >1020</attribute>
					<attribute name="zoneId" class="java.lang.String" >12062410</attribute>
				</attributes>
			</activity>
			<leg mode="non_network_walk" dep_time="15:15:16">
				<route type="generic" start_link="144395" end_link="144395" trav_time="00:06:50" distance="820.9624695986402"></route>
			</leg>
			<activity type="car interaction" link="144395" x="4602585.759970994" y="5705899.77060682" max_dur="00:00:00" >
			</activity>
			<leg mode="car" dep_time="15:22:06">
				<route type="links" start_link="144395" end_link="73077" trav_time="00:24:46" distance="14986.405471134574" vehicleRefId="10000001">144395 144396 133145 152592 125365 152623 125377 125373 152629 152625 152633 152631 46579 152627 143158 64491 152567 152575 64493 14950 152643 70337 110903 81987 95465 129162 125367 125375 67670 67906 67893 25040 143820 25933 67916 76667 76665 25138 143802 110894 25056 128334 128328 155332 112176 112182 155339 20181 95453 124643 36231 104080 36229 30860 134278 73078 73077</route>
			</leg>
			<activity type="car interaction" link="73077" x="4607899.529280851" y="5697811.963947333" max_dur="00:00:00" >
			</activity>
			<leg mode="non_network_walk" dep_time="15:46:52">
				<route type="generic" start_link="73077" end_link="73077" trav_time="00:01:50" distance="221.03700028946386"></route>
			</leg>
			<activity type="shopping_1200.0" link="73077" x="4608025.496669308" y="5697697.762831516" max_dur="00:23:00" >
				<attributes>
					<attribute name="cemdapStopDuration_s" class="java.lang.Integer" >1380</attribute>
					<attribute name="zoneId" class="java.lang.String" >12062336</attribute>
				</attributes>
			</activity>
			<leg mode="non_network_walk" dep_time="16:11:42">
				<route type="generic" start_link="73077" end_link="73077" trav_time="00:01:50" distance="221.03700028946386"></route>
			</leg>
			<activity type="car interaction" link="73077" x="4607899.529280851" y="5697811.963947333" max_dur="00:00:00" >
			</activity>
			<leg mode="car" dep_time="16:13:32">
				<route type="links" start_link="73077" end_link="144395" trav_time="00:23:23" distance="14397.109697955259" vehicleRefId="10000001">73077 134277 30859 36228 104079 36230 124642 95452 20180 155338 112181 112175 155331 128329 128335 25057 110895 143803 25139 76666 76668 67917 25934 143821 25041 67892 67905 67669 125374 125366 129161 95464 81986 110902 70336 152642 14949 64492 152574 152566 64490 143157 152626 46578 152630 152632 152624 152628 125372 125376 152622 125364 152591 133144 144395</route>
			</leg>
			<activity type="car interaction" link="144395" x="4602585.759970994" y="5705899.77060682" max_dur="00:00:00" >
			</activity>
			<leg mode="non_network_walk" dep_time="16:36:55">
				<route type="generic" start_link="144395" end_link="144395" trav_time="00:06:50" distance="820.9624695986402"></route>
			</leg>
			<activity type="home_77400.0" link="144395" x="4603071.199838993" y="5705495.849204387" >
				<attributes>
					<attribute name="cemdapStopDuration_s" class="java.lang.Integer" >43620</attribute>
					<attribute name="zoneId" class="java.lang.String" >12062410</attribute>
				</attributes>
			</activity>
		</plan>

	</person>

<!-- ====================================================================== -->

	<person id="1000001">
		<attributes>
			<attribute name="home-activity-zone" class="java.lang.String" >brandenburg</attribute>
			<attribute name="subpopulation" class="java.lang.String" >person</attribute>
		</attributes>
		<plan score="116.79152494144024" selected="yes">
			<activity type="home_91800.0" link="25516" x="4655519.822101829" y="5752324.620366746" end_time="17:53:00" >
				<attributes>
					<attribute name="zoneId" class="java.lang.String" >12071341</attribute>
				</attributes>
			</activity>
			<leg mode="bicycle" dep_time="17:53:00">
				<route type="generic" start_link="25516" end_link="102599" trav_time="01:39:17" distance="18698.512757283603"></route>
			</leg>
			<activity type="other_1200.0" link="102599" x="4669122.245705702" y="5747649.332115998" max_dur="00:15:45" >
				<attributes>
					<attribute name="cemdapStopDuration_s" class="java.lang.Integer" >1080</attribute>
					<attribute name="zoneId" class="java.lang.String" >12071386</attribute>
				</attributes>
			</activity>
			<leg mode="bicycle" dep_time="19:48:02">
				<route type="generic" start_link="102599" end_link="25516" trav_time="01:39:17" distance="18698.512757283603"></route>
			</leg>
			<activity type="home_91800.0" link="25516" x="4655519.822101829" y="5752324.620366746" >
				<attributes>
					<attribute name="cemdapStopDuration_s" class="java.lang.Integer" >49980</attribute>
					<attribute name="zoneId" class="java.lang.String" >12071341</attribute>
				</attributes>
			</activity>
		</plan>

	</person>

<!-- ====================================================================== -->

	<person id="100002101">
		<attributes>
			<attribute name="home-activity-zone" class="java.lang.String" >brandenburg</attribute>
			<attribute name="subpopulation" class="java.lang.String" >person</attribute>
		</attributes>
		<plan score="103.71539485792593" selected="yes">
			<activity type="home_36000.0" link="71096" x="4628159.617703711" y="5828612.322300062" end_time="08:07:04" >
				<attributes>
					<attribute name="zoneId" class="java.lang.String" >12064472</attribute>
				</attributes>
			</activity>
			<leg mode="non_network_walk" dep_time="08:07:04">
				<route type="generic" start_link="71096" end_link="71096" trav_time="00:02:37" distance="314.9609780568298"></route>
			</leg>
			<activity type="car interaction" link="71096" x="4628401.843235054" y="5828617.348628381" max_dur="00:00:00" >
			</activity>
			<leg mode="car" dep_time="08:09:41">
				<route type="links" start_link="71096" end_link="43581" trav_time="00:20:30" distance="12555.882213810597" vehicleRefId="100002101">71096 71097 10104 79146 26688 79151 79155 105719 20964 85694 71145 71099 71142 653 59689 121588 76770 12478 75008 75011 75012 75009 12938 62232 69343 12926 12936 62433 155519 58634 104746 104748 104750 132264 132262 12868 57967 112457 12844 12854 73994 1202 54573 43581</route>
			</leg>
			<activity type="car interaction" link="43581" x="4620240.0693153925" y="5822206.251302563" max_dur="00:00:00" >
			</activity>
			<leg mode="non_network_walk" dep_time="08:30:11">
				<route type="generic" start_link="43581" end_link="43581" trav_time="00:07:15" distance="871.9510613080247"></route>
			</leg>
			<activity type="shopping_4200.0" link="43581" x="4620804.437116047" y="5821843.801519097" max_dur="01:15:27" >
				<attributes>
					<attribute name="cemdapStopDuration_s" class="java.lang.Integer" >4260</attribute>
					<attribute name="zoneId" class="java.lang.String" >12064380</attribute>
				</attributes>
			</activity>
			<leg mode="non_network_walk" dep_time="09:52:53">
				<route type="generic" start_link="43581" end_link="43581" trav_time="00:07:15" distance="871.9510613080247"></route>
			</leg>
			<activity type="car interaction" link="43581" x="4620240.0693153925" y="5822206.251302563" max_dur="00:00:00" >
			</activity>
			<leg mode="car" dep_time="10:00:08">
				<route type="links" start_link="43581" end_link="66911" trav_time="00:14:02" distance="9679.415796376239" vehicleRefId="100002101">43581 68050 12560 12422 12426 88216 33302 33303 33304 27225 88211 54696 65082 54136 54129 136141 142449 142451 69967 1614 136137 69971 33317 33318 5315 67573 4434 147847 134438 82585 63958 63960 147827 75186 57276 64058 10751 66911</route>
			</leg>
			<activity type="car interaction" link="66911" x="4619649.247833396" y="5814191.882808508" max_dur="00:00:00" >
			</activity>
			<leg mode="non_network_walk" dep_time="10:14:10">
				<route type="generic" start_link="66911" end_link="66911" trav_time="00:01:06" distance="132.0642667885387"></route>
			</leg>
			<activity type="work_41400.0" link="66911" x="4619647.717899834" y="5814293.459184836" end_time="18:46:06" >
				<attributes>
					<attribute name="cemdapStopDuration_s" class="java.lang.Integer" >41100</attribute>
					<attribute name="zoneId" class="java.lang.String" >12067544</attribute>
				</attributes>
			</activity>
			<leg mode="non_network_walk" dep_time="18:46:06">
				<route type="generic" start_link="66911" end_link="66911" trav_time="00:01:06" distance="132.0642667885387"></route>
			</leg>
			<activity type="car interaction" link="66911" x="4619649.247833396" y="5814191.882808508" max_dur="00:00:00" >
			</activity>
			<leg mode="car" dep_time="18:47:12">
				<route type="links" start_link="66911" end_link="91737" trav_time="00:04:42" distance="2539.3278058210017" vehicleRefId="100002101">66911 66912 10750 64059 57275 75185 66943 74556 93441 93439 93451 93449 98934 98932 91737</route>
			</leg>
			<activity type="car interaction" link="91737" x="4618881.832868517" y="5815976.374961775" max_dur="00:00:00" >
			</activity>
			<leg mode="non_network_walk" dep_time="18:51:54">
				<route type="generic" start_link="91737" end_link="91737" trav_time="00:03:29" distance="418.26810773688254"></route>
			</leg>
			<activity type="shopping_5400.0" link="91737" x="4619179.670741951" y="5815854.66936615" max_dur="01:05:00" >
				<attributes>
					<attribute name="cemdapStopDuration_s" class="java.lang.Integer" >5580</attribute>
					<attribute name="zoneId" class="java.lang.String" >12067544</attribute>
				</attributes>
			</activity>
			<leg mode="non_network_walk" dep_time="20:00:23">
				<route type="generic" start_link="91737" end_link="91737" trav_time="00:03:29" distance="418.26810773688254"></route>
			</leg>
			<activity type="car interaction" link="91737" x="4618881.832868517" y="5815976.374961775" max_dur="00:00:00" >
			</activity>
			<leg mode="car" dep_time="20:03:52">
				<route type="links" start_link="91737" end_link="131398" trav_time="00:15:24" distance="12532.814359123671" vehicleRefId="100002101">91737 110380 91722 40058 99069 87731 87732 46815 159321 78973 124910 159323 159319 134991 56447 56444 56430 135065 7094 44635 129106 56433 44664 44616 14868 154995 10126 98147 76362 53044 94117 44605 94282 44655 55801 44622 142213 103858 47330 47332 44634 121779 44520 44530 128687 133395 1512 131398</route>
			</leg>
			<activity type="car interaction" link="131398" x="4610618.12069354" y="5818890.712319953" max_dur="00:00:00" >
			</activity>
			<leg mode="non_network_walk" dep_time="20:19:16">
				<route type="generic" start_link="131398" end_link="131398" trav_time="00:01:03" distance="126.35126972071343"></route>
			</leg>
			<activity type="leisure_1200.0" link="131398" x="4610603.7145389905" y="5818986.832022635" max_dur="00:00:00" >
				<attributes>
					<attribute name="cemdapStopDuration_s" class="java.lang.Integer" >1260</attribute>
					<attribute name="zoneId" class="java.lang.String" >910040933</attribute>
				</attributes>
			</activity>
			<leg mode="non_network_walk" dep_time="20:20:19">
				<route type="generic" start_link="131398" end_link="131398" trav_time="00:01:03" distance="126.35126972071343"></route>
			</leg>
			<activity type="car interaction" link="131398" x="4610618.12069354" y="5818890.712319953" max_dur="00:00:00" >
			</activity>
			<leg mode="car" dep_time="20:21:22">
				<route type="links" start_link="131398" end_link="71096" trav_time="00:34:09" distance="24178.66949006734" vehicleRefId="100002101">131398 131399 1511 133394 128686 44531 44521 44730 47326 47327 28373 44733 27237 44613 99715 44619 44649 53055 99720 76342 44650 44665 154655 44637 44636 44611 44638 2421 44612 98589 98583 14175 9850 98581 98582 104795 104796 9853 154583 109084 109087 98474 44884 88222 88220 33304 33305 33298 88215 12897 12911 12857 12855 12845 112458 57966 12869 132263 132265 104751 104749 104747 58633 155518 62432 12935 12925 69342 62231 12937 75010 75007 12477 76769 121587 59688 652 71141 71098 71144 86826 105720 79156 79152 26687 79145 10105 71096</route>
			</leg>
			<activity type="car interaction" link="71096" x="4628401.843235054" y="5828617.348628381" max_dur="00:00:00" >
			</activity>
			<leg mode="non_network_walk" dep_time="20:55:31">
				<route type="generic" start_link="71096" end_link="71096" trav_time="00:02:37" distance="314.9609780568298"></route>
			</leg>
			<activity type="home_36000.0" link="71096" x="4628159.617703711" y="5828612.322300062" >
				<attributes>
					<attribute name="cemdapStopDuration_s" class="java.lang.Integer" >12300</attribute>
					<attribute name="zoneId" class="java.lang.String" >12064472</attribute>
				</attributes>
			</activity>
		</plan>

	</person>

<!-- ====================================================================== -->

	<person id="100002901">
		<attributes>
			<attribute name="home-activity-zone" class="java.lang.String" >brandenburg</attribute>
			<attribute name="subpopulation" class="java.lang.String" >person</attribute>
		</attributes>
		<plan score="67.9392799687256" selected="yes">
			<activity type="home_48600.0" link="49491" x="4628055.721329729" y="5830650.611974322" end_time="08:10:44" >
				<attributes>
					<attribute name="zoneId" class="java.lang.String" >12064472</attribute>
				</attributes>
			</activity>
			<leg mode="non_network_walk" dep_time="08:10:44">
				<route type="generic" start_link="49491" end_link="49491" trav_time="00:02:11" distance="263.5234280911919"></route>
			</leg>
			<activity type="car interaction" link="49491" x="4628255.914873427" y="5830618.768251753" max_dur="00:00:00" >
			</activity>
			<leg mode="car" dep_time="08:12:55">
				<route type="links" start_link="49491" end_link="134079" trav_time="00:45:41" distance="41811.60919798108" vehicleRefId="100002901">49491 46698 46689 1710 46951 46696 46697 46693 46694 49642 69392 69393 69394 69410 33416 33406 47939 49881 142884 142862 29325 29298 120660 78527 78532 85135 78510 78516 78530 84978 86140 78536 115895 155031 78549 78546 93721 29902 87561 87563 93709 87550 87557 87548 17430 42813 76699 76701 76703 132401 36929 132458 36894 36932 68357 68347 132450 78229 78227 36878 36880 6157 6153 139141 26084 105796 139115 50465 85109 105791 60666 69368 139804 139801 19446 69511 98297 105789 2517 50451 100202 100203 100199 93805 2502 105077 105070 134080 134079</route>
			</leg>
			<activity type="car interaction" link="134079" x="4661886.011928123" y="5824392.930533605" max_dur="00:00:00" >
			</activity>
			<leg mode="non_network_walk" dep_time="08:58:36">
				<route type="generic" start_link="134079" end_link="134079" trav_time="00:02:22" distance="284.8920721495706"></route>
			</leg>
			<activity type="work_1200.0" link="134079" x="4661688.844747177" y="5824297.270520397" max_dur="00:00:00" >
				<attributes>
					<attribute name="cemdapStopDuration_s" class="java.lang.Integer" >1200</attribute>
					<attribute name="zoneId" class="java.lang.String" >12064448</attribute>
				</attributes>
			</activity>
			<leg mode="non_network_walk" dep_time="09:00:58">
				<route type="generic" start_link="134079" end_link="134079" trav_time="00:02:22" distance="284.8920721495706"></route>
			</leg>
			<activity type="car interaction" link="134079" x="4661886.011928123" y="5824392.930533605" max_dur="00:00:00" >
			</activity>
			<leg mode="car" dep_time="09:03:20">
				<route type="links" start_link="134079" end_link="69348" trav_time="00:06:20" distance="6552.358972779196" vehicleRefId="100002901">134079 134080 113971 157922 11123 139126 139200 11121 69396 34612 116088 69346 44903 139117 139119 139121 139092 69348</route>
			</leg>
			<activity type="car interaction" link="69348" x="4665439.009968871" y="5819118.86781733" max_dur="00:00:00" >
			</activity>
			<leg mode="non_network_walk" dep_time="09:09:40">
				<route type="generic" start_link="69348" end_link="69348" trav_time="00:17:59" distance="2159.6941565685297"></route>
			</leg>
			<activity type="other_1800.0" link="69348" x="4664068.6821258105" y="5818179.650102371" max_dur="00:35:51" >
				<attributes>
					<attribute name="cemdapStopDuration_s" class="java.lang.Integer" >1500</attribute>
					<attribute name="zoneId" class="java.lang.String" >12064130</attribute>
				</attributes>
			</activity>
			<leg mode="non_network_walk" dep_time="10:03:30">
				<route type="generic" start_link="69348" end_link="69348" trav_time="00:17:59" distance="2159.6941565685297"></route>
			</leg>
			<activity type="car interaction" link="69348" x="4665439.009968871" y="5819118.86781733" max_dur="00:00:00" >
			</activity>
			<leg mode="car" dep_time="10:21:29">
				<route type="links" start_link="69348" end_link="139127" trav_time="00:12:28" distance="13856.433339481424" vehicleRefId="100002901">69348 69349 139093 139122 139120 139118 44904 69347 116089 34611 69397 11122 139199 139125 11124 157923 113970 134079 105071 105078 105076 2503 93806 100200 100201 50452 2518 46939 46937 139128 139127</route>
			</leg>
			<activity type="car interaction" link="139127" x="4661605.944950474" y="5826230.666976529" max_dur="00:00:00" >
			</activity>
			<leg mode="non_network_walk" dep_time="10:33:57">
				<route type="generic" start_link="139127" end_link="139127" trav_time="00:21:59" distance="2638.6026623714183"></route>
			</leg>
			<activity type="work_28200.0" link="139127" x="4662175.406159846" y="5828178.838711377" end_time="17:28:01" >
				<attributes>
					<attribute name="cemdapStopDuration_s" class="java.lang.Integer" >28440</attribute>
					<attribute name="zoneId" class="java.lang.String" >12064448</attribute>
				</attributes>
			</activity>
			<leg mode="non_network_walk" dep_time="17:28:01">
				<route type="generic" start_link="139127" end_link="139127" trav_time="00:21:59" distance="2638.6026623714183"></route>
			</leg>
			<activity type="car interaction" link="139127" x="4661605.944950474" y="5826230.666976529" max_dur="00:00:00" >
			</activity>
			<leg mode="car" dep_time="17:50:00">
				<route type="links" start_link="139127" end_link="113591" trav_time="00:11:50" distance="16871.067283943758" vehicleRefId="100002901">139127 46936 46938 105790 98298 69512 19445 139800 139807 92858 92881 153670 92852 112827 159601 153667 86569 155795 139808 155790 156502 156572 44959 44963 153486 153491 134828 92846 74849 153451 153460 142892 73519 113589 113591</route>
			</leg>
			<activity type="car interaction" link="113591" x="4671136.385716291" y="5829300.78638747" max_dur="00:00:00" >
			</activity>
			<leg mode="non_network_walk" dep_time="18:01:50">
				<route type="generic" start_link="113591" end_link="113591" trav_time="00:16:27" distance="1974.0701714133588"></route>
			</leg>
			<activity type="other_2400.0" link="113591" x="4672644.55037351" y="5829123.787120578" max_dur="00:37:49" >
				<attributes>
					<attribute name="cemdapStopDuration_s" class="java.lang.Integer" >2580</attribute>
					<attribute name="zoneId" class="java.lang.String" >12064266</attribute>
				</attributes>
			</activity>
			<leg mode="non_network_walk" dep_time="18:56:06">
				<route type="generic" start_link="113591" end_link="113591" trav_time="00:16:27" distance="1974.0701714133588"></route>
			</leg>
			<activity type="car interaction" link="113591" x="4671136.385716291" y="5829300.78638747" max_dur="00:00:00" >
			</activity>
			<leg mode="car" dep_time="19:12:33">
				<route type="links" start_link="113591" end_link="83838" trav_time="00:24:49" distance="31397.843516988483" vehicleRefId="100002901">113591 104988 46364 35220 44961 153487 44962 44958 156571 156501 155789 139809 155796 86570 153668 159602 112826 92851 153669 92880 92857 139806 139769 92856 92862 136066 136072 139742 92883 139740 139737 136070 92864 133678 114406 92876 66214 66226 94909 71136 139219 139225 139228 139227 90904 90897 71133 76224 70982 76231 23271 23261 5420 9604 98755 9602 26089 131957 83838</route>
			</leg>
			<activity type="car interaction" link="83838" x="4646163.437136905" y="5821438.297785042" max_dur="00:00:00" >
			</activity>
			<leg mode="non_network_walk" dep_time="19:37:22">
				<route type="generic" start_link="83838" end_link="83838" trav_time="00:02:03" distance="247.04664679232252"></route>
			</leg>