<trips>
	<flow id="0" from="beg" to="rend" begin="0" end="1" number="10">
        <stop lane="left_0" duration="10"/>
    </flow>
</trips>
