<?xml version="1.0"?>

<!-- generated on 09/24/09 13:19:44 by SUMO duarouter Version dev-SVN-r7781
<configuration>

    <input>
        <net-file value="input_net.net.xml"/>
        <alternatives value="input_alts.rou.alt.xml"/>
    </input>

    <output>
        <output-file value="routes.rou.xml"/>
    </output>

</configuration>
-->

<routes>
   <vtype id="0" length="5.00" maxspeed="70.00" vclass="">
      <carFollowing-Krauss accel="2.60" decel="4.50" sigma="0.50" tau="1.00"/>
   </vtype>
   <vehicle id="0_0" type="0" depart="0">
      <route edges="absBeg middle end absEnd"/>
   </vehicle>
</routes>
