<?xml version="1.0" encoding="iso-8859-1"?>

<configuration xmlns:xsi="http://www.w3.org/2001/XMLSchema-instance" xsi:noNamespaceSchemaLocation="http://sumo.sf.net/xsd/netconvertConfiguration.xsd">

    <input>
        <node-files value="../../XML/connections/input_nodes.nod.xml"/>
        <edge-files value="../../XML/connections/input_edges.edg.xml"/>
    </input>

    <output>
        <output-file value="input_net.net.xml"/>
    </output>

    <processing>
        <speed-in-kmh value="true"/>
    </processing>

</configuration>
