<?xml version="1.0" encoding="UTF-8"?>

<!-- generated on 2024-04-03 00:58:52.424721 by ptlines2flows.py v1_19_0+1649-d62985f5c41
<configuration>
    <net-file value="net.net.xml"/>
    <ptlines-file value="ptlines.xml"/>
    <ptstops-file value="input_additional.add.xml"/>
    <output-file value="out.flows.xml"/>
    <stop-duration value="60.0"/>
    <verbose value="True"/>
</configuration>
-->

<routes xmlns:xsi="http://www.w3.org/2001/XMLSchema-instance" xsi:noNamespaceSchemaLocation="http://sumo.dlr.de/xsd/routes_file.xsd">
    <vType id="bus" vClass="bus"/>
    <vType id="tram" vClass="tram"/>
    <vType id="train" vClass="rail"/>
    <vType id="subway" vClass="subway"/>
    <vType id="light_rail" vClass="rail_urban"/>
    <vType id="monorail" vClass="rail_urban"/>
    <vType id="trolleybus" vClass="bus"/>
    <vType id="minibus" vClass="bus"/>
    <vType id="share_taxi" vClass="taxi"/>
    <vType id="aerialway" vClass="cable_car" length="2.5" width="2" personCapacity="4"/>
    <vType id="ferry" vClass="ship"/>
    <route id="bus_104:0" edges="110450334#1 110450334#2 338412122 391493949 391493947 391493950#0 391493950#1 391493952#0 391493952#1 391493952#2 391493954#0 391493954#1 391493954#2 391493954#3" >
        <stop busStop="3959807221" duration="60.0" until="75.0"/> <!-- Kolonnenbrücke -->
        <stop busStop="3959807200" duration="60.0" until="180.0"/> <!-- Dudenstraße/Katzbachstraße -->
    </route>
    <flow id="bus_104:0" type="bus" route="bus_104:0" begin="0.0" end="3600.0" period="600" line="104:0" >
        <param key="name" value="Buslinie 104: Neu-Westend, Brixplatz =&gt; Stralau, Tunnelstraße"/>
        <param key="completeness" value="1.00"/>
    </flow>
</routes>
