<?xml version="1.0"?>

<!-- generated on 07/11/08 13:18:52 by SUMO duarouter Version 0.9.7
<configuration>

   <input>
      <net-file>input_net.net.xml</net-file>
      <sumo-input>input_routes.rou.xml</sumo-input>
   </input>

   <output>
      <output-file>routes.rou.xml</output-file>
   </output>

</configuration>
-->

<routes>
   <vehicle id="0" depart="0.00">
      <route edges="beg middle end rend"/>
   </vehicle>
   <vehicle id="1" depart="10.00">
      <route edges="beg middle end rend"/>
   </vehicle>
   <vehicle id="2" depart="20.00">
      <route edges="beg middle end rend"/>
   </vehicle>
   <vehicle id="3" depart="30.00">
      <route edges="beg middle end rend"/>
   </vehicle>
   <vehicle id="4" depart="40.00">
      <route edges="beg middle end rend"/>
   </vehicle>
   <vehicle id="5" depart="50.00">
      <route edges="beg middle end rend"/>
   </vehicle>
   <vehicle id="6" depart="60.00">
      <route edges="beg middle end rend"/>
   </vehicle>
   <vehicle id="7" depart="70.00">
      <route edges="beg middle end rend"/>
   </vehicle>
   <vehicle id="8" depart="80.00">
      <route edges="beg middle end rend"/>
   </vehicle>
   <vehicle id="9" depart="90.00">
      <route edges="beg middle end rend"/>
   </vehicle>
</routes>
