<additional>
	<meandata-edge id="dump_15" freq="15" file="aggregated_15.xml" excludeEmpty="true" begin="0,1900" end="119,1019"/>
	<meandata-edge id="dump_60" freq="60" file="aggregated_60.xml" excludeEmpty="true" begin="0,1900" end="119,1019"/>
</additional>