<?xml version="1.0" encoding="UTF-8"?>

<!-- generated on Wed May 22 12:12:29 2013 by SUMO netconvert Version dev-SVN-rUNKNOWN
<?xml version="1.0" encoding="UTF-8"?>

<configuration xmlns:xsi="http://www.w3.org/2001/XMLSchema-instance" xsi:noNamespaceSchemaLocation="http://sumo-sim.org/xsd/netconvertConfiguration.xsd">

    <input>
        <sumo-net-file value="input_net.net.xml"/>
    </input>

    <output>
        <output-file value="net.net.xml"/>
    </output>

    <processing>
        <no-internal-links value="true"/>
        <no-turnarounds value="true"/>
        <geometry.remove value="true"/>
        <offset.disable-normalization value="true"/>
        <junctions.join value="true"/>
    </processing>

</configuration>
-->

<net version="0.13" xmlns:xsi="http://www.w3.org/2001/XMLSchema-instance" xsi:noNamespaceSchemaLocation="http://sumo-sim.org/xsd/net_file.xsd">

    <location netOffset="-351890.66,-5648296.80" convBoundary="921.47,938.16,1021.31,1066.06" origBoundary="6.889891,50.967530,6.918908,50.993657" projParameter="+proj=utm +zone=32 +ellps=WGS84 +datum=WGS84 +units=m +no_defs"/>

    <edge id="-100955993#0" from="706970319" to="665606574" priority="6" type="highway.tertiary" shape="1021.31,1051.36 1018.80,1049.24 1014.38,1049.52 988.38,1057.32 953.97,1065.09 948.15,1066.06 939.65,1063.42 933.09,1060.41 929.49,1056.89 926.03,1053.05 923.16,1046.92 921.55,1040.18 921.47,1032.18 929.47,1012.15 934.55,997.01 944.65,961.67 946.55,954.25 951.09,938.16">
        <lane id="-100955993#0_0" index="0" speed="22.22" length="222.73" shape="1020.25,1052.62 1018.24,1050.93 1014.67,1051.15 988.85,1058.90 954.33,1066.70 948.03,1067.75 939.16,1065.00 932.14,1061.79 928.34,1058.07 924.64,1053.97 921.59,1047.47 919.90,1040.38 919.82,1031.87 927.94,1011.54 932.99,996.49 943.06,961.22 944.95,953.84 949.50,937.71"/>
    </edge>
    <edge id="61581986#0" from="665606574" to="706970319" priority="6" type="highway.tertiary" shape="951.09,938.16 946.55,954.25 944.65,961.67 934.55,997.01 929.47,1012.15 921.47,1032.18 921.55,1040.18 923.16,1046.92 926.03,1053.05 929.49,1056.89 933.09,1060.41 939.65,1063.42 948.15,1066.06 953.97,1065.09 988.38,1057.32 1014.38,1049.52 1018.80,1049.24 1021.31,1051.36">
        <lane id="61581986#0_0" index="0" speed="22.22" length="222.73" shape="952.68,938.61 948.14,954.70 946.25,962.08 936.14,997.46 931.03,1012.67 923.12,1032.49 923.20,1039.98 924.73,1046.37 927.42,1052.13 930.72,1055.79 934.04,1059.03 940.34,1061.92 948.27,1064.37 953.70,1063.46 988.02,1055.71 1014.09,1047.89 1019.36,1047.55 1022.37,1050.10"/>
    </edge>

    <junction id="665606574" type="priority" x="951.09" y="938.16" incLanes="-100955993#0_0" intLanes="" shape="951.14,938.17 954.22,939.04 947.96,937.28 951.04,938.15">
        <request index="0" response="0" foes="0"/>
    </junction>
    <junction id="706970319" type="priority" x="1021.31" y="1051.36" incLanes="61581986#0_0" intLanes="" shape="1021.28,1051.40 1019.21,1053.84 1023.41,1048.88 1021.34,1051.32">
        <request index="0" response="0" foes="0"/>
    </junction>

    <connection from="-100955993#0" to="61581986#0" fromLane="0" toLane="0" dir="t" state="M"/>
    <connection from="61581986#0" to="-100955993#0" fromLane="0" toLane="0" dir="t" state="M"/>

</net>
