<?xml version="1.0" encoding="UTF-8"?>

<!-- generated on 2022-01-24 09:04:46 by Eclipse SUMO netedit Version v1_11_0+1406-7e5d074504a
-->

<routes xmlns:xsi="http://www.w3.org/2001/XMLSchema-instance" xsi:noNamespaceSchemaLocation="http://sumo.dlr.de/xsd/routes_file.xsd">
    <trip id="trip" depart="0.00" from="gneE0" to="gneE1">
        <stop containerStop="containerStop" parking="1"/>
        <stop containerStop="containerStop" parking="1"/>
    </trip>
</routes>
