<?xml version="1.0" encoding="UTF-8"?>

<!-- generated on 2023-07-17 10:45:32 by Eclipse SUMO netedit Version v1_18_0+0332-272a1e44cea
-->

<routes xmlns:xsi="http://www.w3.org/2001/XMLSchema-instance" xsi:noNamespaceSchemaLocation="http://sumo.dlr.de/xsd/routes_file.xsd">
    <!-- Routes -->
    <route id="r_0" edges="Edge0 Edge1 Edge2 EdgeRepeat0" color="red" cycleTime="10.12">
        <param key="keyA" value="valueA"/>
        <param key="keyB" value="valueB"/>
        <param key="keyC" value="valueC"/>
    </route>
    <route id="r_1" edges="Edge3 Edge4 Edge5 EdgeRepeat1" color="blue" cycleTime="8">
        <param key="keyD" value="valueD"/>
        <param key="keyE" value="valueE"/>
        <param key="keyF" value="valueF"/>
    </route>
</routes>
