<routes xmlns:xsi="http://www.w3.org/2001/XMLSchema-instance" xsi:noNamespaceSchemaLocation="http://sumo.dlr.de/xsd/routes_file.xsd">
	<vType id="KRAUSS_DEFAULT" accel="2.6" decel="4.5" sigma="0" length="3" minGap="2" maxSpeed="70"/>

	<vehicle id="0" depart="101" type="KRAUSS_DEFAULT">
		<route edges="beg rend"/>
	</vehicle>


</routes>
