<?xml version="1.0" encoding="UTF-8"?>

<!-- generated on 2022-12-06 16:11:16 by Eclipse SUMO netedit Version v1_14_1+1305-3a36a50aae8
-->

<routes xmlns:xsi="http://www.w3.org/2001/XMLSchema-instance" xsi:noNamespaceSchemaLocation="http://sumo.dlr.de/xsd/routes_file.xsd">
    <!-- Vehicles, persons and containers (sorted by depart) -->
    <flow id="f_0" begin="0.00" from="E0" to="E1" number="3" period="20"/>
</routes>
