<?xml version="1.0" encoding="UTF-8"?>

<!-- generated on 2023-01-23 11:25:52 by Eclipse SUMO netedit Version v1_15_0+1802-6c0f80f73ea
-->

<additional xmlns:xsi="http://www.w3.org/2001/XMLSchema-instance" xsi:noNamespaceSchemaLocation="http://sumo.dlr.de/xsd/additional_file.xsd">
    <!-- StoppingPlaces -->
    <trainStop id="correctID" lane="gneE0_0" startPos="12.00" endPos="22.00"/>
    <trainStop id="ts_1" lane="gneE0_0" startPos="28.00" endPos="38.00"/>
</additional>
