<?xml version="1.0" encoding="UTF-8"?>

<!-- generated on 25.08.2020 08:45:32 by Eclipse SUMO netedit Version v1_6_0+1749-26932bff87
<configuration xmlns:xsi="http://www.w3.org/2001/XMLSchema-instance" xsi:noNamespaceSchemaLocation="http://sumo.dlr.de/xsd/netconvertConfiguration.xsd">

    <input>
        <new value="true"/>
    </input>

    <output>
        <output-file value="C:\Users\alva_pa\.texttest\tmp\netedit.gui.25Aug084358.4920\netedit.gui\netElements\junctions\create\one_way_double\net.net.xml"/>
    </output>

    <processing>
        <offset.disable-normalization value="true"/>
    </processing>

    <netedit>
        <additional-files value="C:\Users\alva_pa\.texttest\tmp\netedit.gui.25Aug084358.4920\netedit.gui\netElements\junctions\create\one_way_double\additionals.xml"/>
        <additionals-output value="C:\Users\alva_pa\.texttest\tmp\netedit.gui.25Aug084358.4920\netedit.gui\netElements\junctions\create\one_way_double\additionals.xml"/>
        <route-files value="C:\Users\alva_pa\.texttest\tmp\netedit.gui.25Aug084358.4920\netedit.gui\netElements\junctions\create\one_way_double\routes.xml"/>
        <demandelements-output value="C:\Users\alva_pa\.texttest\tmp\netedit.gui.25Aug084358.4920\netedit.gui\netElements\junctions\create\one_way_double\routes.xml"/>
        <data-files value="C:\Users\alva_pa\.texttest\tmp\netedit.gui.25Aug084358.4920\netedit.gui\netElements\junctions\create\one_way_double\datas.xml"/>
        <dataelements-output value="C:\Users\alva_pa\.texttest\tmp\netedit.gui.25Aug084358.4920\netedit.gui\netElements\junctions\create\one_way_double\datas.xml"/>
    </netedit>

    <visualisation>
        <gui-settings-file value="C:\Users\alva_pa\.texttest\tmp\netedit.gui.25Aug084358.4920\netedit.gui\netElements\junctions\create\one_way_double\gui-settings.xml"/>
        <window-size value="700,500"/>
        <window-pos value="50,50"/>
        <gui-testing value="true"/>
        <gui-testing-debug value="true"/>
        <gui-testing-debug-gl value="true"/>
        <gui-testing.setting-output value="C:\Users\alva_pa\.texttest\tmp\netedit.gui.25Aug084358.4920\netedit.gui\netElements\junctions\create\one_way_double\guisettingsoutput.xml"/>
    </visualisation>

    <report>
        <no-warnings value="true"/>
        <aggregate-warnings value="5"/>
        <error-log value="C:\Users\alva_pa\.texttest\tmp\netedit.gui.25Aug084358.4920\netedit.gui\netElements\junctions\create\one_way_double\log.txt"/>
    </report>

</configuration>
-->

<net version="1.6" junctionCornerDetail="5" limitTurnSpeed="5.50" crossing="http://www.w3.org/2001/XMLSchema-instance" xmlns:xsi="http://sumo.dlr.de/xsd/net_file.xsd">

    <location netOffset="0.00,0.00" convBoundary="0.00,90.00,20.00,90.00" origBoundary="10000000000.00,10000000000.00,-10000000000.00,-10000000000.00" projParameter="!"/>

    <edge id=":gneJ0_0" function="internal">
        <lane id=":gneJ0_0_0" index="0" speed="3.65" length="4.67" shape="0.00,91.60 -1.20,90.80 -1.60,90.00 -1.20,89.20 0.00,88.40"/>
    </edge>
    <edge id=":gneJ1_0" function="internal">
        <lane id=":gneJ1_0_0" index="0" speed="3.65" length="4.67" shape="20.00,88.40 21.20,89.20 21.60,90.00 21.20,90.80 20.00,91.60"/>
    </edge>

    <edge id="gneE0" from="gneJ0" to="gneJ1" priority="-1">
        <lane id="gneE0_0" index="0" speed="13.89" length="20.00" shape="0.00,88.40 20.00,88.40"/>
    </edge>
    <edge id="gneE1" from="gneJ1" to="gneJ0" priority="-1">
        <lane id="gneE1_0" index="0" speed="13.89" length="20.00" shape="20.00,91.60 0.00,91.60"/>
    </edge>

    <junction id="gneJ0" type="priority" x="0.00" y="90.00" incLanes="gneE1_0" intLanes=":gneJ0_0_0" shape="0.00,90.00 0.00,93.20 0.00,90.00">
        <request index="0" response="0" foes="0" cont="0"/>
    </junction>
    <junction id="gneJ1" type="priority" x="20.00" y="90.00" incLanes="gneE0_0" intLanes=":gneJ1_0_0" shape="20.00,90.00 20.00,86.80 20.00,90.00">
        <request index="0" response="0" foes="0" cont="0"/>
    </junction>

    <connection from="gneE0" to="gneE1" fromLane="0" toLane="0" via=":gneJ1_0_0" dir="t" state="M"/>
    <connection from="gneE1" to="gneE0" fromLane="0" toLane="0" via=":gneJ0_0_0" dir="t" state="M"/>

    <connection from=":gneJ0_0" to="gneE0" fromLane="0" toLane="0" dir="t" state="M"/>
    <connection from=":gneJ1_0" to="gneE1" fromLane="0" toLane="0" dir="t" state="M"/>

</net>
