<?xml version="1.0" encoding="UTF-8"?>

<!-- generated on 2023-02-06 18:25:07 by Eclipse SUMO netedit Version v1_15_0+2224-443240d6576
<configuration xmlns:xsi="http://www.w3.org/2001/XMLSchema-instance" xsi:noNamespaceSchemaLocation="http://sumo.dlr.de/xsd/netconvertConfiguration.xsd">

    <input>
        <sumo-net-file value="/home/palcraft/.texttest/tmp/netedit.gui.06Feb182245.135531/netedit.gui/netelements/junctions/create/one_way_double/netedit.net.xml"/>
    </input>

    <output>
        <output-file value="/home/palcraft/.texttest/tmp/netedit.gui.06Feb182245.135531/netedit.gui/netelements/junctions/create/one_way_double/netedit.net.xml"/>
    </output>

    <processing>
        <offset.disable-normalization value="true"/>
    </processing>

    <junctions>
        <no-turnarounds value="true"/>
    </junctions>

    <netedit>
        <new-network value="false"/>
    </netedit>

    <visualisation>
        <gui-settings-file value="/home/palcraft/.texttest/tmp/netedit.gui.06Feb182245.135531/netedit.gui/netelements/junctions/create/one_way_double/gui-settings.xml"/>
        <window-size value="936, 697"/>
        <window-pos value="50,50"/>
        <gui-testing value="true"/>
        <gui-testing-debug value="true"/>
        <gui-testing-debug-gl value="true"/>
        <gui-testing.setting-output value="/home/palcraft/.texttest/tmp/netedit.gui.06Feb182245.135531/netedit.gui/netelements/junctions/create/one_way_double/guisettingsoutput.xml"/>
    </visualisation>

    <report>
        <no-warnings value="true"/>
        <error-log value="/home/palcraft/.texttest/tmp/netedit.gui.06Feb182245.135531/netedit.gui/netelements/junctions/create/one_way_double/log.txt"/>
    </report>

</configuration>
-->

<net version="1.16" junctionCornerDetail="5" limitTurnSpeed="5.50" xmlns:xsi="http://www.w3.org/2001/XMLSchema-instance" xsi:noNamespaceSchemaLocation="http://sumo.dlr.de/xsd/net_file.xsd">

    <location netOffset="0.00,0.00" convBoundary="0.00,90.00,20.00,90.00" origBoundary="10000000000.00,10000000000.00,-10000000000.00,-10000000000.00" projParameter="!"/>

    <edge id="-E0" from="J1" to="J0" priority="-1">
        <lane id="-E0_0" index="0" speed="13.89" length="20.00" shape="20.00,91.60 0.00,91.60"/>
    </edge>
    <edge id="E0" from="J0" to="J1" priority="-1">
        <lane id="E0_0" index="0" speed="13.89" length="20.00" shape="0.00,88.40 20.00,88.40"/>
    </edge>

    <junction id="J0" type="dead_end" x="0.00" y="90.00" incLanes="-E0_0" intLanes="" shape="0.00,90.00 0.00,93.20 0.00,90.00"/>
    <junction id="J1" type="dead_end" x="20.00" y="90.00" incLanes="E0_0" intLanes="" shape="20.00,90.00 20.00,86.80 20.00,90.00"/>

</net>
