<?xml version="1.0" encoding="UTF-8"?>

<!-- generated on 2024-12-04 15:30:17 by Eclipse SUMO sumo Version v1_21_0+1186-e3e93bd8c94
This data file and the accompanying materials
are made available under the terms of the Eclipse Public License v2.0
which accompanies this distribution, and is available at
http://www.eclipse.org/legal/epl-v20.html
This file may also be made available under the following Secondary
Licenses when the conditions for such availability set forth in the Eclipse
Public License 2.0 are satisfied: GNU General Public License, version 2
or later which is available at
https://www.gnu.org/licenses/old-licenses/gpl-2.0-standalone.html
SPDX-License-Identifier: EPL-2.0 OR GPL-2.0-or-later
<sumoConfiguration xmlns:xsi="http://www.w3.org/2001/XMLSchema-instance" xsi:noNamespaceSchemaLocation="http://sumo.dlr.de/xsd/sumoConfiguration.xsd">

    <input>
        <net-file value="net2.net.xml"/>
        <route-files value="input_routes.rou.xml"/>
        <additional-files value="input_additional.add.xml"/>
    </input>

    <output>
        <write-license value="true"/>
    </output>

    <processing>
        <time-to-teleport value="1000"/>
        <default.speeddev value="0"/>
    </processing>

    <report>
        <xml-validation value="never"/>
        <duration-log.disable value="true"/>
        <duration-log.statistics value="true"/>
        <no-step-log value="true"/>
    </report>

</sumoConfiguration>
-->

<tlsStates xmlns:xsi="http://www.w3.org/2001/XMLSchema-instance" xsi:noNamespaceSchemaLocation="http://sumo.dlr.de/xsd/tlsstates_file.xsd">
    <tlsState time="0.00" id="C" programID="P1" phase="0" state="GGGggrrrrrGGGggrrrrr"/>
    <tlsState time="5.00" id="C" programID="P1" phase="1" state="yyyggrrrrryyyggrrrrr"/>
    <tlsState time="8.00" id="C" programID="P1" phase="2" state="rrrGGrrrrrrrrGGrrrrr"/>
    <tlsState time="13.00" id="C" programID="P1" phase="3" state="rrryyrrrrrrrryyrrrrr"/>
    <tlsState time="16.00" id="C" programID="P1" phase="4" state="rrrrrGGGggrrrrrGGGgg"/>
    <tlsState time="21.00" id="C" programID="P1" phase="5" state="rrrrryyyggrrrrryyygg"/>
    <tlsState time="24.00" id="C" programID="P1" phase="6" state="rrrrrrrrGGrrrrrrrrGG"/>
    <tlsState time="29.00" id="C" programID="P1" phase="7" state="rrrrrrrryyrrrrrrrryy"/>
    <tlsState time="32.00" id="C" programID="P1" phase="0" state="GGGggrrrrrGGGggrrrrr"/>
    <tlsState time="37.00" id="C" programID="P1" phase="1" state="yyyggrrrrryyyggrrrrr"/>
    <tlsState time="40.00" id="C" programID="P1" phase="2" state="rrrGGrrrrrrrrGGrrrrr"/>
    <tlsState time="90.00" id="C" programID="P1" phase="3" state="rrryyrrrrrrrryyrrrrr"/>
    <tlsState time="93.00" id="C" programID="P1" phase="4" state="rrrrrGGGggrrrrrGGGgg"/>
    <tlsState time="143.00" id="C" programID="P1" phase="5" state="rrrrryyyggrrrrryyygg"/>
    <tlsState time="146.00" id="C" programID="P1" phase="6" state="rrrrrrrrGGrrrrrrrrGG"/>
    <tlsState time="151.00" id="C" programID="P1" phase="7" state="rrrrrrrryyrrrrrrrryy"/>
    <tlsState time="154.00" id="C" programID="P1" phase="0" state="GGGggrrrrrGGGggrrrrr"/>
    <tlsState time="159.00" id="C" programID="P1" phase="1" state="yyyggrrrrryyyggrrrrr"/>
    <tlsState time="162.00" id="C" programID="P1" phase="2" state="rrrGGrrrrrrrrGGrrrrr"/>
    <tlsState time="172.00" id="C" programID="P1" phase="3" state="rrryyrrrrrrrryyrrrrr"/>
    <tlsState time="175.00" id="C" programID="P1" phase="4" state="rrrrrGGGggrrrrrGGGgg"/>
    <tlsState time="225.00" id="C" programID="P1" phase="5" state="rrrrryyyggrrrrryyygg"/>
    <tlsState time="228.00" id="C" programID="P1" phase="6" state="rrrrrrrrGGrrrrrrrrGG"/>
    <tlsState time="233.00" id="C" programID="P1" phase="7" state="rrrrrrrryyrrrrrrrryy"/>
    <tlsState time="236.00" id="C" programID="P1" phase="0" state="GGGggrrrrrGGGggrrrrr"/>
    <tlsState time="286.00" id="C" programID="P1" phase="1" state="yyyggrrrrryyyggrrrrr"/>
    <tlsState time="289.00" id="C" programID="P1" phase="2" state="rrrGGrrrrrrrrGGrrrrr"/>
    <tlsState time="339.00" id="C" programID="P1" phase="3" state="rrryyrrrrrrrryyrrrrr"/>
    <tlsState time="342.00" id="C" programID="P1" phase="4" state="rrrrrGGGggrrrrrGGGgg"/>
    <tlsState time="392.00" id="C" programID="P1" phase="5" state="rrrrryyyggrrrrryyygg"/>
    <tlsState time="395.00" id="C" programID="P1" phase="6" state="rrrrrrrrGGrrrrrrrrGG"/>
    <tlsState time="404.00" id="C" programID="P1" phase="7" state="rrrrrrrryyrrrrrrrryy"/>
    <tlsState time="407.00" id="C" programID="P1" phase="0" state="GGGggrrrrrGGGggrrrrr"/>
    <tlsState time="457.00" id="C" programID="P1" phase="1" state="yyyggrrrrryyyggrrrrr"/>
    <tlsState time="460.00" id="C" programID="P1" phase="2" state="rrrGGrrrrrrrrGGrrrrr"/>
    <tlsState time="503.00" id="C" programID="P1" phase="3" state="rrryyrrrrrrrryyrrrrr"/>
    <tlsState time="506.00" id="C" programID="P1" phase="4" state="rrrrrGGGggrrrrrGGGgg"/>
    <tlsState time="535.00" id="C" programID="P1" phase="5" state="rrrrryyyggrrrrryyygg"/>
    <tlsState time="538.00" id="C" programID="P1" phase="6" state="rrrrrrrrGGrrrrrrrrGG"/>
</tlsStates>
