<?xml version="1.0" encoding="UTF-8"?>

<!-- generated on Mon Feb 24 15:08:19 2020 by Eclipse SUMO Version v1_5_0+0231-cceedbe859
<configuration xmlns:xsi="http://www.w3.org/2001/XMLSchema-instance" xsi:noNamespaceSchemaLocation="http://sumo.dlr.de/xsd/sumoConfiguration.xsd">

    <input>
        <net-file value="input_net.net.xml"/>
        <route-files value="input_routes.rou.xml"/>
    </input>

    <processing>
        <default.speeddev value="0"/>
    </processing>

    <report>
        <no-step-log value="true"/>
    </report>

    <traci_server>
        <remote-port value="40417"/>
    </traci_server>

</configuration>
-->

<ToCDeviceLog>
    <DYNTOR id="ToC_veh" t="81.00" lane="WE_1" lanePos="0.98" x="1482.60" y="-1.60"/>
    <ToCdown id="ToC_veh" t="89.00" lane="WE_1" lanePos="0.99" x="1492.80" y="-1.60"/>
</ToCDeviceLog>
