<?xml version="1.0" encoding="UTF-8"?>

<!-- generated on 2021-07-02 15:10:25 by Eclipse SUMO netedit Version v1_9_2+0825-5495129d683
<configuration xmlns:xsi="http://www.w3.org/2001/XMLSchema-instance" xsi:noNamespaceSchemaLocation="http://sumo.dlr.de/xsd/netconvertConfiguration.xsd">

    <input>
        <sumo-net-file value="/home/palcraft/.texttest/tmp/netedit.daily.additional.parkingspace.02Jul141405.9049/netedit.daily.additional.parkingspace/additionalElements/parkingspace/volatileRecomputing/input_net.net.xml"/>
    </input>

    <output>
        <output-file value="/home/palcraft/.texttest/tmp/netedit.daily.additional.parkingspace.02Jul141405.9049/netedit.daily.additional.parkingspace/additionalElements/parkingspace/volatileRecomputing/net.net.xml"/>
    </output>

    <processing>
        <geometry.min-radius.fix.railways value="false"/>
        <geometry.max-grade.fix value="false"/>
        <offset.disable-normalization value="true"/>
        <lefthand value="false"/>
    </processing>

    <junctions>
        <no-turnarounds value="true"/>
        <junctions.corner-detail value="5"/>
        <junctions.limit-turn-speed value="5.5"/>
        <rectangular-lane-cut value="false"/>
    </junctions>

    <pedestrian>
        <sidewalks.guess value="true"/>
        <crossings.guess value="true"/>
        <walkingareas value="false"/>
    </pedestrian>

    <netedit>
        <additional-files value="/home/palcraft/.texttest/tmp/netedit.daily.additional.parkingspace.02Jul141405.9049/netedit.daily.additional.parkingspace/additionalElements/parkingspace/volatileRecomputing/additionals.xml"/>
        <additionals-output value="/home/palcraft/.texttest/tmp/netedit.daily.additional.parkingspace.02Jul141405.9049/netedit.daily.additional.parkingspace/additionalElements/parkingspace/volatileRecomputing/additionals.xml"/>
        <route-files value="/home/palcraft/.texttest/tmp/netedit.daily.additional.parkingspace.02Jul141405.9049/netedit.daily.additional.parkingspace/additionalElements/parkingspace/volatileRecomputing/routes.xml"/>
        <demandelements-output value="/home/palcraft/.texttest/tmp/netedit.daily.additional.parkingspace.02Jul141405.9049/netedit.daily.additional.parkingspace/additionalElements/parkingspace/volatileRecomputing/routes.xml"/>
        <data-files value="/home/palcraft/.texttest/tmp/netedit.daily.additional.parkingspace.02Jul141405.9049/netedit.daily.additional.parkingspace/additionalElements/parkingspace/volatileRecomputing/datas.xml"/>
        <dataelements-output value="/home/palcraft/.texttest/tmp/netedit.daily.additional.parkingspace.02Jul141405.9049/netedit.daily.additional.parkingspace/additionalElements/parkingspace/volatileRecomputing/datas.xml"/>
    </netedit>

    <visualisation>
        <gui-settings-file value="/home/palcraft/.texttest/tmp/netedit.daily.additional.parkingspace.02Jul141405.9049/netedit.daily.additional.parkingspace/additionalElements/parkingspace/volatileRecomputing/gui-settings.xml"/>
        <window-size value="936,697"/>
        <window-pos value="50,50"/>
        <gui-testing value="true"/>
        <gui-testing-debug value="true"/>
        <gui-testing-debug-gl value="true"/>
        <gui-testing.setting-output value="/home/palcraft/.texttest/tmp/netedit.daily.additional.parkingspace.02Jul141405.9049/netedit.daily.additional.parkingspace/additionalElements/parkingspace/volatileRecomputing/guisettingsoutput.xml"/>
    </visualisation>

    <report>
        <no-warnings value="true"/>
        <aggregate-warnings value="5"/>
        <error-log value="/home/palcraft/.texttest/tmp/netedit.daily.additional.parkingspace.02Jul141405.9049/netedit.daily.additional.parkingspace/additionalElements/parkingspace/volatileRecomputing/log.txt"/>
    </report>

</configuration>
-->

<additional xmlns:xsi="http://www.w3.org/2001/XMLSchema-instance" xsi:noNamespaceSchemaLocation="http://sumo.dlr.de/xsd/additional_file.xsd">
    <parkingArea id="pa_7" lane="gneE0_0" startPos="22.00" endPos="32.00" length="5.00">
        <space x="-10.00" y="39.00" z="1.00"/>
    </parkingArea>
    <parkingArea id="parkingArea_gneE1_0_6" lane="gneE1_0" startPos="19.00" endPos="29.00" length="5.00">
        <space x="-10.00" y="33.00" z="2.00" width="5.00"/>
    </parkingArea>
    <parkingArea id="parkingArea_gneE2_0_5" lane="gneE2_0" startPos="8.00" endPos="18.00" length="5.00">
        <space x="-10.00" y="27.00" z="3.00" length="6.00"/>
    </parkingArea>
    <parkingArea id="parkingArea_gneE2_1_4" lane="gneE2_1" startPos="16.00" endPos="26.00" length="5.00">
        <space x="-10.00" y="21.00" z="4.00" angle="45.00"/>
    </parkingArea>
    <parkingArea id="parkingArea_gneE2_2_3" lane="gneE2_2" startPos="23.00" endPos="33.00" length="5.00">
        <space x="-10.00" y="15.00" z="5.00" width="1.00" length="1.00"/>
    </parkingArea>
    <parkingArea id="parkingArea_gneE2_3_2" lane="gneE2_3" startPos="31.00" endPos="41.00" length="5.00">
        <space x="-10.00" y="9.00" z="6.00" width="2.00" length="3.00" angle="60.00"/>
    </parkingArea>
    <parkingArea id="parkingArea_gneE2_4_1" lane="gneE2_4" startPos="38.00" endPos="48.00" length="5.00">
        <space x="-10.00" y="3.00"/>
    </parkingArea>
    <parkingArea id="parkingArea_gneE4_0_0" lane="gneE4_0" startPos="11.55" endPos="21.55" length="5.00">
        <space x="-10.00" y="-3.00"/>
    </parkingArea>
    <parkingArea id="parkingArea_gneE4_0_8" lane="gneE4_0" startPos="30.00" endPos="40.00" length="5.00"/>
</additional>
