<?xml version="1.0" encoding="UTF-8"?>

<!-- generated on 2023-07-24 09:49:21 by Eclipse SUMO netedit Version v1_18_0+0458-be70fa69b0d
-->

<routes xmlns:xsi="http://www.w3.org/2001/XMLSchema-instance" xsi:noNamespaceSchemaLocation="http://sumo.dlr.de/xsd/routes_file.xsd">
    <!-- Vehicles, persons and containers (sorted by depart) -->
    <flow id="f_0" begin="0.00" fromTaz="taz_green" toTaz="taz_red" end="3600.00" vehsPerHour="1800"/>
</routes>
