<?xml version="1.0"?>

<!-- generated on Tue May 10 11:18:19 2011 by SUMO netconvert Version dev-SVN-r10263
<?xml version="1.0" encoding="iso-8859-1"?>

<configuration xmlns:xsi="http://www.w3.org/2001/XMLSchema-instance" xsi:noNamespaceSchemaLocation="http://sumo.sf.net/xsd/netconvertConfiguration.xsd">

    <input>
        <node-files value="input_nodes.nod.xml"/>
        <edge-files value="input_edges.edg.xml"/>
    </input>

    <output>
        <output value="net.net.xml"/>
    </output>

    <projection>
        <proj.utm value="true"/>
    </projection>

</configuration>
-->

<net>

   <location netOffset="-718863.09,-5330309.98" convBoundary="0.00,0.00,9104.41,253.05" origBoundary="11.939163,48.087529,12.061386,48.088446" projParameter="+proj=utm +zone=32 +ellps=WGS84 +datum=WGS84 +units=m +no_defs"/>

   <edge id="o" from="0" to="1" priority="-1">
      <lane id="o_0" depart="1" maxspeed="13.90" length="9107.93" shape="0.05,-1.65 9104.46,251.40"/>
   </edge>

   <junction id="0" type="DEAD_END" x="0.00" y="0.00" incLanes="" intLanes="" shape="0.00,-0.05 0.09,-3.25"/>
   <junction id="1" type="DEAD_END" x="9104.41" y="253.05" incLanes="o_0" intLanes="" shape="9104.50,249.80 9104.41,253.00"/>

   <succ edge="o" lane="o_0" junction="1">
   </succ>

</net>
