<?xml version="1.0" encoding="UTF-8"?>

<!-- generated on 23.01.2019 15:27:31 by Eclipse SUMO netedit Version v1_1_0+0076-a16c2aae75
<configuration xmlns:xsi="http://www.w3.org/2001/XMLSchema-instance" xsi:noNamespaceSchemaLocation="http://sumo.dlr.de/xsd/netconvertConfiguration.xsd">

    <input>
        <sumo-net-file value="C:/Users/SUMO-Test/.texttest/tmp/netedit.gui.23Jan152638.2716/netedit.gui/shapeElements/poi/load/layer\input_net.net.xml"/>
    </input>

    <output>
        <output-file value="C:/Users/SUMO-Test/.texttest/tmp/netedit.gui.23Jan152638.2716/netedit.gui/shapeElements/poi/load/layer\net.net.xml"/>
    </output>

    <processing>
        <geometry.max-grade.fix value="false"/>
        <offset.disable-normalization value="true"/>
        <lefthand value="false"/>
    </processing>

    <junctions>
        <no-turnarounds value="true"/>
        <junctions.corner-detail value="5"/>
        <junctions.limit-turn-speed value="5.5"/>
        <rectangular-lane-cut value="false"/>
    </junctions>

    <pedestrian>
        <walkingareas value="false"/>
    </pedestrian>

    <netedit>
        <additional-files value="C:/Users/SUMO-Test/.texttest/tmp/netedit.gui.23Jan152638.2716/netedit.gui/shapeElements/poi/load/layer\input_additionals.add.xml"/>
        <additionals-output value="C:/Users/SUMO-Test/.texttest/tmp/netedit.gui.23Jan152638.2716/netedit.gui/shapeElements/poi/load/layer\additionals.xml"/>
        <demandelements-output value="C:/Users/SUMO-Test/.texttest/tmp/netedit.gui.23Jan152638.2716/netedit.gui/shapeElements/poi/load/layer\routes.xml"/>
    </netedit>

    <visualisation>
        <gui-settings-file value="C:/Users/SUMO-Test/.texttest/tmp/netedit.gui.23Jan152638.2716/netedit.gui/shapeElements/poi/load/layer\gui-settings.xml"/>
        <window-size value="700,500"/>
        <window-pos value="50,50"/>
        <gui-testing value="true"/>
        <gui-testing-debug value="true"/>
        <gui-testing-debug-gl value="true"/>
    </visualisation>

    <report>
        <no-warnings value="true"/>
        <error-log value="C:/Users/SUMO-Test/.texttest/tmp/netedit.gui.23Jan152638.2716/netedit.gui/shapeElements/poi/load/layer\log.txt"/>
    </report>

</configuration>
-->

<additional xmlns:xsi="http://www.w3.org/2001/XMLSchema-instance" xsi:noNamespaceSchemaLocation="http://sumo.dlr.de/xsd/additional_file.xsd">
    <poi id="POI_0" color="red" layer="202.00" x="0.00" y="-30.00" width="0.00" height="0.00"/>
    <poi id="POI_1" color="red" layer="202.00" x="-10.00" y="-30.00" width="0.00" height="0.00"/>
    <poi id="POI_2" color="red" layer="2.35" x="-20.00" y="-30.00" width="0.00" height="0.00"/>
</additional>
