<?xml version="1.0" encoding="UTF-8"?>

<!-- generated on 2023-03-21 11:43:38 by Eclipse SUMO netedit Version v1_16_0+1515-7c289bd
-->

<routes xmlns:xsi="http://www.w3.org/2001/XMLSchema-instance" xsi:noNamespaceSchemaLocation="http://sumo.dlr.de/xsd/routes_file.xsd">
    <!-- VTypes -->
    <vType id="train" length="70.00" vClass="rail"/>
    <!-- Vehicles, persons and containers (sorted by depart) -->
    <vehicle id="v_0" type="train" depart="0.00">
        <route edges="E1 E2 -E2 -E1 -E0"/>
    </vehicle>
    <vehicle id="v_1" type="train" depart="0.00">
        <route edges="E0 E1 E2"/>
    </vehicle>
</routes>
