<routes xmlns:xsi="http://www.w3.org/2001/XMLSchema-instance" xsi:noNamespaceSchemaLocation="http://sumo-sim.org/xsd/routes_file.xsd">
   <vType id="DEFAULT_VEHTYPE" sigma="0"/>
   <vehicle id="1" depart="0" arrivalPos="-10" arrivalSpeed="10">
	   <route edges="beg end"/>
   </vehicle>
</routes>
