<?xml version="1.0" encoding="UTF-8"?>

<!-- generated on 2023-05-16 08:25:49 by Eclipse SUMO netedit Version v1_17_0+0291-808999a
-->

<routes xmlns:xsi="http://www.w3.org/2001/XMLSchema-instance" xsi:noNamespaceSchemaLocation="http://sumo.dlr.de/xsd/routes_file.xsd">
    <!-- Vehicles, persons and containers (sorted by depart) -->
    <trip id="v_0" type="DEFAULT_RAILTYPE" depart="0.00" departSpeed="max" fromJunction="J0" toJunction="J6"/>
</routes>
