# Generated on Fri Oct  6 17:26:55 2017 by SUMO netconvert Version dev-SVN-r26359
# Format matches Extraction version: V6.5 
# <?xml version="1.0" encoding="UTF-8"?>
# 
# <configuration xmlns:xsi="http://www.w3.org/2001/XMLSchema-instance" xsi:noNamespaceSchemaLocation="http://sumo.dlr.de/xsd/netconvertConfiguration.xsd">
# 
#     <input>
#         <osm-files value="osm.xml"/>
#     </input>
# 
#     <output>
#         <output-file value="net.net.xml"/>
#         <plain-output-prefix value="plain"/>
#         <dlr-navteq-output value="elmar_output"/>
#         <output.street-names value="true"/>
#     </output>
# 
#     <projection>
#         <proj.utm value="true"/>
#     </projection>
# 
#     <ramp_guessing>
#         <ramps.guess value="true"/>
#     </ramp_guessing>
# 
#     <processing>
#         <osm.all-attributes value="true"/>
#         <numerical-ids value="true"/>
#         <junctions.join value="true"/>
#     </processing>
# 
#     <report>
#         <verbose value="true"/>
#         <xml-validation value="never"/>
#     </report>
# 
# </configuration>
# 
#
#Lane connections related to LINK-IDs and NODE-ID.
#column format like pointcollection.
#NODE-ID	VEHICLE-TYPE	FROM_LANE	TO_LANE	THROUGH_TRAFFIC	LINK_IDs[2..*]
175648134	000000000010	1	1	1	-25951490	25951490	
261599791	011111111111	1	1	1	27445075	27445076	
261599791	011111111111	2	2	1	27445075	27445076	
261599791	011111111111	2	2	1	27445075	27445016	
261599791	011111111111	1	1	1	27445017	27445016	
261599791	011111111111	2	2	1	27445017	27445016	
261599791	011111111111	2	2	1	27445017	27445076	
261636677	011111111111	1	1	1	27445073	27445042	
261636677	011111111111	1	1	1	27445073	27445074	
261636677	011111111111	1	1	1	27445133	27445074	
261636677	011111111111	1	1	1	27445133	27445042	
261636678	011111111111	1	1	1	27445074	27445165	
261636678	011111111111	1	2	1	27445074	27445067	
261636678	011111111111	1	1	1	27445164	27445165	
261636678	011111111111	2	2	1	27445164	27445165	
261636678	011111111111	2	2	1	27445164	27445067	
261636678	011111111111	1	1	1	27445068	27445067	
261636678	011111111111	2	2	1	27445068	27445067	
261636678	011111111111	2	2	1	27445068	27445165	
261647692	011111111111	1	1	1	27445167	27445168	
261647692	011111111111	1	1	1	27445167	27445070	
261647692	011111111111	1	1	1	27445071	27445070	
261647692	011111111111	1	1	1	27445071	27445168	
261647702	011111111111	1	1	1	27445168	27445169	
261647702	011111111111	1	1	1	27445168	27445071	
261647702	011111111111	1	1	1	27445072	27445071	
261647702	011111111111	1	1	1	27445072	27445169	
283018817	011111111111	1	1	1	27445147	27445148	
283018845	011111111111	1	1	1	27445058	27445057	
283018845	011111111111	1	1	1	27445058	27445155	
283018845	011111111111	1	1	1	27445154	27445155	
283018845	011111111111	1	1	1	27445154	27445057	
283018932	011111111111	1	1	1	27445059	27445058	
283018932	011111111111	1	1	1	27445059	27445156	
283018932	011111111111	1	1	1	27445155	27445156	
283018932	011111111111	1	1	1	27445155	27445058	
283018933	011111111111	1	1	1	27445060	27445059	
283018933	011111111111	1	1	1	27445060	27445157	
283018933	011111111111	1	1	1	27445156	27445157	
283018933	011111111111	1	1	1	27445156	27445059	
283719736	011111111111	1	1	1	27445037	27445036	
283719736	011111111111	1	1	1	27445037	27445128	
283719736	011111111111	1	1	1	27445127	27445128	
283719736	011111111111	1	1	1	27445127	27445036	
283720461	011111111111	1	1	1	27445036	27445035	
283720461	011111111111	1	1	1	27445036	27445127	
283720461	011111111111	1	1	1	27445126	27445127	
283720461	011111111111	1	1	1	27445126	27445035	
283721348	011111111111	1	1	1	27445150	27445151	
283721348	011111111111	1	1	1	27445150	27445053	
283721348	011111111111	1	1	1	27445054	27445053	
283721348	011111111111	1	1	1	27445054	27445151	
294168098	000000010011	1	1	1	27445099	26816541	
294168098	000000010011	1	1	1	27445099	27445100	
294168098	000000010011	1	1	1	27445099	26816553	
294168098	000000010011	1	1	1	27445099	27445019	
294168098	000000010011	1	1	1	-26816553	27445019	
294168098	000000010011	1	1	1	-26816553	26816541	
294168098	000000010011	1	1	1	-26816553	27445100	
294168098	000000010011	1	1	1	-26816553	26816553	
294168098	000000010011	1	1	1	27445020	26816553	
294168098	000000010011	1	1	1	27445020	27445019	
294168098	000000010011	1	1	1	27445020	26816541	
294168098	000000010011	1	1	1	27445020	27445100	
294168710	000000010011	1	1	1	27445098	27445099	
294168710	000000010011	1	1	1	27445098	27445018	
294168710	000000010011	1	1	1	27445019	27445018	
294168710	000000010011	1	1	1	27445019	27445099	
294168710	000000010011	1	1	1	26816541	27445099	
294168710	000000010011	1	1	1	26816541	27445018	
294168972	000000010011	1	1	1	27445030	-26816553	
294168972	011111111111	1	1	1	27445030	27445029	
294168972	011111111111	1	1	1	27445030	27445121	
294168972	011111111111	1	1	1	27445120	27445121	
294168972	000000010011	1	1	1	27445120	-26816553	
294168972	011111111111	1	1	1	27445120	27445029	
294168972	000000010011	1	1	1	26816553	27445029	
294168972	000000010011	1	1	1	26816553	27445121	
294168972	000000010011	1	1	1	26816553	-26816553	
294169338	000000010011	1	1	1	27445100	27445101	
294169338	000000010011	1	1	1	27445100	26816627	
294169338	000000010011	1	1	1	27445100	27445020	
294169338	000000010011	1	1	1	-26816627	27445020	
294169338	000000010011	1	1	1	-26816627	27445101	
294169338	000000010011	1	1	1	-26816627	26816627	
294169338	000000010011	1	1	1	27445021	26816627	
294169338	000000010011	1	1	1	27445021	27445020	
294169338	000000010011	1	1	1	27445021	27445101	
294169339	000000010011	1	1	1	27445101	27445102	
294169339	000000010011	1	1	1	27445101	27445106	
294169339	000000010011	1	1	1	27445101	27445021	
294169339	000000010011	1	1	1	27445026	27445021	
294169339	000000010011	1	1	1	27445026	27445102	
294169339	000000010011	1	1	1	27445026	27445106	
294169339	000000010011	1	1	1	27445022	27445106	
294169339	000000010011	1	1	1	27445022	27445021	
294169339	000000010011	1	1	1	27445022	27445102	
294169618	000000010011	1	1	1	26816627	-26816627	
294829385	011111111111	1	1	1	27445137	27445138	
294829385	000000010011	1	1	1	27445137	26843019	
294829385	011111111111	1	1	1	27445137	27445046	
294829385	000000010011	1	1	1	-26843019	27445046	
294829385	000000010011	1	1	1	-26843019	27445138	
294829385	000000010011	1	1	1	-26843019	26843019	
294829385	000000010011	1	1	1	27445047	26843019	
294829385	011111111111	1	1	1	27445047	27445046	
294829385	011111111111	1	1	1	27445047	27445138	
294829798	000000010011	1	1	1	27445033	-26843019	
294829798	011111111111	1	1	1	27445033	27445032	
294829798	011111111111	1	1	1	27445033	27445124	
294829798	011111111111	1	1	1	27445123	27445124	
294829798	000000010011	1	1	1	27445123	-26843019	
294829798	011111111111	1	1	1	27445123	27445032	
294829798	000000010011	1	1	1	26843019	27445032	
294829798	000000010011	1	1	1	26843019	27445124	
294829798	000000010011	1	1	1	26843019	-26843019	
294829881	011111111111	1	1	1	27445136	27445137	
294829881	000000010011	1	1	1	27445136	27445103	
294829881	011111111111	1	1	1	27445136	27445045	
294829881	000000010011	1	1	1	27445023	27445045	
294829881	000000010011	1	1	1	27445023	27445137	
294829881	000000010011	1	1	1	27445023	27445103	
294829881	000000010011	1	1	1	27445046	27445103	
294829881	011111111111	1	1	1	27445046	27445045	
294829881	011111111111	1	1	1	27445046	27445137	
294830184	000000010011	1	1	1	27445105	27445023	
294830184	000000010011	1	1	1	27445105	27445104	
294830184	000000010011	1	1	1	27445105	27445025	
294830184	000000010011	1	1	1	27445024	27445025	
294830184	000000010011	1	1	1	27445024	27445023	
294830184	000000010011	1	1	1	27445024	27445104	
294830184	000000010011	1	1	1	27445103	27445104	
294830184	000000010011	1	1	1	27445103	27445025	
294830184	000000010011	1	1	1	27445103	27445023	
294830188	000000010011	1	1	1	27445104	27445105	
294830188	000000010011	1	1	1	27445104	27445024	
294830188	000000010011	1	1	1	27445025	27445024	
294830188	000000010011	1	1	1	27445025	27445105	
294831560	000000010011	1	1	1	27445106	27445028	
294831560	000000010011	1	1	1	27445106	27445107	
294831560	000000010011	1	1	1	27445106	27445026	
294831560	000000010011	1	1	1	27445027	27445026	
294831560	000000010011	1	1	1	27445027	27445028	
294831560	000000010011	1	1	1	27445027	27445107	
294831560	000000010011	1	1	1	27445108	27445107	
294831560	000000010011	1	1	1	27445108	27445026	
294831560	000000010011	1	1	1	27445108	27445028	
294831562	000000010011	1	1	1	27445028	27445027	
294831562	000000010011	1	1	1	27445028	27445108	
294831562	000000010011	1	1	1	27445107	27445108	
294831562	000000010011	1	1	1	27445107	27445027	
294831563	011111111111	1	1	1	27445110	27445111	
294831563	011111111111	1	2	1	27445110	27445111	
294831564	011111111111	1	1	1	27445151	27445152	
294831564	011111111111	1	1	1	27445151	27445136	
294831564	011111111111	1	1	1	27445151	27445054	
294831564	011111111111	1	1	1	27445045	27445054	
294831564	011111111111	1	1	1	27445045	27445152	
294831564	011111111111	1	1	1	27445045	27445136	
294831564	011111111111	1	1	1	27445055	27445136	
294831564	011111111111	1	1	1	27445055	27445054	
294831564	011111111111	1	1	1	27445055	27445152	
294831565	000000010011	1	1	1	27445102	7727482	
294831565	000000010011	1	1	1	27445102	27445167	
294831565	000000010011	1	1	1	27445102	27445022	
294831565	000000010011	1	1	1	27445070	27445022	
294831565	011111111111	1	1	1	27445070	7727482	
294831565	011111111111	1	1	1	27445070	27445167	
294831565	011111111111	1	1	1	27441289	27445167	
294831565	000000010011	1	1	1	27441289	27445022	
294831565	011111111111	1	1	1	27441289	7727482	
294831566	011111111111	1	1	1	27445114	27445000	
294831566	011111111111	1	1	1	27445114	27441289	
294831566	011111111111	1	1	1	27445114	27445115	
294831566	011111111111	1	1	1	7727482	27445115	
294831566	011111111111	1	1	1	7727482	27445000	
294831566	011111111111	1	1	1	7727482	27441289	
294831566	011111111111	1	1	1	20430080	27441289	
294831566	011111111111	1	1	1	20430080	27445115	
294831566	011111111111	1	1	1	20430080	27445000	
294831567	011111111111	1	1	1	27445109	27445110	
294831567	011111111111	1	1	1	27445109	27445055	
294831567	011111111111	1	1	1	27445109	27445119	
294831567	011111111111	1	1	1	27445152	27445119	
294831567	011111111111	1	1	1	27445152	27445110	
294831567	011111111111	1	1	1	27445152	27445055	
294831567	011111111111	1	1	1	27445118	27445055	
294831567	011111111111	1	1	1	27445118	27445119	
294831567	011111111111	1	1	1	27445118	27445110	
294831568	011111111111	1	1	1	27445113	27445114	
294831568	011111111111	1	1	1	27445113	27445052	
294831568	011111111111	1	1	1	27445113	27445116	
294831568	011111111111	1	1	1	27445143	27445116	
294831568	011111111111	1	1	1	27445143	27445114	
294831568	011111111111	1	1	1	27445143	27445052	
294831568	011111111111	1	1	1	27445115	27445052	
294831568	011111111111	1	1	1	27445115	27445116	
294831568	011111111111	1	1	1	27445115	27445114	
32266935	011111111111	1	1	1	27445169	27445075	
32266935	011111111111	1	1	1	27445169	24214694	
32266935	011111111111	1	2	1	27445169	27445069	
32266935	011111111111	1	1	1	27445169	27445072	
32266935	011111111111	1	1	1	27445166	27445072	
32266935	011111111111	1	1	1	27445166	27445075	
32266935	011111111111	2	2	1	27445166	27445075	
32266935	011111111111	2	1	1	27445166	24214694	
32266935	011111111111	2	2	1	27445166	27445069	
32266935	011111111111	1	1	1	-24214694	27445069	
32266935	011111111111	1	1	1	-24214694	27445072	
32266935	011111111111	1	2	1	-24214694	27445075	
32266935	011111111111	1	1	1	-24214694	24214694	
32266935	011111111111	1	1	1	27445016	24214694	
32266935	011111111111	1	1	1	27445016	27445069	
32266935	011111111111	2	2	1	27445016	27445069	
32266935	011111111111	2	1	1	27445016	27445072	
32266935	011111111111	2	2	1	27445016	27445075	
32266936	011111111111	1	1	1	22917251	-22917251	
32266938	000000000010	1	1	1	24214694	-25951490	
32266938	011111111111	1	1	1	24214694	22917251	
32266938	011111111111	1	1	1	24214694	-24214694	
32266938	011111111111	1	1	1	-22917251	-24214694	
32266938	000000000010	1	1	1	-22917251	-25951490	
32266938	011111111111	1	1	1	-22917251	22917251	
32266938	000000000010	1	1	1	25951490	22917251	
32266938	000000000010	1	1	1	25951490	-24214694	
32266938	000000000010	1	1	1	25951490	-25951490	
36268369	011111111111	1	1	1	27445029	27445166	
36268369	011111111111	1	2	1	27445029	27445068	
36268369	011111111111	1	1	1	27445029	27445120	
36268369	011111111111	1	1	1	27445165	27445120	
36268369	011111111111	1	1	1	27445165	27445166	
36268369	011111111111	2	2	1	27445165	27445166	
36268369	011111111111	2	2	1	27445165	27445068	
36268369	011111111111	1	1	1	27445069	27445068	
36268369	011111111111	2	2	1	27445069	27445068	
36268369	011111111111	2	1	1	27445069	27445120	
36268369	011111111111	2	2	1	27445069	27445166	
36268375	011111111111	1	1	1	27445031	27445141	
36268375	011111111111	1	1	1	27445031	27445030	
36268375	011111111111	1	1	1	27445031	27445122	
36268375	011111111111	1	1	1	27445121	27445122	
36268375	011111111111	1	1	1	27445121	27445141	
36268375	011111111111	1	1	1	27445121	27445030	
36268375	011111111111	1	1	1	27445050	27445030	
36268375	011111111111	1	1	1	27445050	27445122	
36268375	011111111111	1	1	1	27445050	27445141	
36268376	011111111111	1	1	1	27445032	27445039	
36268376	011111111111	1	1	1	27445032	27445031	
36268376	011111111111	1	1	1	27445032	27445131	
36268376	011111111111	1	1	1	27445032	27445123	
36268376	011111111111	1	1	1	27445040	27445123	
36268376	011111111111	1	1	1	27445040	27445039	
36268376	011111111111	1	1	1	27445040	27445031	
36268376	011111111111	1	1	1	27445040	27445131	
36268376	011111111111	1	1	1	27445122	27445131	
36268376	011111111111	1	1	1	27445122	27445123	
36268376	011111111111	1	1	1	27445122	27445039	
36268376	011111111111	1	1	1	27445122	27445031	
36268376	011111111111	1	1	1	27445130	27445031	
36268376	011111111111	1	1	1	27445130	27445131	
36268376	011111111111	1	1	1	27445130	27445123	
36268376	011111111111	1	1	1	27445130	27445039	
36268378	011111111111	1	1	1	27445035	27445150	
36268378	011111111111	1	1	1	27445035	27445034	
36268378	011111111111	1	1	1	27445035	27445126	
36268378	011111111111	1	1	1	27445125	27445126	
36268378	011111111111	1	1	1	27445125	27445150	
36268378	011111111111	1	1	1	27445125	27445034	
36268378	011111111111	1	1	1	27445053	27445034	
36268378	011111111111	1	1	1	27445053	27445126	
36268378	011111111111	1	1	1	27445053	27445150	
36268381	011111111111	1	1	1	27445128	27445037	
36268382	011111111111	1	1	1	5198584	-5198584	
36268391	011111111111	1	1	1	27445135	27445044	
36268392	011111111111	1	1	1	27445044	-5198587	
36268392	011111111111	1	1	1	27445044	27445043	
36268392	011111111111	1	1	1	27445044	27445135	
36268392	011111111111	1	1	1	27445134	27445135	
36268392	011111111111	1	1	1	27445134	-5198587	
36268392	011111111111	1	1	1	27445134	27445043	
36268392	011111111111	1	1	1	5198587	27445043	
36268392	011111111111	1	1	1	5198587	27445135	
36268392	011111111111	1	1	1	5198587	-5198587	
36268406	011111111111	1	1	1	27445138	27445038	
36268406	011111111111	1	1	1	27445138	27445139	
36268406	011111111111	1	1	1	27445138	27445130	
36268406	011111111111	1	1	1	27445138	27445047	
36268406	011111111111	1	1	1	27445039	27445047	
36268406	011111111111	1	1	1	27445039	27445038	
36268406	011111111111	1	1	1	27445039	27445139	
36268406	011111111111	1	1	1	27445039	27445130	
36268406	011111111111	1	1	1	27445048	27445130	
36268406	011111111111	1	1	1	27445048	27445047	
36268406	011111111111	1	1	1	27445048	27445038	
36268406	011111111111	1	1	1	27445048	27445139	
36268406	011111111111	1	1	1	27445129	27445139	
36268406	011111111111	1	1	1	27445129	27445130	
36268406	011111111111	1	1	1	27445129	27445047	
36268406	011111111111	1	1	1	27445129	27445038	
36268408	011111111111	1	1	1	27445139	27445140	
36268408	011111111111	1	1	1	27445139	27445048	
36268408	011111111111	1	1	1	27445049	27445048	
36268408	011111111111	1	1	1	27445049	27445140	
36268411	011111111111	1	1	1	27445140	27445142	
36268411	011111111111	1	1	1	27445140	27445050	
36268411	011111111111	1	1	1	27445140	27445049	
36268411	011111111111	1	1	1	27445141	27445049	
36268411	011111111111	1	1	1	27445141	27445142	
36268411	011111111111	1	1	1	27445141	27445050	
36268411	011111111111	1	1	1	27445051	27445050	
36268411	011111111111	1	1	1	27445051	27445049	
36268411	011111111111	1	1	1	27445051	27445142	
36268415	011111111111	1	1	1	27445038	27445118	
36268415	011111111111	1	1	1	27445038	27445129	
36268415	011111111111	1	1	1	27445117	27445129	
36268415	011111111111	1	1	1	27445117	27445118	
36268416	011111111111	1	1	1	-5198584	27445041	
36268416	011111111111	1	1	1	-5198584	27445133	
36268416	011111111111	1	1	1	-5198584	5198584	
36268416	011111111111	1	1	1	27445042	5198584	
36268416	011111111111	1	1	1	27445042	27445041	
36268416	011111111111	1	1	1	27445042	27445133	
36268416	011111111111	1	1	1	27445132	27445133	
36268416	011111111111	1	1	1	27445132	5198584	
36268416	011111111111	1	1	1	27445132	27445041	
36268417	011111111111	1	1	1	27445043	27445040	
36268417	011111111111	1	1	1	27445043	27445132	
36268417	011111111111	1	1	1	27445043	27445134	
36268417	011111111111	1	1	1	27445041	27445134	
36268417	011111111111	1	1	1	27445041	27445040	
36268417	011111111111	1	1	1	27445041	27445132	
36268417	011111111111	1	1	1	27445131	27445132	
36268417	011111111111	1	1	1	27445131	27445134	
36268417	011111111111	1	1	1	27445131	27445040	
36268421	011111111111	1	1	1	27445163	27445073	
36268421	011111111111	1	1	1	27445163	27445164	
36268421	011111111111	2	2	1	27445163	27445164	
36268421	011111111111	2	2	1	27445163	27445066	
36268421	011111111111	1	1	1	27445067	27445066	
36268421	011111111111	2	2	1	27445067	27445066	
36268421	011111111111	2	1	1	27445067	27445073	
36268421	011111111111	2	2	1	27445067	27445164	
36268431	011111111111	1	1	1	27445034	27445033	
36268431	011111111111	1	1	1	27445034	5198587	
36268431	011111111111	1	1	1	27445034	27445125	
36268431	011111111111	1	1	1	-5198587	27445125	
36268431	011111111111	1	1	1	-5198587	27445033	
36268431	011111111111	1	1	1	-5198587	5198587	
36268431	011111111111	1	1	1	27445124	5198587	
36268431	011111111111	1	1	1	27445124	27445125	
36268431	011111111111	1	1	1	27445124	27445033	
38919605	011111111111	1	1	1	27445162	27445065	
38919652	011111111111	1	1	1	27445065	27445145	
38919652	011111111111	1	1	1	27445065	27445064	
38919652	011111111111	1	1	1	27445065	27445162	
38919652	011111111111	1	1	1	27445144	27445162	
38919652	011111111111	1	1	1	27445144	27445145	
38919652	011111111111	1	1	1	27445144	27445064	
38919652	011111111111	1	1	1	27445161	27445162	
38919652	011111111111	1	1	1	27445161	27445145	
38919652	011111111111	1	1	1	27445161	27445064	
38919668	011111111111	1	1	1	27445111	27445144	
38919668	011111111111	2	1	1	27445111	27445112	
38919703	011111111111	1	1	1	27445112	27445113	
38919703	011111111111	1	1	1	27445149	27445113	
38919712	011111111111	1	1	1	27445157	27445149	
38919712	011111111111	1	1	1	27445157	27445060	
38919712	011111111111	1	1	1	27445148	27445060	
38919712	011111111111	1	1	1	27445148	27445149	
38919808	011111111111	1	1	1	27445064	27445063	
38919808	011111111111	1	1	1	27445064	27445147	
38919808	011111111111	1	1	1	27445064	27445161	
38919808	011111111111	1	1	1	27445160	27445147	
38919808	011111111111	1	1	1	27445160	27445161	
38919808	011111111111	1	1	1	27445160	27445063	
38919808	011111111111	1	1	1	27445146	27445063	
38919808	011111111111	1	1	1	27445146	27445147	
38919808	011111111111	1	1	1	27445146	27445161	
38919841	011111111111	1	1	1	27445063	27445062	
38919841	011111111111	1	1	1	27445063	27445160	
38919841	011111111111	1	1	1	27445159	27445160	
38919841	011111111111	1	1	1	27445159	27445062	
38919854	011111111111	1	1	1	27445062	27445061	
38919854	011111111111	1	1	1	27445062	27445159	
38919854	011111111111	1	1	1	27445158	27445159	
38919854	011111111111	1	1	1	27445158	27445061	
38919880	011111111111	1	1	1	27445061	27445056	
38919880	011111111111	1	1	1	27445061	27445154	
38919880	011111111111	1	1	1	27445061	27445158	
38919880	011111111111	1	1	1	27445057	27445158	
38919880	011111111111	1	1	1	27445057	27445056	
38919880	011111111111	1	1	1	27445057	27445154	
38919880	011111111111	1	1	1	27445153	27445154	
38919880	011111111111	1	1	1	27445153	27445158	
38919880	011111111111	1	1	1	27445153	27445056	
38919927	011111111111	1	1	1	27445056	27445153	
56231597	011111111111	1	1	1	27445142	27445143	
56231597	000000010011	1	1	1	27445142	27445098	
56231597	011111111111	1	1	1	27445142	27445051	
56231597	000000010011	1	1	1	27445018	27445051	
56231597	000000010011	1	1	1	27445018	27445143	
56231597	000000010011	1	1	1	27445018	27445098	
56231597	000000010011	1	1	1	27445052	27445098	
56231597	011111111111	1	1	1	27445052	27445051	
56231597	011111111111	1	1	1	27445052	27445143	
56242425	011111111111	1	1	1	27445116	27445117	
57343359	011111111111	1	1	1	27445000	20430080	
57343510	011111111111	2	2	1	27445076	27445017	
94487954	011111111111	2	2	1	27445066	27445163	
