<?xml version="1.0" encoding="UTF-8"?>

<!-- generated on Mon Feb 17 15:31:00 2020 by Eclipse SUMO netconvert Version v1_5_0+0130-ceb0a01
This data file and the accompanying materials
are made available under the terms of the Eclipse Public License v2.0
which accompanies this distribution, and is available at
http://www.eclipse.org/legal/epl-v20.html
SPDX-License-Identifier: EPL-2.0
<configuration xmlns:xsi="http://www.w3.org/2001/XMLSchema-instance" xsi:noNamespaceSchemaLocation="http://sumo.dlr.de/xsd/netconvertConfiguration.xsd">

    <input>
        <osm-files value="osm.xml"/>
    </input>

    <output>
        <write-license value="true"/>
        <output-file value="net.net.xml"/>
        <plain-output-prefix value="plain"/>
        <dlr-navteq-output value="elmar_output"/>
        <output.street-names value="true"/>
    </output>

    <projection>
        <proj.utm value="true"/>
    </projection>

    <processing>
        <numerical-ids value="true"/>
    </processing>

    <ramp_guessing>
        <ramps.guess value="true"/>
    </ramp_guessing>

    <junctions>
        <junctions.join value="true"/>
    </junctions>

    <formats>
        <osm.all-attributes value="true"/>
    </formats>

    <report>
        <verbose value="true"/>
        <xml-validation value="never"/>
        <aggregate-warnings value="5"/>
    </report>

</configuration>
-->

<net version="1.6" junctionCornerDetail="5" limitTurnSpeed="5.50" xmlns:xsi="http://www.w3.org/2001/XMLSchema-instance" xsi:noNamespaceSchemaLocation="http://sumo.dlr.de/xsd/net_file.xsd">

    <location netOffset="-399345.66,-5809365.64" convBoundary="0.00,0.00,1737.68,767.39" origBoundary="13.364829,52.424764,13.574340,52.459643" projParameter="+proj=utm +zone=33 +ellps=WGS84 +datum=WGS84 +units=m +no_defs"/>

    <type id="highway.bridleway" priority="1" numLanes="1" speed="2.78" allow="pedestrian" oneway="1" width="2.00"/>
    <type id="highway.bus_guideway" priority="1" numLanes="1" speed="27.78" allow="bus" oneway="1"/>
    <type id="highway.cycleway" priority="1" numLanes="1" speed="8.33" allow="bicycle" oneway="0" width="1.00"/>
    <type id="highway.footway" priority="1" numLanes="1" speed="2.78" allow="pedestrian" oneway="1" width="2.00"/>
    <type id="highway.ford" priority="1" numLanes="1" speed="2.78" allow="army" oneway="0"/>
    <type id="highway.living_street" priority="2" numLanes="1" speed="2.78" disallow="tram rail_urban rail rail_electric rail_fast ship" oneway="0"/>
    <type id="highway.motorway" priority="14" numLanes="2" speed="39.44" allow="private emergency authority army vip passenger hov taxi bus coach delivery truck trailer motorcycle evehicle custom1 custom2" oneway="1"/>
    <type id="highway.motorway_link" priority="9" numLanes="1" speed="22.22" allow="private emergency authority army vip passenger hov taxi bus coach delivery truck trailer motorcycle evehicle custom1 custom2" oneway="1"/>
    <type id="highway.path" priority="1" numLanes="1" speed="2.78" allow="pedestrian bicycle" oneway="1" width="2.00"/>
    <type id="highway.pedestrian" priority="1" numLanes="1" speed="2.78" allow="pedestrian" oneway="1" width="2.00"/>
    <type id="highway.primary" priority="12" numLanes="2" speed="27.78" disallow="tram rail_urban rail rail_electric rail_fast ship" oneway="0"/>
    <type id="highway.primary_link" priority="7" numLanes="1" speed="22.22" disallow="tram rail_urban rail rail_electric rail_fast ship" oneway="0"/>
    <type id="highway.raceway" priority="15" numLanes="2" speed="83.33" allow="vip" oneway="0"/>
    <type id="highway.residential" priority="3" numLanes="1" speed="13.89" disallow="tram rail_urban rail rail_electric rail_fast ship" oneway="0"/>
    <type id="highway.secondary" priority="11" numLanes="1" speed="27.78" disallow="tram rail_urban rail rail_electric rail_fast ship" oneway="0"/>
    <type id="highway.secondary_link" priority="6" numLanes="1" speed="22.22" disallow="tram rail_urban rail rail_electric rail_fast ship" oneway="0"/>
    <type id="highway.service" priority="1" numLanes="1" speed="5.56" allow="pedestrian delivery bicycle" oneway="0"/>
    <type id="highway.stairs" priority="1" numLanes="1" speed="1.39" allow="pedestrian" oneway="1" width="2.00"/>
    <type id="highway.step" priority="1" numLanes="1" speed="1.39" allow="pedestrian" oneway="1" width="2.00"/>
    <type id="highway.steps" priority="1" numLanes="1" speed="1.39" allow="pedestrian" oneway="1" width="2.00"/>
    <type id="highway.tertiary" priority="10" numLanes="1" speed="22.22" disallow="tram rail_urban rail rail_electric rail_fast ship" oneway="0"/>
    <type id="highway.tertiary_link" priority="5" numLanes="1" speed="22.22" disallow="tram rail_urban rail rail_electric rail_fast ship" oneway="0"/>
    <type id="highway.track" priority="1" numLanes="1" speed="5.56" disallow="tram rail_urban rail rail_electric rail_fast ship" oneway="0"/>
    <type id="highway.trunk" priority="13" numLanes="2" speed="27.78" disallow="pedestrian bicycle tram rail_urban rail rail_electric rail_fast ship" oneway="0"/>
    <type id="highway.trunk_link" priority="8" numLanes="1" speed="22.22" disallow="pedestrian bicycle tram rail_urban rail rail_electric rail_fast ship" oneway="0"/>
    <type id="highway.unclassified" priority="4" numLanes="1" speed="13.89" disallow="tram rail_urban rail rail_electric rail_fast ship" oneway="0"/>
    <type id="highway.unsurfaced" priority="1" numLanes="1" speed="8.33" disallow="tram rail_urban rail rail_electric rail_fast ship" oneway="0"/>
    <type id="railway.highspeed" priority="21" numLanes="1" speed="69.44" allow="rail_fast" oneway="1"/>
    <type id="railway.light_rail" priority="19" numLanes="1" speed="27.78" allow="rail_urban" oneway="1"/>
    <type id="railway.preserved" priority="16" numLanes="1" speed="27.78" allow="rail" oneway="1"/>
    <type id="railway.rail" priority="20" numLanes="1" speed="44.44" allow="rail" oneway="1"/>
    <type id="railway.subway" priority="18" numLanes="1" speed="27.78" allow="rail_urban" oneway="1"/>
    <type id="railway.tram" priority="17" numLanes="1" speed="13.89" allow="tram" oneway="1"/>

    <edge id=":175648134_0" function="internal">
        <lane id=":175648134_0_0" index="0" allow="bicycle" speed="2.04" length="1.46" width="1.00" shape="15.74,168.56 15.34,168.36 15.18,168.13 15.27,167.87 15.61,167.57"/>
    </edge>
    <edge id=":261599791_0" function="internal">
        <lane id=":261599791_0_0" index="0" disallow="tram rail_urban rail rail_electric rail_fast ship" speed="27.78" length="0.24" shape="34.72,181.31 34.51,181.34"/>
        <lane id=":261599791_0_1" index="1" disallow="tram rail_urban rail rail_electric rail_fast ship" speed="27.78" length="0.24" shape="34.32,178.14 34.06,178.17"/>
    </edge>
    <edge id=":261599791_2" function="internal">
        <lane id=":261599791_2_0" index="0" disallow="tram rail_urban rail rail_electric rail_fast ship" speed="27.78" length="0.34" shape="33.15,171.84 33.51,171.79"/>
        <lane id=":261599791_2_1" index="1" disallow="tram rail_urban rail rail_electric rail_fast ship" speed="27.78" length="0.34" shape="33.60,175.01 33.91,174.96"/>
    </edge>
    <edge id=":261636677_0" function="internal">
        <lane id=":261636677_0_0" index="0" disallow="tram rail_urban rail rail_electric rail_fast ship" speed="10.32" length="6.61" shape="1125.26,113.85 1123.36,114.07 1122.10,114.53 1120.97,115.33 1119.46,116.58"/>
    </edge>
    <edge id=":261636677_1" function="internal">
        <lane id=":261636677_1_0" index="0" disallow="tram rail_urban rail rail_electric rail_fast ship" speed="6.31" length="5.05" shape="1125.26,113.85 1122.89,113.69 1121.14,112.88 1120.69,112.28"/>
    </edge>
    <edge id=":261636677_4" function="internal">
        <lane id=":261636677_4_0" index="0" disallow="tram rail_urban rail rail_electric rail_fast ship" speed="6.31" length="3.27" shape="1120.69,112.28 1120.02,111.41 1119.52,109.30"/>
    </edge>
    <edge id=":261636677_2" function="internal">
        <lane id=":261636677_2_0" index="0" disallow="tram rail_urban rail rail_electric rail_fast ship" speed="6.83" length="5.44" shape="1117.45,114.09 1118.44,113.10 1119.11,111.97 1119.47,110.70 1119.52,109.30"/>
    </edge>
    <edge id=":261636677_3" function="internal">
        <lane id=":261636677_3_0" index="0" disallow="tram rail_urban rail rail_electric rail_fast ship" speed="3.65" length="2.34" shape="1117.45,114.09 1118.88,113.96 1119.70,114.33"/>
    </edge>
    <edge id=":261636677_5" function="internal">
        <lane id=":261636677_5_0" index="0" disallow="tram rail_urban rail rail_electric rail_fast ship" speed="3.65" length="2.34" shape="1119.70,114.33 1119.89,115.21 1119.46,116.58"/>
    </edge>
    <edge id=":261636678_0" function="internal">
        <lane id=":261636678_0_0" index="0" disallow="tram rail_urban rail rail_electric rail_fast ship" speed="6.52" length="8.87" shape="1115.95,63.36 1115.42,60.99 1114.27,59.34 1112.50,58.40 1110.09,58.17"/>
    </edge>
    <edge id=":261636678_1" function="internal">
        <lane id=":261636678_1_0" index="0" disallow="tram rail_urban rail rail_electric rail_fast ship" speed="8.08" length="14.35" shape="1115.95,63.36 1115.88,58.15 1116.60,54.36 1118.11,51.99 1120.40,51.04"/>
    </edge>
    <edge id=":261636678_2" function="internal">
        <lane id=":261636678_2_0" index="0" disallow="tram rail_urban rail rail_electric rail_fast ship" speed="27.78" length="10.84" shape="1120.97,57.42 1110.09,58.17"/>
        <lane id=":261636678_2_1" index="1" disallow="tram rail_urban rail rail_electric rail_fast ship" speed="27.78" length="10.84" shape="1120.69,54.23 1109.94,54.98"/>
    </edge>
    <edge id=":261636678_4" function="internal">
        <lane id=":261636678_4_0" index="0" disallow="tram rail_urban rail rail_electric rail_fast ship" speed="3.65" length="2.34" shape="1120.69,54.23 1119.42,53.54 1118.95,52.78"/>
    </edge>
    <edge id=":261636678_8" function="internal">
        <lane id=":261636678_8_0" index="0" disallow="tram rail_urban rail rail_electric rail_fast ship" speed="3.65" length="2.34" shape="1118.95,52.78 1119.28,51.95 1120.40,51.04"/>
    </edge>
    <edge id=":261636678_5" function="internal">
        <lane id=":261636678_5_0" index="0" disallow="tram rail_urban rail rail_electric rail_fast ship" speed="27.78" length="10.58" shape="1109.62,48.58 1120.12,47.86"/>
        <lane id=":261636678_5_1" index="1" disallow="tram rail_urban rail rail_electric rail_fast ship" speed="27.78" length="10.58" shape="1109.78,51.78 1120.40,51.04"/>
    </edge>
    <edge id=":261636678_7" function="internal">
        <lane id=":261636678_7_0" index="0" disallow="tram rail_urban rail rail_electric rail_fast ship" speed="3.65" length="2.34" shape="1109.78,51.78 1111.02,52.52 1111.46,53.30"/>
    </edge>
    <edge id=":261636678_9" function="internal">
        <lane id=":261636678_9_0" index="0" disallow="tram rail_urban rail rail_electric rail_fast ship" speed="3.65" length="2.34" shape="1111.46,53.30 1111.09,54.12 1109.94,54.98"/>
    </edge>
    <edge id=":261647692_0" function="internal">
        <lane id=":261647692_0_0" index="0" disallow="tram rail_urban rail rail_electric rail_fast ship" speed="22.22" length="0.10" shape="491.21,281.23 491.21,281.23"/>
    </edge>
    <edge id=":261647692_1" function="internal">
        <lane id=":261647692_1_0" index="0" disallow="tram rail_urban rail rail_electric rail_fast ship" speed="22.22" length="0.10" shape="494.40,280.95 494.40,280.95"/>
    </edge>
    <edge id=":261647702_0" function="internal">
        <lane id=":261647702_0_0" index="0" disallow="tram rail_urban rail rail_electric rail_fast ship" speed="22.22" length="0.10" shape="481.39,167.53 481.39,167.53"/>
    </edge>
    <edge id=":261647702_1" function="internal">
        <lane id=":261647702_1_0" index="0" disallow="tram rail_urban rail rail_electric rail_fast ship" speed="22.22" length="0.10" shape="484.58,167.26 484.58,167.26"/>
    </edge>
    <edge id=":283018817_0" function="internal">
        <lane id=":283018817_0_0" index="0" disallow="tram rail_urban rail rail_electric rail_fast ship" speed="13.89" length="7.03" shape="612.27,549.78 615.84,543.73"/>
    </edge>
    <edge id=":283018845_0" function="internal">
        <lane id=":283018845_0_0" index="0" disallow="tram rail_urban rail rail_electric rail_fast ship" speed="13.89" length="9.39" shape="373.48,464.49 364.36,462.22"/>
    </edge>
    <edge id=":283018845_1" function="internal">
        <lane id=":283018845_1_0" index="0" disallow="tram rail_urban rail rail_electric rail_fast ship" speed="3.65" length="2.34" shape="373.48,464.49 372.50,463.42 372.31,462.55"/>
    </edge>
    <edge id=":283018845_4" function="internal">
        <lane id=":283018845_4_0" index="0" disallow="tram rail_urban rail rail_electric rail_fast ship" speed="3.65" length="2.34" shape="372.31,462.55 372.89,461.87 374.25,461.38"/>
    </edge>
    <edge id=":283018845_2" function="internal">
        <lane id=":283018845_2_0" index="0" disallow="tram rail_urban rail rail_electric rail_fast ship" speed="13.89" length="9.40" shape="365.13,459.11 374.25,461.38"/>
    </edge>
    <edge id=":283018845_3" function="internal">
        <lane id=":283018845_3_0" index="0" disallow="tram rail_urban rail rail_electric rail_fast ship" speed="3.65" length="2.34" shape="365.13,459.11 366.10,460.18 366.30,461.05"/>
    </edge>
    <edge id=":283018845_5" function="internal">
        <lane id=":283018845_5_0" index="0" disallow="tram rail_urban rail rail_electric rail_fast ship" speed="3.65" length="2.34" shape="366.30,461.05 365.72,461.73 364.36,462.22"/>
    </edge>
    <edge id=":283018932_0" function="internal">
        <lane id=":283018932_0_0" index="0" disallow="tram rail_urban rail rail_electric rail_fast ship" speed="13.89" length="5.23" shape="414.50,474.68 409.43,473.42"/>
    </edge>
    <edge id=":283018932_1" function="internal">
        <lane id=":283018932_1_0" index="0" disallow="tram rail_urban rail rail_electric rail_fast ship" speed="3.65" length="2.34" shape="414.50,474.68 413.53,473.62 413.33,472.74"/>
    </edge>
    <edge id=":283018932_4" function="internal">
        <lane id=":283018932_4_0" index="0" disallow="tram rail_urban rail rail_electric rail_fast ship" speed="3.65" length="2.34" shape="413.33,472.74 413.91,472.06 415.27,471.58"/>
    </edge>
    <edge id=":283018932_2" function="internal">
        <lane id=":283018932_2_0" index="0" disallow="tram rail_urban rail rail_electric rail_fast ship" speed="13.89" length="5.23" shape="410.20,470.31 415.27,471.58"/>
    </edge>
    <edge id=":283018932_3" function="internal">
        <lane id=":283018932_3_0" index="0" disallow="tram rail_urban rail rail_electric rail_fast ship" speed="3.65" length="2.34" shape="410.20,470.31 411.17,471.38 411.36,472.25"/>
    </edge>
    <edge id=":283018932_5" function="internal">
        <lane id=":283018932_5_0" index="0" disallow="tram rail_urban rail rail_electric rail_fast ship" speed="3.65" length="2.34" shape="411.36,472.25 410.78,472.93 409.43,473.42"/>
    </edge>
    <edge id=":283018933_0" function="internal">
        <lane id=":283018933_0_0" index="0" disallow="tram rail_urban rail rail_electric rail_fast ship" speed="13.89" length="5.00" shape="539.05,511.27 534.38,509.49"/>
    </edge>
    <edge id=":283018933_1" function="internal">
        <lane id=":283018933_1_0" index="0" disallow="tram rail_urban rail rail_electric rail_fast ship" speed="3.65" length="2.34" shape="539.05,511.27 538.21,510.09 538.12,509.20"/>
    </edge>
    <edge id=":283018933_4" function="internal">
        <lane id=":283018933_4_0" index="0" disallow="tram rail_urban rail rail_electric rail_fast ship" speed="3.65" length="2.34" shape="538.12,509.20 538.78,508.60 540.19,508.27"/>
    </edge>
    <edge id=":283018933_2" function="internal">
        <lane id=":283018933_2_0" index="0" disallow="tram rail_urban rail rail_electric rail_fast ship" speed="13.89" length="5.00" shape="535.51,506.50 540.19,508.27"/>
    </edge>
    <edge id=":283018933_3" function="internal">
        <lane id=":283018933_3_0" index="0" disallow="tram rail_urban rail rail_electric rail_fast ship" speed="3.65" length="2.34" shape="535.51,506.50 536.35,507.67 536.44,508.56"/>
    </edge>
    <edge id=":283018933_5" function="internal">
        <lane id=":283018933_5_0" index="0" disallow="tram rail_urban rail rail_electric rail_fast ship" speed="3.65" length="2.34" shape="536.44,508.56 535.78,509.17 534.38,509.49"/>
    </edge>
    <edge id=":283719736_0" function="internal">
        <lane id=":283719736_0_0" index="0" disallow="tram rail_urban rail rail_electric rail_fast ship" speed="13.89" length="7.15" shape="1053.85,523.61 1048.36,519.03"/>
    </edge>
    <edge id=":283719736_1" function="internal">
        <lane id=":283719736_1_0" index="0" disallow="tram rail_urban rail rail_electric rail_fast ship" speed="3.65" length="2.34" shape="1053.85,523.61 1053.44,522.23 1053.65,521.36"/>
    </edge>
    <edge id=":283719736_4" function="internal">
        <lane id=":283719736_4_0" index="0" disallow="tram rail_urban rail rail_electric rail_fast ship" speed="3.65" length="2.34" shape="1053.65,521.36 1054.47,521.00 1055.90,521.16"/>
    </edge>
    <edge id=":283719736_2" function="internal">
        <lane id=":283719736_2_0" index="0" disallow="tram rail_urban rail rail_electric rail_fast ship" speed="13.89" length="7.15" shape="1050.41,516.57 1055.90,521.16"/>
    </edge>
    <edge id=":283719736_3" function="internal">
        <lane id=":283719736_3_0" index="0" disallow="tram rail_urban rail rail_electric rail_fast ship" speed="3.65" length="2.34" shape="1050.41,516.57 1050.82,517.96 1050.62,518.83"/>
    </edge>
    <edge id=":283719736_5" function="internal">
        <lane id=":283719736_5_0" index="0" disallow="tram rail_urban rail rail_electric rail_fast ship" speed="3.65" length="2.34" shape="1050.62,518.83 1049.80,519.18 1048.36,519.03"/>
    </edge>
    <edge id=":283720461_0" function="internal">
        <lane id=":283720461_0_0" index="0" disallow="tram rail_urban rail rail_electric rail_fast ship" speed="13.89" length="5.00" shape="1022.28,497.24 1018.44,494.03"/>
    </edge>
    <edge id=":283720461_1" function="internal">
        <lane id=":283720461_1_0" index="0" disallow="tram rail_urban rail rail_electric rail_fast ship" speed="3.65" length="2.34" shape="1022.28,497.24 1021.88,495.85 1022.08,494.98"/>
    </edge>
    <edge id=":283720461_4" function="internal">
        <lane id=":283720461_4_0" index="0" disallow="tram rail_urban rail rail_electric rail_fast ship" speed="3.65" length="2.34" shape="1022.08,494.98 1022.90,494.63 1024.34,494.78"/>
    </edge>
    <edge id=":283720461_2" function="internal">
        <lane id=":283720461_2_0" index="0" disallow="tram rail_urban rail rail_electric rail_fast ship" speed="13.89" length="5.00" shape="1020.50,491.57 1024.34,494.78"/>
    </edge>
    <edge id=":283720461_3" function="internal">
        <lane id=":283720461_3_0" index="0" disallow="tram rail_urban rail rail_electric rail_fast ship" speed="3.65" length="2.34" shape="1020.50,491.57 1020.90,492.96 1020.70,493.83"/>
    </edge>
    <edge id=":283720461_5" function="internal">
        <lane id=":283720461_5_0" index="0" disallow="tram rail_urban rail rail_electric rail_fast ship" speed="3.65" length="2.34" shape="1020.70,493.83 1019.88,494.18 1018.44,494.03"/>
    </edge>
    <edge id=":294168710_0" function="internal">
        <lane id=":294168710_0_0" index="0" allow="pedestrian delivery bicycle" speed="5.56" length="6.20" shape="586.69,342.35 582.12,338.16"/>
    </edge>
    <edge id=":294168710_1" function="internal">
        <lane id=":294168710_1_0" index="0" allow="pedestrian delivery bicycle" speed="3.65" length="4.67" shape="586.69,342.35 586.35,340.95 586.59,340.09 587.43,339.77 588.85,339.99"/>
    </edge>
    <edge id=":294168710_2" function="internal">
        <lane id=":294168710_2_0" index="0" allow="pedestrian delivery bicycle" speed="5.56" length="6.20" shape="584.28,335.80 588.85,339.99"/>
    </edge>
    <edge id=":294168710_3" function="internal">
        <lane id=":294168710_3_0" index="0" allow="pedestrian delivery bicycle" speed="3.65" length="4.67" shape="584.28,335.80 584.62,337.20 584.38,338.06 583.54,338.38 582.12,338.16"/>
    </edge>
    <edge id=":294168710_4" function="internal">
        <lane id=":294168710_4_0" index="0" allow="pedestrian delivery bicycle" speed="5.00" length="5.04" shape="582.23,342.54 583.05,341.42 583.31,340.32 583.00,339.23 582.12,338.16"/>
    </edge>
    <edge id=":294168710_5" function="internal">
        <lane id=":294168710_5_0" index="0" allow="pedestrian delivery bicycle" speed="5.56" length="7.76" shape="582.23,342.54 584.32,340.68 586.12,339.64 587.63,339.40 588.85,339.99"/>
    </edge>
    <edge id=":294168972_0" function="internal">
        <lane id=":294168972_0_0" index="0" allow="pedestrian delivery bicycle" speed="5.11" length="5.09" shape="717.41,230.25 716.26,229.52 715.13,229.34 714.03,229.70 712.94,230.61"/>
    </edge>
    <edge id=":294168972_1" function="internal">
        <lane id=":294168972_1_0" index="0" disallow="tram rail_urban rail rail_electric rail_fast ship" speed="13.89" length="9.40" shape="717.41,230.25 710.32,224.08"/>
    </edge>
    <edge id=":294168972_2" function="internal">
        <lane id=":294168972_2_0" index="0" disallow="tram rail_urban rail rail_electric rail_fast ship" speed="3.65" length="2.34" shape="717.41,230.25 717.03,228.86 717.25,228.00"/>
    </edge>
    <edge id=":294168972_9" function="internal">
        <lane id=":294168972_9_0" index="0" disallow="tram rail_urban rail rail_electric rail_fast ship" speed="3.65" length="2.34" shape="717.25,228.00 718.08,227.66 719.51,227.84"/>
    </edge>
    <edge id=":294168972_3" function="internal">
        <lane id=":294168972_3_0" index="0" disallow="tram rail_urban rail rail_electric rail_fast ship" speed="13.89" length="9.40" shape="712.42,221.67 719.51,227.84"/>
    </edge>
    <edge id=":294168972_4" function="internal">
        <lane id=":294168972_4_0" index="0" allow="pedestrian delivery bicycle" speed="6.84" length="5.14" shape="712.42,221.67 714.27,223.80 714.97,226.01"/>
    </edge>
    <edge id=":294168972_5" function="internal">
        <lane id=":294168972_5_0" index="0" disallow="tram rail_urban rail rail_electric rail_fast ship" speed="3.65" length="2.34" shape="712.42,221.67 712.80,223.06 712.58,223.92"/>
    </edge>
    <edge id=":294168972_10" function="internal">
        <lane id=":294168972_10_0" index="0" allow="pedestrian delivery bicycle" speed="6.84" length="5.14" shape="714.97,226.01 714.52,228.28 712.94,230.61"/>
    </edge>
    <edge id=":294168972_11" function="internal">
        <lane id=":294168972_11_0" index="0" disallow="tram rail_urban rail rail_electric rail_fast ship" speed="3.65" length="2.34" shape="712.58,223.92 711.75,224.26 710.32,224.08"/>
    </edge>
    <edge id=":294168972_6" function="internal">
        <lane id=":294168972_6_0" index="0" allow="pedestrian delivery bicycle" speed="5.02" length="5.03" shape="710.57,228.46 711.35,227.31 711.56,226.20 711.22,225.12 710.32,224.08"/>
    </edge>
    <edge id=":294168972_7" function="internal">
        <lane id=":294168972_7_0" index="0" allow="pedestrian delivery bicycle" speed="6.92" length="10.17" shape="710.57,228.46 712.73,226.66 714.94,225.96 717.20,226.35 719.51,227.84"/>
    </edge>
    <edge id=":294168972_8" function="internal">
        <lane id=":294168972_8_0" index="0" allow="pedestrian delivery bicycle" speed="3.65" length="4.67" shape="710.57,228.46 711.97,228.11 712.83,228.35 713.15,229.19 712.94,230.61"/>
    </edge>
    <edge id=":294169339_0" function="internal">
        <lane id=":294169339_0_0" index="0" allow="pedestrian delivery bicycle" speed="5.56" length="7.11" shape="546.79,305.25 544.84,304.49 543.42,304.21 541.96,304.26 539.86,304.50"/>
    </edge>
    <edge id=":294169339_1" function="internal">
        <lane id=":294169339_1_0" index="0" allow="pedestrian delivery bicycle" speed="5.56" length="9.01" shape="546.79,305.25 545.00,304.14 543.66,302.55 542.77,300.48 542.32,297.94"/>
    </edge>
    <edge id=":294169339_2" function="internal">
        <lane id=":294169339_2_0" index="0" allow="pedestrian delivery bicycle" speed="3.65" length="4.67" shape="546.79,305.25 546.00,304.04 545.95,303.14 546.64,302.57 548.06,302.31"/>
    </edge>
    <edge id=":294169339_3" function="internal">
        <lane id=":294169339_3_0" index="0" allow="pedestrian delivery bicycle" speed="5.56" length="5.54" shape="545.51,297.70 545.78,299.35 546.29,300.67 547.05,301.65 548.06,302.31"/>
    </edge>
    <edge id=":294169339_4" function="internal">
        <lane id=":294169339_4_0" index="0" allow="pedestrian delivery bicycle" speed="5.56" length="10.02" shape="545.51,297.70 545.34,300.43 544.34,302.47 542.51,303.83 539.86,304.50"/>
    </edge>
    <edge id=":294169339_5" function="internal">
        <lane id=":294169339_5_0" index="0" allow="pedestrian delivery bicycle" speed="3.65" length="4.67" shape="545.51,297.70 544.81,298.95 544.04,299.41 543.21,299.08 542.32,297.94"/>
    </edge>
    <edge id=":294169339_6" function="internal">
        <lane id=":294169339_6_0" index="0" allow="pedestrian delivery bicycle" speed="5.07" length="4.97" shape="539.52,301.31 540.84,300.98 541.74,300.31 542.24,299.30 542.32,297.94"/>
    </edge>
    <edge id=":294169339_7" function="internal">
        <lane id=":294169339_7_0" index="0" allow="pedestrian delivery bicycle" speed="5.56" length="8.77" shape="539.52,301.31 542.10,301.04 543.91,301.00 545.66,301.37 548.06,302.31"/>
    </edge>
    <edge id=":294169339_8" function="internal">
        <lane id=":294169339_8_0" index="0" allow="pedestrian delivery bicycle" speed="3.65" length="4.67" shape="539.52,301.31 540.80,301.98 541.28,302.74 540.97,303.57 539.86,304.50"/>
    </edge>
    <edge id=":294169342_0" function="internal">
        <lane id=":294169342_0_0" index="0" disallow="tram rail_urban rail rail_electric rail_fast ship" speed="22.22" length="9.08" shape="493.86,312.01 493.08,302.96"/>
    </edge>
    <edge id=":294169342_1" function="internal">
        <lane id=":294169342_1_0" index="0" allow="pedestrian delivery bicycle" speed="6.82" length="4.84" shape="493.86,312.01 494.03,309.39 495.05,307.43"/>
    </edge>
    <edge id=":294169342_2" function="internal">
        <lane id=":294169342_2_0" index="0" disallow="tram rail_urban rail rail_electric rail_fast ship" speed="3.65" length="2.34" shape="493.86,312.01 494.56,310.75 495.32,310.28"/>
    </edge>
    <edge id=":294169342_9" function="internal">
        <lane id=":294169342_9_0" index="0" allow="pedestrian delivery bicycle" speed="6.82" length="5.07" shape="495.05,307.43 496.92,306.13 499.65,305.48"/>
    </edge>
    <edge id=":294169342_10" function="internal">
        <lane id=":294169342_10_0" index="0" disallow="tram rail_urban rail rail_electric rail_fast ship" speed="3.65" length="2.34" shape="495.32,310.28 496.15,310.61 497.05,311.73"/>
    </edge>
    <edge id=":294169342_3" function="internal">
        <lane id=":294169342_3_0" index="0" allow="pedestrian delivery bicycle" speed="4.98" length="4.80" shape="499.96,308.67 498.60,308.98 497.66,309.59 497.14,310.51 497.05,311.73"/>
    </edge>
    <edge id=":294169342_4" function="internal">
        <lane id=":294169342_4_0" index="0" allow="pedestrian delivery bicycle" speed="6.85" length="10.23" shape="499.96,308.67 497.16,308.55 495.08,307.56 493.72,305.69 493.08,302.96"/>
    </edge>
    <edge id=":294169342_5" function="internal">
        <lane id=":294169342_5_0" index="0" allow="pedestrian delivery bicycle" speed="3.65" length="4.67" shape="499.96,308.67 498.69,307.99 498.21,307.24 498.53,306.40 499.65,305.48"/>
    </edge>
    <edge id=":294169342_6" function="internal">
        <lane id=":294169342_6_0" index="0" allow="pedestrian delivery bicycle" speed="5.03" length="5.02" shape="496.27,302.68 496.58,304.03 497.25,304.94 498.27,305.43 499.65,305.48"/>
    </edge>
    <edge id=":294169342_7" function="internal">
        <lane id=":294169342_7_0" index="0" disallow="tram rail_urban rail rail_electric rail_fast ship" speed="22.22" length="9.08" shape="496.27,302.68 497.05,311.73"/>
    </edge>
    <edge id=":294169342_8" function="internal">
        <lane id=":294169342_8_0" index="0" disallow="tram rail_urban rail rail_electric rail_fast ship" speed="3.65" length="2.34" shape="496.27,302.68 495.58,303.95 494.81,304.42"/>
    </edge>
    <edge id=":294169342_11" function="internal">
        <lane id=":294169342_11_0" index="0" disallow="tram rail_urban rail rail_electric rail_fast ship" speed="3.65" length="2.34" shape="494.81,304.42 493.98,304.09 493.08,302.96"/>
    </edge>
    <edge id=":294169618_0" function="internal">
        <lane id=":294169618_0_0" index="0" allow="pedestrian delivery bicycle" speed="3.65" length="4.67" shape="539.59,150.66 540.26,149.38 541.01,148.90 541.85,149.21 542.77,150.31"/>
    </edge>
    <edge id=":294829385_0" function="internal">
        <lane id=":294829385_0_0" index="0" disallow="tram rail_urban rail rail_electric rail_fast ship" speed="13.89" length="9.40" shape="861.34,486.59 854.24,480.43"/>
    </edge>
    <edge id=":294829385_1" function="internal">
        <lane id=":294829385_1_0" index="0" allow="pedestrian delivery bicycle" speed="6.89" length="5.06" shape="861.34,486.59 859.53,484.50 858.83,482.31"/>
    </edge>
    <edge id=":294829385_2" function="internal">
        <lane id=":294829385_2_0" index="0" disallow="tram rail_urban rail rail_electric rail_fast ship" speed="3.65" length="2.34" shape="861.34,486.59 860.96,485.20 861.18,484.33"/>
    </edge>
    <edge id=":294829385_9" function="internal">