<?xml version="1.0" encoding="UTF-8"?>

<!-- generated on 2023-03-01 12:19:48 by Eclipse SUMO netedit Version v1_16_0+0842-611f8191fa9
-->

<additional xmlns:xsi="http://www.w3.org/2001/XMLSchema-instance" xsi:noNamespaceSchemaLocation="http://sumo.dlr.de/xsd/additional_file.xsd">
    <!-- StoppingPlaces -->
    <busStop id="busStop_0" lane="center0_1" startPos="23.00" endPos="33.00">
        <access lane="E0_0" pos="10.00"/>
        <access lane="E4_0" pos="10.00" length="40.00"/>
    </busStop>
</additional>
