<?xml version="1.0" encoding="UTF-8"?>

<!-- generated on 16.11.2018 10:27:26 by Eclipse SUMO netedit Version v1_0_0+0907-4934d005c3
<configuration xmlns:xsi="http://www.w3.org/2001/XMLSchema-instance" xsi:noNamespaceSchemaLocation="http://sumo.dlr.de/xsd/netconvertConfiguration.xsd">

    <input>
        <sumo-net-file value="C:/Users/SUMO-Test/.texttest/tmp/netedit.gui.16Nov102650.5468/netedit.gui/additionalElements/access/load/length\input_net.net.xml"/>
    </input>

    <output>
        <output-file value="C:/Users/SUMO-Test/.texttest/tmp/netedit.gui.16Nov102650.5468/netedit.gui/additionalElements/access/load/length\net.net.xml"/>
    </output>

    <processing>
        <offset.disable-normalization value="true"/>
        <lefthand value="false"/>
    </processing>

    <junctions>
        <no-turnarounds value="true"/>
        <junctions.corner-detail value="5"/>
        <junctions.limit-turn-speed value="5.5"/>
        <rectangular-lane-cut value="false"/>
    </junctions>

    <pedestrian>
        <walkingareas value="false"/>
    </pedestrian>

    <netedit>
        <sumo-additionals-file value="C:/Users/SUMO-Test/.texttest/tmp/netedit.gui.16Nov102650.5468/netedit.gui/additionalElements/access/load/length\input_additionals.add.xml"/>
        <additionals-output value="C:/Users/SUMO-Test/.texttest/tmp/netedit.gui.16Nov102650.5468/netedit.gui/additionalElements/access/load/length\additionals.xml"/>
        <shapes-output value="C:/Users/SUMO-Test/.texttest/tmp/netedit.gui.16Nov102650.5468/netedit.gui/additionalElements/access/load/length\shapes.xml"/>
    </netedit>

    <visualisation>
        <gui-settings-file value="C:/Users/SUMO-Test/.texttest/tmp/netedit.gui.16Nov102650.5468/netedit.gui/additionalElements/access/load/length\gui-settings.xml"/>
        <window-size value="700,500"/>
        <window-pos value="50,50"/>
        <gui-testing value="true"/>
        <gui-testing-debug value="true"/>
        <gui-testing-debug-gl value="true"/>
    </visualisation>

    <report>
        <no-warnings value="true"/>
        <error-log value="C:/Users/SUMO-Test/.texttest/tmp/netedit.gui.16Nov102650.5468/netedit.gui/additionalElements/access/load/length\log.txt"/>
    </report>

</configuration>
-->

<net version="1.6" junctionCornerDetail="5" limitTurnSpeed="5.50" xmlns:xsi="http://www.w3.org/2001/XMLSchema-instance" xsi:noNamespaceSchemaLocation="http://sumo.dlr.de/xsd/net_file.xsd">

    <location netOffset="25.00,30.00" convBoundary="0.00,0.00,50.00,60.00" origBoundary="-10000000000.00,-10000000000.00,10000000000.00,10000000000.00" projParameter="!"/>

    <edge id=":gneJ0_0" function="internal">
        <lane id=":gneJ0_0_0" index="0" speed="3.65" length="4.67" shape="0.00,31.60 -1.20,30.80 -1.60,30.00 -1.20,29.20 0.00,28.40"/>
    </edge>
    <edge id=":gneJ1_0" function="internal">
        <lane id=":gneJ1_0_0" index="0" speed="3.65" length="4.67" shape="50.00,28.40 51.20,29.20 51.60,30.00 51.20,30.80 50.00,31.60"/>
    </edge>

    <edge id="1" from="gneJ11" to="gneJ10" priority="1">
        <lane id="1_0" index="0" speed="13.89" length="50.00" shape="50.00,61.60 0.00,61.60"/>
    </edge>
    <edge id="10" from="gneJ4" to="gneJ5" priority="1">
        <lane id="10_0" index="0" speed="13.89" length="50.00" shape="0.00,18.40 50.00,18.40"/>
    </edge>
    <edge id="11" from="gneJ7" to="gneJ6" priority="1">
        <lane id="11_0" index="0" speed="13.89" length="50.00" shape="50.00,11.60 0.00,11.60"/>
    </edge>
    <edge id="12" from="gneJ6" to="gneJ7" priority="1">
        <lane id="12_0" index="0" speed="13.89" length="50.00" shape="0.00,8.40 50.00,8.40"/>
    </edge>
    <edge id="13" from="gneJ13" to="gneJ12" priority="1">
        <lane id="13_0" index="0" speed="13.89" length="50.00" shape="50.00,1.60 0.00,1.60"/>
    </edge>
    <edge id="14" from="gneJ12" to="gneJ13" priority="1">
        <lane id="14_0" index="0" speed="13.89" length="50.00" shape="0.00,-1.60 50.00,-1.60"/>
    </edge>
    <edge id="2" from="gneJ10" to="gneJ11" priority="1">
        <lane id="2_0" index="0" speed="13.89" length="50.00" shape="0.00,58.40 50.00,58.40"/>
    </edge>
    <edge id="3" from="gneJ9" to="gneJ8" priority="1">
        <lane id="3_0" index="0" speed="13.89" length="50.00" shape="50.00,51.60 0.00,51.60"/>
    </edge>
    <edge id="4" from="gneJ8" to="gneJ9" priority="1">
        <lane id="4_0" index="0" speed="13.89" length="50.00" shape="0.00,48.40 50.00,48.40"/>
    </edge>
    <edge id="5" from="gneJ3" to="gneJ2" priority="1">
        <lane id="5_0" index="0" speed="13.89" length="50.00" shape="50.00,41.60 0.00,41.60"/>
    </edge>
    <edge id="6" from="gneJ2" to="gneJ3" priority="1">
        <lane id="6_0" index="0" speed="13.89" length="50.00" shape="0.00,38.40 50.00,38.40"/>
    </edge>
    <edge id="7" from="gneJ1" to="gneJ0" priority="1">
        <lane id="7_0" index="0" speed="13.89" length="50.00" shape="50.00,31.60 0.00,31.60"/>
    </edge>
    <edge id="8" from="gneJ0" to="gneJ1" priority="1">
        <lane id="8_0" index="0" speed="13.89" length="50.00" shape="0.00,28.40 50.00,28.40"/>
    </edge>
    <edge id="9" from="gneJ5" to="gneJ4" priority="1">
        <lane id="9_0" index="0" speed="13.89" length="50.00" shape="50.00,21.60 0.00,21.60"/>
    </edge>

    <tlLogic id="gneJ0" type="static" programID="0" offset="0">
        <phase duration="87" state="G"/>
        <phase duration="3"  state="y"/>
    </tlLogic>
    <tlLogic id="gneJ1" type="static" programID="0" offset="0">
        <phase duration="87" state="G"/>
        <phase duration="3"  state="y"/>
    </tlLogic>

    <junction id="gneJ0" type="traffic_light" x="0.00" y="30.00" incLanes="7_0" intLanes=":gneJ0_0_0" shape="0.00,30.00 0.00,33.20 0.00,30.00">
        <request index="0" response="0" foes="0" cont="0"/>
    </junction>
    <junction id="gneJ1" type="traffic_light" x="50.00" y="30.00" incLanes="8_0" intLanes=":gneJ1_0_0" shape="50.00,30.00 50.00,26.80 50.00,30.00">
        <request index="0" response="0" foes="0" cont="0"/>
    </junction>
    <junction id="gneJ10" type="dead_end" x="0.00" y="60.00" incLanes="1_0" intLanes="" shape="0.00,60.00 0.00,63.20 0.00,60.00"/>
    <junction id="gneJ11" type="dead_end" x="50.00" y="60.00" incLanes="2_0" intLanes="" shape="50.00,60.00 50.00,56.80 50.00,60.00"/>
    <junction id="gneJ12" type="dead_end" x="0.00" y="0.00" incLanes="13_0" intLanes="" shape="0.00,0.00 0.00,3.20 0.00,0.00"/>
    <junction id="gneJ13" type="dead_end" x="50.00" y="0.00" incLanes="14_0" intLanes="" shape="50.00,0.00 50.00,-3.20 50.00,0.00"/>
    <junction id="gneJ2" type="dead_end" x="0.00" y="40.00" incLanes="5_0" intLanes="" shape="0.00,40.00 0.00,43.20 0.00,40.00"/>
    <junction id="gneJ3" type="dead_end" x="50.00" y="40.00" incLanes="6_0" intLanes="" shape="50.00,40.00 50.00,36.80 50.00,40.00"/>
    <junction id="gneJ4" type="dead_end" x="0.00" y="20.00" incLanes="9_0" intLanes="" shape="0.00,20.00 0.00,23.20 0.00,20.00"/>
    <junction id="gneJ5" type="dead_end" x="50.00" y="20.00" incLanes="10_0" intLanes="" shape="50.00,20.00 50.00,16.80 50.00,20.00"/>
    <junction id="gneJ6" type="dead_end" x="0.00" y="10.00" incLanes="11_0" intLanes="" shape="0.00,10.00 0.00,13.20 0.00,10.00"/>
    <junction id="gneJ7" type="dead_end" x="50.00" y="10.00" incLanes="12_0" intLanes="" shape="50.00,10.00 50.00,6.80 50.00,10.00"/>
    <junction id="gneJ8" type="dead_end" x="0.00" y="50.00" incLanes="3_0" intLanes="" shape="0.00,50.00 0.00,53.20 0.00,50.00"/>
    <junction id="gneJ9" type="dead_end" x="50.00" y="50.00" incLanes="4_0" intLanes="" shape="50.00,50.00 50.00,46.80 50.00,50.00"/>

    <connection from="7" to="8" fromLane="0" toLane="0" via=":gneJ0_0_0" tl="gneJ0" linkIndex="0" dir="t" state="O"/>
    <connection from="8" to="7" fromLane="0" toLane="0" via=":gneJ1_0_0" tl="gneJ1" linkIndex="0" dir="t" state="O"/>

    <connection from=":gneJ0_0" to="8" fromLane="0" toLane="0" dir="t" state="M"/>
    <connection from=":gneJ1_0" to="7" fromLane="0" toLane="0" dir="t" state="M"/>

</net>
