<?xml version="1.0" encoding="UTF-8"?>

<!-- generated on 2022-11-01 15:32:57 by Eclipse SUMO netedit Version v1_14_1+2149-ab3f80be89f
-->

<routes xmlns:xsi="http://www.w3.org/2001/XMLSchema-instance" xsi:noNamespaceSchemaLocation="http://sumo.dlr.de/xsd/routes_file.xsd">
    <!-- Vehicles, persons and containers (sorted by depart) -->
    <person id="pf_0" depart="0.00">
        <personTrip from="gneE2" to="gneE5" lines="ANY"/>
    </person>
</routes>
