<?xml version="1.0" encoding="UTF-8"?>
<!-- generated on 2020-09-07 09:29:24.142134 by routeSampler.py v1_6_0+1978-56e78ae17a
  options: -r input_routes.rou.xml <doubleminus>edgedata-file input_edgedata.xml <doubleminus>edgedata-attribute count -o out.rou.xml -I <doubleminus>write-flows number <doubleminus>weighted
-->
<routes xmlns:xsi="http://www.w3.org/2001/XMLSchema-instance" xsi:noNamespaceSchemaLocation="http://sumo.dlr.de/xsd/routes_file.xsd">
<!-- begin="0.0" end="3600.0" -->
    <route id="0" edges="-3 -3.180.00 11"/> <!-- 186 -->
    <route id="1" edges="-3 -3.180.00 15"/> <!-- 814 -->

    <flow id="1" begin="0.00" end="3592.80" number="814" route="1"/>
    <flow id="0" begin="18.00" end="3596.40" number="186" route="0"/>
</routes>
