<?xml version="1.0" encoding="UTF-8"?>

<!-- generated on 2026-04-28 09:48:42.352987 by Eclipse SUMO generateStationEdges.py v1_26_0+1404-5eac6112313
<configuration>
    <net-file value="input_net.net.xml"/>
    <stop-file value="input_additional.add.xml"/>
    <output-prefix value="out"/>
    <join-stations value="True"/>
    <build value="True"/>
</configuration>
-->

<edges xmlns:xsi="http://www.w3.org/2001/XMLSchema-instance" xsi:noNamespaceSchemaLocation="http://sumo.dlr.de/xsd/edges_file.xsd">
    <edge id="S_Oranienburg_Bhf_access" from="S_Oranienburg_Bhf_access_from" to="S_Oranienburg_Bhf_access_to" allow="pedestrian" width="8.0"/>
    <edge id="S+U_Yorckstr._(Großgörschenstr.)_(Berlin)_access" from="S+U_Yorckstr._(Großgörschenstr.)_(Berlin)_access_from" to="S+U_Yorckstr._(Großgörschenstr.)_(Berlin)_access_to" allow="pedestrian" width="8.0"/>
</edges>
