<?xml version="1.0" encoding="UTF-8"?>

<!-- generated on 2023-02-24 17:10:53 by Eclipse SUMO netedit Version v1_16_0+0703-dfb4483119c
-->

<additional xmlns:xsi="http://www.w3.org/2001/XMLSchema-instance" xsi:noNamespaceSchemaLocation="http://sumo.dlr.de/xsd/additional_file.xsd">
    <!-- RouteProbes -->
    <routeProbe id="routeProbe_01" begin="11.30" period="100.00" edge="center0" file="fileA.txt">
        <param key="KeyA1" value="valueA1"/>
        <param key="KeyA2" value="valueA3"/>
        <param key="KeyA3" value="valueA2"/>
    </routeProbe>
    <routeProbe id="routeProbe_02" begin="11.30" period="120.00" edge="center1" file="fileB.txt">
        <param key="KeyB1" value="valueB1"/>
        <param key="KeyB2" value="valueB3"/>
        <param key="KeyB3" value="valueB2"/>
    </routeProbe>
</additional>
