<?xml version="1.0" encoding="UTF-8"?>

<!-- generated on 27.03.2019 13:17:45 by Eclipse SUMO netedit Version v1_1_0+1328-1ffdf7a53c
<configuration xmlns:xsi="http://www.w3.org/2001/XMLSchema-instance" xsi:noNamespaceSchemaLocation="http://sumo.dlr.de/xsd/netconvertConfiguration.xsd">

    <input>
        <sumo-net-file value="C:/Users/SUMO-Test/.texttest/tmp/netedit.gui.1_from_27Mar094736.4004/netedit.gui/netElements/junctions/move\input_net.net.xml"/>
    </input>

    <output>
        <output-file value="C:/Users/SUMO-Test/.texttest/tmp/netedit.gui.1_from_27Mar094736.4004/netedit.gui/netElements/junctions/move\net.net.xml"/>
    </output>

    <processing>
        <geometry.max-grade.fix value="false"/>
        <offset.disable-normalization value="true"/>
        <lefthand value="false"/>
    </processing>

    <junctions>
        <no-turnarounds value="true"/>
        <junctions.corner-detail value="5"/>
        <junctions.limit-turn-speed value="5.5"/>
        <rectangular-lane-cut value="false"/>
    </junctions>

    <pedestrian>
        <walkingareas value="false"/>
    </pedestrian>

    <netedit>
        <additional-files value="C:/Users/SUMO-Test/.texttest/tmp/netedit.gui.1_from_27Mar094736.4004/netedit.gui/netElements/junctions/move\additionals.xml"/>
        <additionals-output value="C:/Users/SUMO-Test/.texttest/tmp/netedit.gui.1_from_27Mar094736.4004/netedit.gui/netElements/junctions/move\additionals.xml"/>
        <route-files value="C:/Users/SUMO-Test/.texttest/tmp/netedit.gui.1_from_27Mar094736.4004/netedit.gui/netElements/junctions/move\routes.xml"/>
        <demandelements-output value="C:/Users/SUMO-Test/.texttest/tmp/netedit.gui.1_from_27Mar094736.4004/netedit.gui/netElements/junctions/move\routes.xml"/>
    </netedit>

    <visualisation>
        <gui-settings-file value="C:/Users/SUMO-Test/.texttest/tmp/netedit.gui.1_from_27Mar094736.4004/netedit.gui/netElements/junctions/move\gui-settings.xml"/>
        <window-size value="700,500"/>
        <window-pos value="50,50"/>
        <gui-testing value="true"/>
        <gui-testing-debug value="true"/>
    </visualisation>

    <report>
        <no-warnings value="true"/>
        <error-log value="C:/Users/SUMO-Test/.texttest/tmp/netedit.gui.1_from_27Mar094736.4004/netedit.gui/netElements/junctions/move\log.txt"/>
    </report>

</configuration>
-->

<net version="1.1" junctionCornerDetail="5" limitTurnSpeed="5.50" xmlns:xsi="http://www.w3.org/2001/XMLSchema-instance" xsi:noNamespaceSchemaLocation="http://sumo.dlr.de/xsd/net_file.xsd">

    <location netOffset="3.00,-25.00" convBoundary="0.00,0.00,120.00,60.00" origBoundary="-10000000000.00,-10000000000.00,10000000000.00,10000000000.00" projParameter="!"/>

    <edge id=":gneJ11_0" function="internal">
        <lane id=":gneJ11_0_0" index="0" speed="13.89" length="21.31" shape="74.82,41.60 53.51,41.60"/>
    </edge>
    <edge id=":gneJ11_1" function="internal">
        <lane id=":gneJ11_1_0" index="0" speed="13.89" length="6.53" shape="74.82,41.60 70.20,40.67 68.51,40.00"/>
    </edge>
    <edge id=":gneJ11_6" function="internal">
        <lane id=":gneJ11_6_0" index="0" speed="13.89" length="15.22" shape="68.51,40.00 64.57,38.44 59.05,35.76 54.78,33.47"/>
    </edge>
    <edge id=":gneJ11_2" function="internal">
        <lane id=":gneJ11_2_0" index="0" speed="13.89" length="20.19" shape="56.31,30.67 60.35,32.89 65.34,35.44 70.44,37.53 74.82,38.40"/>
    </edge>
    <edge id=":gneJ11_3" function="internal">
        <lane id=":gneJ11_3_0" index="0" speed="6.32" length="15.38" shape="56.31,30.67 59.08,33.65 59.33,37.26 57.37,40.32 53.51,41.60"/>
    </edge>
    <edge id=":gneJ11_4" function="internal">
        <lane id=":gneJ11_4_0" index="0" speed="5.55" length="11.42" shape="53.51,38.40 57.43,38.09 58.95,37.17 58.06,35.63 54.78,33.47"/>
    </edge>
    <edge id=":gneJ11_5" function="internal">
        <lane id=":gneJ11_5_0" index="0" speed="13.89" length="21.31" shape="53.51,38.40 74.82,38.40"/>
    </edge>
    <edge id=":gneJ12_0" function="internal">
        <lane id=":gneJ12_0_0" index="0" speed="7.27" length="2.83" shape="91.68,40.81 90.98,41.25 90.45,41.49 89.87,41.58 89.04,41.60"/>
    </edge>
    <edge id=":gneJ12_1" function="internal">
        <lane id=":gneJ12_1_0" index="0" speed="13.89" length="0.94" shape="89.04,38.40 89.32,38.39 89.51,38.36 89.69,38.28 89.92,38.14"/>
    </edge>
    <edge id=":gneJ13_0" function="internal">
        <lane id=":gneJ13_0_0" index="0" speed="9.09" length="24.23" shape="108.56,10.57 113.96,15.36 115.82,20.10 114.16,24.78 108.96,29.41"/>
    </edge>
    <edge id=":gneJ13_1" function="internal">
        <lane id=":gneJ13_1_0" index="0" speed="6.43" length="5.31" shape="108.56,10.57 111.15,13.80 111.17,14.97"/>
    </edge>
    <edge id=":gneJ13_6" function="internal">
        <lane id=":gneJ13_6_0" index="0" speed="6.43" length="10.20" shape="111.17,14.97 111.20,17.42 109.08,20.35 105.11,21.51"/>
    </edge>
    <edge id=":gneJ13_2" function="internal">
        <lane id=":gneJ13_2_0" index="0" speed="5.49" length="10.79" shape="105.17,18.31 108.81,18.06 110.29,17.13 109.61,15.52 106.78,13.22"/>
    </edge>
    <edge id=":gneJ13_3" function="internal">
        <lane id=":gneJ13_3_0" index="0" speed="6.53" length="15.81" shape="105.17,18.31 109.27,19.59 111.55,22.56 111.58,26.17 108.96,29.41"/>
    </edge>
    <edge id=":gneJ13_4" function="internal">
        <lane id=":gneJ13_4_0" index="0" speed="5.55" length="10.91" shape="107.19,26.73 109.93,24.52 110.49,22.91 108.88,21.90 105.11,21.51"/>
    </edge>
    <edge id=":gneJ13_5" function="internal">
        <lane id=":gneJ13_5_0" index="0" speed="7.78" length="17.38" shape="107.19,26.73 110.89,23.43 112.05,20.08 110.68,16.68 106.78,13.22"/>
    </edge>
    <edge id=":gneJ14_0" function="internal">
        <lane id=":gneJ14_0_0" index="0" speed="13.89" length="0.96" shape="89.92,1.87 89.68,1.72 89.50,1.64 89.31,1.61 89.02,1.60"/>
    </edge>
    <edge id=":gneJ14_1" function="internal">
        <lane id=":gneJ14_1_0" index="0" speed="7.23" length="2.88" shape="89.02,-1.60 89.87,-1.58 90.45,-1.48 90.99,-1.24 91.70,-0.78"/>
    </edge>
    <edge id=":gneJ15_0" function="internal">
        <lane id=":gneJ15_0_0" index="0" speed="13.89" length="22.13" shape="74.71,1.60 70.01,2.50 64.20,4.63 58.48,7.15 54.05,9.24"/>
    </edge>
    <edge id=":gneJ15_1" function="internal">
        <lane id=":gneJ15_1_0" index="0" speed="13.89" length="22.20" shape="74.71,1.60 52.52,1.60"/>
    </edge>
    <edge id=":gneJ15_2" function="internal">
        <lane id=":gneJ15_2_0" index="0" speed="13.89" length="22.20" shape="52.52,-1.60 74.71,-1.60"/>
    </edge>
    <edge id=":gneJ15_3" function="internal">
        <lane id=":gneJ15_3_0" index="0" speed="6.18" length="4.12" shape="52.52,-1.60 56.10,-0.27 56.23,-0.00"/>
    </edge>
    <edge id=":gneJ15_6" function="internal">
        <lane id=":gneJ15_6_0" index="0" speed="6.18" length="10.89" shape="56.23,-0.00 57.63,2.85 56.99,6.46 54.05,9.24"/>
    </edge>
    <edge id=":gneJ15_4" function="internal">
        <lane id=":gneJ15_4_0" index="0" speed="5.55" length="11.72" shape="52.69,6.35 56.48,4.27 57.71,2.79 56.39,1.90 52.52,1.60"/>
    </edge>
    <edge id=":gneJ15_5" function="internal">
        <lane id=":gneJ15_5_0" index="0" speed="13.89" length="23.50" shape="52.69,6.35 57.34,4.21 63.52,1.58 69.80,-0.66 74.71,-1.60"/>
    </edge>
    <edge id=":gneJ16_0" function="internal">
        <lane id=":gneJ16_0_0" index="0" speed="5.83" length="7.04" shape="48.40,3.20 48.64,1.10 49.38,-0.40 50.60,-1.30 52.32,-1.60"/>
    </edge>
    <edge id=":gneJ16_1" function="internal">
        <lane id=":gneJ16_1_0" index="0" speed="3.60" length="2.03" shape="52.32,1.60 51.83,1.73 51.63,2.07 51.59,2.58 51.60,3.20"/>
    </edge>
    <edge id=":gneJ17_0" function="internal">
        <lane id=":gneJ17_0_0" index="0" speed="5.85" length="6.74" shape="48.40,26.95 48.25,24.54,0.36 47.80,22.80,0.63 47.05,21.71,0.83 46.01,21.28,1.00"/>
    </edge>
    <edge id=":gneJ17_1" function="internal">
        <lane id=":gneJ17_1_0" index="0" speed="13.89" length="14.42" shape="48.40,26.95 48.40,12.53"/>
    </edge>
    <edge id=":gneJ17_2" function="internal">
        <lane id=":gneJ17_2_0" index="0" speed="13.89" length="14.42" shape="51.60,12.53 51.60,26.95"/>
    </edge>
    <edge id=":gneJ17_3" function="internal">
        <lane id=":gneJ17_3_0" index="0" speed="7.16" length="7.27" shape="51.60,12.53 51.25,16.53,0.34 50.20,19.32,0.59 50.02,19.49,0.61"/>
    </edge>
    <edge id=":gneJ17_6" function="internal">
        <lane id=":gneJ17_6_0" index="0" speed="7.16" length="4.61" shape="50.02,19.49,0.61 48.45,20.90,0.79 46.01,21.28,1.00"/>
    </edge>
    <edge id=":gneJ17_4" function="internal">
        <lane id=":gneJ17_4_0" index="0" speed="5.51" length="6.56" shape="46.17,18.08 47.15,17.80 47.84,16.79 48.26,15.03 48.40,12.53"/>
    </edge>
    <edge id=":gneJ17_5" function="internal">
        <lane id=":gneJ17_5_0" index="0" speed="7.48" length="11.52" shape="46.17,18.08 48.55,18.80 50.24,20.52 51.26,23.24 51.60,26.95"/>
    </edge>
    <edge id=":gneJ18_0" function="internal">
        <lane id=":gneJ18_0_0" index="0" speed="6.08" length="7.74" shape="53.20,41.60 51.10,41.30 49.60,40.40 48.70,38.90 48.40,36.80"/>
    </edge>
    <edge id=":gneJ18_1" function="internal">
        <lane id=":gneJ18_1_0" index="0" speed="3.90" length="2.58" shape="51.60,36.80 51.70,37.50 52.00,38.00 52.50,38.30 53.20,38.40"/>
    </edge>
    <edge id=":gneJ19_0" function="internal">
        <lane id=":gneJ19_0_0" index="0" speed="9.19" length="28.24" shape="46.56,28.97,1.00 39.25,23.75,1.00 36.73,18.77,1.00 38.99,14.00,1.00 46.05,9.46,1.00"/>
    </edge>
    <edge id=":gneJ19_1" function="internal">
        <lane id=":gneJ19_1_0" index="0" speed="8.30" length="18.31" shape="46.56,28.97,1.00 38.36,23.63,1.00 36.11,19.89,1.00 39.72,17.81,1.00"/>
    </edge>
    <edge id=":gneJ19_2" function="internal">
        <lane id=":gneJ19_2_0" index="0" speed="5.72" length="4.19" shape="46.56,28.97,1.00 44.61,26.48,0.75 44.37,25.49,0.67"/>
    </edge>
    <edge id=":gneJ19_12" function="internal">
        <lane id=":gneJ19_12_0" index="0" speed="8.30" length="9.81" shape="39.72,17.81,1.00 39.83,17.75,1.00 49.49,17.20,1.00"/>
    </edge>
    <edge id=":gneJ19_13" function="internal">
        <lane id=":gneJ19_13_0" index="0" speed="5.72" length="8.53" shape="44.37,25.49,0.67 43.71,22.75,0.45 44.09,19.40,0.18 45.97,18.07"/>
    </edge>
    <edge id=":gneJ19_3" function="internal">
        <lane id=":gneJ19_3_0" index="0" speed="5.32" length="10.70" shape="45.81,21.26,1.00 43.03,21.33,1.00 42.49,22.17,1.00 44.18,23.78,1.00 48.10,26.16,1.00"/>
    </edge>
    <edge id=":gneJ19_4" function="internal">
        <lane id=":gneJ19_4_0" index="0" speed="7.96" length="25.32" shape="45.81,21.26,1.00 37.85,19.88,1.00 35.24,17.45,1.00 37.97,13.98,1.00 46.05,9.46,1.00"/>
    </edge>
    <edge id=":gneJ19_5" function="internal">
        <lane id=":gneJ19_5_0" index="0" speed="4.38" length="7.55" shape="45.81,21.26,1.00 44.67,20.52,1.00 45.37,19.12,1.00 47.20,17.78,1.00 49.49,17.20,1.00"/>
    </edge>
    <edge id=":gneJ19_6" function="internal">
        <lane id=":gneJ19_6_0" index="0" speed="5.98" length="13.69" shape="49.41,20.40,1.00 44.74,20.67,1.00 42.96,21.72,1.00 44.08,23.55,1.00 48.10,26.16,1.00"/>
    </edge>
    <edge id=":gneJ19_7" function="internal">
        <lane id=":gneJ19_7_0" index="0" speed="5.89" length="13.34" shape="49.41,20.40,1.00 46.79,18.89,1.00 45.01,15.51,1.00 44.58,11.84,1.00 46.05,9.46,1.00"/>
    </edge>
    <edge id=":gneJ19_8" function="internal">
        <lane id=":gneJ19_8_0" index="0" speed="3.54" length="4.28" shape="49.41,20.40,1.00 45.97,18.07"/>
    </edge>
    <edge id=":gneJ19_9" function="internal">
        <lane id=":gneJ19_9_0" index="0" speed="5.73" length="12.52" shape="47.41,12.36,1.00 43.85,14.39,1.00 43.01,15.87,1.00 44.89,16.81,1.00 49.49,17.20,1.00"/>
    </edge>
    <edge id=":gneJ19_10" function="internal">
        <lane id=":gneJ19_10_0" index="0" speed="5.65" length="11.86" shape="47.41,12.36,1.00 43.34,14.58,0.61 41.75,16.27,0.41 42.63,17.43,0.29 45.97,18.07"/>
    </edge>
    <edge id=":gneJ19_11" function="internal">
        <lane id=":gneJ19_11_0" index="0" speed="7.81" length="19.97" shape="47.41,12.36,1.00 42.50,15.54,1.00 40.98,18.90,1.00 42.85,22.44,1.00 48.10,26.16,1.00"/>
    </edge>
    <edge id=":gneJ2_0" function="internal">
        <lane id=":gneJ2_0_0" index="0" speed="3.65" length="4.67" shape="40.00,61.60 38.80,60.80 38.40,60.00 38.80,59.20 40.00,58.40"/>
    </edge>
    <edge id=":gneJ3_0" function="internal">
        <lane id=":gneJ3_0_0" index="0" speed="3.65" length="4.67" shape="60.00,58.40 61.20,59.20 61.60,60.00 61.20,60.80 60.00,61.60"/>
    </edge>
    <edge id=":gneJ4_0" function="internal">
        <lane id=":gneJ4_0_0" index="0" speed="3.65" length="4.67" shape="80.00,61.60 78.80,60.80 78.40,60.00 78.80,59.20 80.00,58.40"/>
    </edge>
    <edge id=":gneJ5_0" function="internal">
        <lane id=":gneJ5_0_0" index="0" speed="3.65" length="4.67" shape="100.00,58.40 101.20,59.20 101.60,60.00 101.20,60.80 100.00,61.60"/>
    </edge>
    <edge id=":gneJ6_0" function="internal">
        <lane id=":gneJ6_0_0" index="0" speed="6.08" length="7.74" shape="3.20,41.60 1.10,41.30 -0.40,40.40 -1.30,38.90 -1.60,36.80"/>
    </edge>
    <edge id=":gneJ6_1" function="internal">
        <lane id=":gneJ6_1_0" index="0" speed="3.90" length="2.58" shape="1.60,36.80 1.70,37.50 2.00,38.00 2.50,38.30 3.20,38.40"/>
    </edge>
    <edge id=":gneJ7_0" function="internal">
        <lane id=":gneJ7_0_0" index="0" speed="6.08" length="7.74" shape="21.60,36.80 21.30,38.90 20.40,40.40 18.90,41.30 16.80,41.60"/>
    </edge>
    <edge id=":gneJ7_1" function="internal">
        <lane id=":gneJ7_1_0" index="0" speed="3.90" length="2.58" shape="16.80,38.40 17.50,38.30 18.00,38.00 18.30,37.50 18.40,36.80"/>
    </edge>
    <edge id=":gneJ8_0" function="internal">
        <lane id=":gneJ8_0_0" index="0" speed="3.90" length="2.58" shape="18.40,23.20 18.30,22.50 18.00,22.00 17.50,21.70 16.80,21.60"/>
    </edge>
    <edge id=":gneJ8_1" function="internal">
        <lane id=":gneJ8_1_0" index="0" speed="6.08" length="7.74" shape="16.80,18.40 18.90,18.70 20.40,19.60 21.30,21.10 21.60,23.20"/>
    </edge>
    <edge id=":gneJ9_0" function="internal">
        <lane id=":gneJ9_0_0" index="0" speed="6.08" length="7.74" shape="-1.60,23.20 -1.30,21.10 -0.40,19.60 1.10,18.70 3.20,18.40"/>
    </edge>
    <edge id=":gneJ9_1" function="internal">
        <lane id=":gneJ9_1_0" index="0" speed="3.90" length="2.58" shape="3.20,21.60 2.50,21.70 2.00,22.00 1.70,22.50 1.60,23.20"/>
    </edge>

    <edge id="-gneE10" from="gneJ14" to="gneJ13" priority="1">
        <lane id="-gneE10_0" index="0" speed="13.89" length="20.32" shape="91.70,-0.78 108.56,10.57"/>
    </edge>
    <edge id="-gneE11" from="gneJ15" to="gneJ14" priority="1">
        <lane id="-gneE11_0" index="0" speed="13.89" length="14.31" shape="74.71,-1.60 89.02,-1.60"/>
    </edge>
    <edge id="-gneE12" from="gneJ16" to="gneJ15" priority="1">
        <lane id="-gneE12_0" index="0" speed="13.89" length="0.20" shape="52.32,-1.60 52.52,-1.60"/>
    </edge>
    <edge id="-gneE13" from="gneJ17" to="gneJ16" priority="1">
        <lane id="-gneE13_0" index="0" speed="13.89" length="9.33" shape="48.40,12.53 48.40,3.20"/>
    </edge>
    <edge id="-gneE14" from="gneJ18" to="gneJ17" priority="1">
        <lane id="-gneE14_0" index="0" speed="13.89" length="9.85" shape="48.40,36.80 48.40,26.95"/>
    </edge>
    <edge id="-gneE15" from="gneJ11" to="gneJ18" priority="1">
        <lane id="-gneE15_0" index="0" speed="13.89" length="0.31" shape="53.51,41.60 53.20,41.60"/>
    </edge>
    <edge id="-gneE16" from="gneJ11" to="gneJ19" priority="1">
        <lane id="-gneE16_0" index="0" speed="13.89" length="9.43" shape="54.78,33.47 46.56,28.97,1.00"/>
    </edge>
    <edge id="-gneE17" from="gneJ13" to="gneJ19" priority="1">
        <lane id="-gneE17_0" index="0" speed="13.89" length="55.71" shape="105.11,21.51 49.41,20.40,1.00"/>
    </edge>
    <edge id="-gneE18" from="gneJ15" to="gneJ19" priority="1">
        <lane id="-gneE18_0" index="0" speed="13.89" length="7.40" shape="54.05,9.24 47.41,12.36,1.00"/>
    </edge>
    <edge id="-gneE19" from="gneJ17" to="gneJ19" priority="1">
        <lane id="-gneE19_0" index="0" speed="13.89" length="0.20" shape="46.01,21.28,1.00 45.81,21.26,1.00"/>
    </edge>
    <edge id="-gneE3" from="gneJ5" to="gneJ4" priority="1">
        <lane id="-gneE3_0" index="0" speed="13.89" length="20.00" shape="100.00,61.60 80.00,61.60"/>
    </edge>
    <edge id="-gneE4" from="gneJ7" to="gneJ6" priority="1">
        <lane id="-gneE4_0" index="0" speed="13.89" length="13.60" shape="16.80,41.60 3.20,41.60"/>
    </edge>
    <edge id="-gneE5" from="gneJ8" to="gneJ7" priority="1">
        <lane id="-gneE5_0" index="0" speed="13.89" length="13.60" shape="21.60,23.20 21.60,36.80"/>
    </edge>
    <edge id="-gneE6" from="gneJ9" to="gneJ8" priority="1">
        <lane id="-gneE6_0" index="0" speed="13.89" length="13.60" shape="3.20,18.40 16.80,18.40"/>
    </edge>
    <edge id="-gneE7" from="gneJ6" to="gneJ9" priority="1">
        <lane id="-gneE7_0" index="0" speed="13.89" length="13.60" shape="-1.60,36.80 -1.60,23.20"/>
    </edge>
    <edge id="-gneE8" from="gneJ12" to="gneJ11" priority="1">
        <lane id="-gneE8_0" index="0" speed="13.89" length="14.22" shape="89.04,41.60 74.82,41.60"/>
    </edge>
    <edge id="-gneE9" from="gneJ13" to="gneJ12" priority="1">
        <lane id="-gneE9_0" index="0" speed="13.89" length="20.70" shape="108.96,29.41 91.68,40.81"/>
    </edge>
    <edge id="gneE0" from="gneJ0" to="gneJ1" priority="1">
        <lane id="gneE0_0" index="0" speed="13.89" length="20.00" shape="0.00,58.40 20.00,58.40"/>
    </edge>
    <edge id="gneE1" from="gneJ2" to="gneJ3" priority="1">
        <lane id="gneE1_0" index="0" speed="13.89" length="20.00" shape="40.00,58.40 60.00,58.40"/>
    </edge>
    <edge id="gneE10" from="gneJ13" to="gneJ14" priority="1">
        <lane id="gneE10_0" index="0" speed="13.89" length="20.32" shape="106.78,13.22 89.92,1.87"/>
    </edge>
    <edge id="gneE11" from="gneJ14" to="gneJ15" priority="1">
        <lane id="gneE11_0" index="0" speed="13.89" length="14.31" shape="89.02,1.60 74.71,1.60"/>
    </edge>
    <edge id="gneE12" from="gneJ15" to="gneJ16" priority="1">
        <lane id="gneE12_0" index="0" speed="13.89" length="0.20" shape="52.52,1.60 52.32,1.60"/>
    </edge>
    <edge id="gneE13" from="gneJ16" to="gneJ17" priority="1">
        <lane id="gneE13_0" index="0" speed="13.89" length="9.33" shape="51.60,3.20 51.60,12.53"/>
    </edge>
    <edge id="gneE14" from="gneJ17" to="gneJ18" priority="1">
        <lane id="gneE14_0" index="0" speed="13.89" length="9.85" shape="51.60,26.95 51.60,36.80"/>
    </edge>
    <edge id="gneE15" from="gneJ18" to="gneJ11" priority="1">
        <lane id="gneE15_0" index="0" speed="13.89" length="0.31" shape="53.20,38.40 53.51,38.40"/>
    </edge>
    <edge id="gneE16" from="gneJ19" to="gneJ11" priority="1">
        <lane id="gneE16_0" index="0" speed="13.89" length="9.43" shape="48.10,26.16,1.00 56.31,30.67"/>
    </edge>
    <edge id="gneE17" from="gneJ19" to="gneJ13" priority="1">
        <lane id="gneE17_0" index="0" speed="13.89" length="55.70" shape="49.49,17.20,1.00 105.17,18.31"/>
    </edge>
    <edge id="gneE18" from="gneJ19" to="gneJ15" priority="1">
        <lane id="gneE18_0" index="0" speed="13.89" length="7.40" shape="46.05,9.46,1.00 52.69,6.35"/>
    </edge>
    <edge id="gneE19" from="gneJ19" to="gneJ17" priority="1">
        <lane id="gneE19_0" index="0" speed="13.89" length="0.20" shape="45.97,18.07 46.17,18.08"/>
    </edge>
    <edge id="gneE2" from="gneJ3" to="gneJ2" priority="1">
        <lane id="gneE2_0" index="0" speed="13.89" length="20.00" shape="60.00,61.60 40.00,61.60"/>
    </edge>
    <edge id="gneE3" from="gneJ4" to="gneJ5" priority="1">
        <lane id="gneE3_0" index="0" speed="13.89" length="20.00" shape="80.00,58.40 100.00,58.40"/>
    </edge>
    <edge id="gneE4" from="gneJ6" to="gneJ7" priority="1">
        <lane id="gneE4_0" index="0" speed="13.89" length="13.60" shape="3.20,38.40 16.80,38.40"/>
    </edge>
    <edge id="gneE5" from="gneJ7" to="gneJ8" priority="1">
        <lane id="gneE5_0" index="0" speed="13.89" length="13.60" shape="18.40,36.80 18.40,23.20"/>
    </edge>
    <edge id="gneE6" from="gneJ8" to="gneJ9" priority="1">
        <lane id="gneE6_0" index="0" speed="13.89" length="13.60" shape="16.80,21.60 3.20,21.60"/>
    </edge>
    <edge id="gneE7" from="gneJ9" to="gneJ6" priority="1">
        <lane id="gneE7_0" index="0" speed="13.89" length="13.60" shape="1.60,23.20 1.60,36.80"/>
    </edge>
    <edge id="gneE8" from="gneJ11" to="gneJ12" priority="1">
        <lane id="gneE8_0" index="0" speed="13.89" length="14.22" shape="74.82,38.40 89.04,38.40"/>
    </edge>
    <edge id="gneE9" from="gneJ12" to="gneJ13" priority="1">
        <lane id="gneE9_0" index="0" speed="13.89" length="20.70" shape="89.92,38.14 107.19,26.73"/>
    </edge>

    <junction id="gneJ0" type="dead_end" x="0.00" y="60.00" incLanes="" intLanes="" shape="0.00,60.00 0.00,56.80"/>
    <junction id="gneJ1" type="dead_end" x="20.00" y="60.00" incLanes="gneE0_0" intLanes="" shape="20.00,56.80 20.00,60.00"/>
    <junction id="gneJ11" type="priority" x="70.00" y="40.00" incLanes="-gneE8_0 gneE16_0 gneE15_0" intLanes=":gneJ11_0_0 :gneJ11_6_0 :gneJ11_2_0 :gneJ11_3_0 :gneJ11_4_0 :gneJ11_5_0" shape="74.82,43.20 74.82,36.80 70.75,36.56 67.82,35.88 65.51,34.77 63.30,33.28 60.66,31.43 57.08,29.27 54.01,34.88 53.51,36.80 53.51,43.20">
        <request index="0" response="000000" foes="001000" cont="0"/>
        <request index="1" response="110000" foes="111000" cont="1"/>
        <request index="2" response="100000" foes="100000" cont="0"/>
        <request index="3" response="100011" foes="100011" cont="0"/>
        <request index="4" response="000000" foes="000010" cont="0"/>
        <request index="5" response="000000" foes="001110" cont="0"/>
    </junction>
    <junction id="gneJ12" type="priority" x="90.00" y="40.00" incLanes="-gneE9_0 gneE8_0" intLanes=":gneJ12_0_0 :gneJ12_1_0" shape="92.56,42.14 89.04,36.80 89.04,43.20 90.43,43.15 90.92,43.05 91.38,42.87 91.90,42.57">
        <request index="0" response="00" foes="00" cont="0"/>
        <request index="1" response="00" foes="00" cont="0"/>
    </junction>
    <junction id="gneJ13" type="priority" x="120.00" y="20.20" incLanes="-gneE10_0 gneE17_0 gneE9_0" intLanes=":gneJ13_0_0 :gneJ13_6_0 :gneJ13_2_0 :gneJ13_3_0 :gneJ13_4_0 :gneJ13_5_0" shape="109.46,9.24 105.88,14.55 105.20,16.71 105.07,23.10 107.25,23.40 107.67,23.72 107.66,24.16 107.21,24.72 106.31,25.40 109.84,30.74 114.25,27.22 116.88,23.68 117.71,20.11 116.75,16.51 114.00,12.89">
        <request index="0" response="000000" foes="001000" cont="0"/>
        <request index="1" response="110000" foes="111000" cont="1"/>
        <request index="2" response="100000" foes="100000" cont="0"/>
        <request index="3" response="100011" foes="100011" cont="0"/>
        <request index="4" response="000000" foes="000010" cont="0"/>
        <request index="5" response="000000" foes="001110" cont="0"/>
    </junction>
    <junction id="gneJ14" type="priority" x="90.00" y="0.00" incLanes="gneE10_0 -gneE11_0" intLanes=":gneJ14_0_0 :gneJ14_1_0" shape="89.02,3.20 92.60,-2.11 91.40,-2.86 90.93,-3.05 90.44,-3.15 89.83,-3.19 89.02,-3.20">
        <request index="0" response="00" foes="00" cont="0"/>
        <request index="1" response="00" foes="00" cont="0"/>
    </junction>
    <junction id="gneJ15" type="priority" x="70.00" y="0.00" incLanes="gneE11_0 -gneE12_0 gneE18_0" intLanes=":gneJ15_0_0 :gneJ15_1_0 :gneJ15_2_0 :gneJ15_6_0 :gneJ15_4_0 :gneJ15_5_0" shape="74.71,3.20 74.71,-3.20 51.63,-3.20 51.63,3.20 52.01,4.90 54.73,10.69 58.82,8.56 61.83,6.74 64.34,5.25 66.94,4.14 70.20,3.44">
        <request index="0" response="000000" foes="001000" cont="0"/>
        <request index="1" response="000000" foes="111000" cont="0"/>
        <request index="2" response="000000" foes="100000" cont="0"/>
        <request index="3" response="000011" foes="100011" cont="1"/>
        <request index="4" response="000010" foes="000010" cont="0"/>
        <request index="5" response="001110" foes="001110" cont="0"/>
    </junction>
    <junction id="gneJ16" type="priority" x="50.00" y="0.00" incLanes="-gneE13_0 gneE12_0" intLanes=":gneJ16_0_0 :gneJ16_1_0" shape="46.80,3.20 53.20,3.20 53.20,-3.20 49.64,-2.49 48.40,-1.60 47.51,-0.36 46.98,1.24">
        <request index="0" response="00" foes="00" cont="0"/>
        <request index="1" response="00" foes="00" cont="0"/>
    </junction>
    <junction id="gneJ17" type="priority" x="50.00" y="20.00" incLanes="-gneE14_0 gneE13_0 gneE19_0" intLanes=":gneJ17_0_0 :gneJ17_1_0 :gneJ17_2_0 :gneJ17_6_0 :gneJ17_4_0 :gneJ17_5_0" shape="46.80,26.95 53.20,26.95 53.20,12.53 46.80,12.53 46.36,14.72 45.80,15.45 45.03,15.94 44.03,16.19 42.81,16.21 42.29,22.58 44.80,23.23 45.67,23.86 46.30,24.69 46.67,25.72">
        <request index="0" response="000000" foes="001000" cont="0"/>
        <request index="1" response="000000" foes="111000" cont="0"/>
        <request index="2" response="000000" foes="100000" cont="0"/>
        <request index="3" response="000011" foes="100011" cont="1"/>
        <request index="4" response="000010" foes="000010" cont="0"/>
        <request index="5" response="001110" foes="001110" cont="0"/>
    </junction>
    <junction id="gneJ18" type="priority" x="50.00" y="40.00" incLanes="-gneE15_0 gneE14_0" intLanes=":gneJ18_0_0 :gneJ18_1_0" shape="53.20,43.20 53.20,36.80 46.80,36.80 47.51,40.36 48.40,41.60 49.64,42.49 51.24,43.02">
        <request index="0" response="00" foes="00" cont="0"/>
        <request index="1" response="00" foes="00" cont="0"/>
    </junction>
    <junction id="gneJ19" type="priority" x="30.68" y="18.43" z="1.00" incLanes="-gneE16_0 -gneE19_0 -gneE17_0 -gneE18_0" intLanes=":gneJ19_0_0 :gneJ19_12_0 :gneJ19_13_0 :gneJ19_3_0 :gneJ19_4_0 :gneJ19_5_0 :gneJ19_6_0 :gneJ19_7_0 :gneJ19_8_0 :gneJ19_9_0 :gneJ19_10_0 :gneJ19_11_0" shape="45.79,30.37,1.00 48.87,24.76,1.00 49.35,23.16,1.00 49.53,15.60,1.00 48.09,13.80,1.00 45.37,8.01,1.00 39.34,11.46,1.00 35.75,15.03,1.00 34.60,18.70,1.00 35.89,22.48,1.00 39.62,26.37,1.00">
        <request index="0"  response="000000000000" foes="000010010000" cont="0"/>
        <request index="1"  response="111000000000" foes="111010110000" cont="1"/>
        <request index="2"  response="110010000000" foes="110111110000" cont="1"/>
        <request index="3"  response="100000000000" foes="100001000000" cont="0"/>
        <request index="4"  response="100000000111" foes="100011000111" cont="0"/>
        <request index="5"  response="011000000110" foes="011011000110" cont="0"/>
        <request index="6"  response="110000111100" foes="110000111100" cont="0"/>
        <request index="7"  response="110000110011" foes="110000110011" cont="0"/>
        <request index="8"  response="010000000100" foes="010000000100" cont="0"/>
        <request index="9"  response="000000000000" foes="000000100010" cont="0"/>
        <request index="10" response="000000000000" foes="000111100110" cont="0"/>
        <request index="11" response="000000000000" foes="000011011110" cont="0"/>
    </junction>
    <junction id="gneJ2" type="priority" x="40.00" y="60.00" incLanes="gneE2_0" intLanes=":gneJ2_0_0" shape="40.00,60.00 40.00,63.20 40.00,60.00">
        <request index="0" response="0" foes="0" cont="0"/>
    </junction>
    <junction id="gneJ3" type="priority" x="60.00" y="60.00" incLanes="gneE1_0" intLanes=":gneJ3_0_0" shape="60.00,60.00 60.00,56.80 60.00,60.00">
        <request index="0" response="0" foes="0" cont="0"/>
    </junction>
    <junction id="gneJ4" type="priority" x="80.00" y="60.00" incLanes="-gneE3_0" intLanes=":gneJ4_0_0" shape="80.00,60.00 80.00,63.20 80.00,60.00">
        <request index="0" response="0" foes="0" cont="0"/>
    </junction>
    <junction id="gneJ5" type="priority" x="100.00" y="60.00" incLanes="gneE3_0" intLanes=":gneJ5_0_0" shape="100.00,60.00 100.00,56.80 100.00,60.00">
        <request index="0" response="0" foes="0" cont="0"/>
    </junction>
    <junction id="gneJ6" type="priority" x="0.00" y="40.00" incLanes="-gneE4_0 gneE7_0" intLanes=":gneJ6_0_0 :gneJ6_1_0" shape="3.20,43.20 3.20,36.80 -3.20,36.80 -2.49,40.36 -1.60,41.60 -0.36,42.49 1.24,43.02">
        <request index="0" response="00" foes="00" cont="0"/>
        <request index="1" response="00" foes="00" cont="0"/>
    </junction>
    <junction id="gneJ7" type="priority" x="20.00" y="40.00" incLanes="-gneE5_0 gneE4_0" intLanes=":gneJ7_0_0 :gneJ7_1_0" shape="23.20,36.80 16.80,36.80 16.80,43.20 20.36,42.49 21.60,41.60 22.49,40.36 23.02,38.76">
        <request index="0" response="00" foes="00" cont="0"/>
        <request index="1" response="00" foes="00" cont="0"/>
    </junction>
    <junction id="gneJ8" type="priority" x="20.00" y="20.00" incLanes="gneE5_0 -gneE6_0" intLanes=":gneJ8_0_0 :gneJ8_1_0" shape="16.80,23.20 23.20,23.20 22.49,19.64 21.60,18.40 20.36,17.51 18.76,16.98 16.80,16.80">
        <request index="0" response="00" foes="00" cont="0"/>
        <request index="1" response="00" foes="00" cont="0"/>
    </junction>
    <junction id="gneJ9" type="priority" x="0.00" y="20.00" incLanes="-gneE7_0 gneE6_0" intLanes=":gneJ9_0_0 :gneJ9_1_0" shape="-3.20,23.20 3.20,23.20 3.20,16.80 -0.36,17.51 -1.60,18.40 -2.49,19.64 -3.02,21.24">
        <request index="0" response="00" foes="00" cont="0"/>
        <request index="1" response="00" foes="00" cont="0"/>
    </junction>

    <junction id=":gneJ11_6_0" type="internal" x="68.51" y="40.00" incLanes=":gneJ11_1_0 gneE15_0" intLanes=":gneJ11_3_0 :gneJ11_4_0 :gneJ11_5_0"/>