<?xml version="1.0" encoding="UTF-8"?>

<!-- generated on 03.09.2018 12:05:28 by Eclipse SUMO netedit Version d6cfaccbb6
<configuration xmlns:xsi="http://www.w3.org/2001/XMLSchema-instance" xsi:noNamespaceSchemaLocation="http://sumo.dlr.de/xsd/netconvertConfiguration.xsd">

    <input>
        <sumo-net-file value="C:/Users/SUMO-Test/.texttest/tmp/netedit.gui.03Sep085207.2868/netedit.gui/netElements/junctions/move\input_net.net.xml"/>
    </input>

    <output>
        <output-file value="C:/Users/SUMO-Test/.texttest/tmp/netedit.gui.03Sep085207.2868/netedit.gui/netElements/junctions/move\net.net.xml"/>
    </output>

    <processing>
        <offset.disable-normalization value="true"/>
        <lefthand value="false"/>
    </processing>

    <junctions>
        <no-turnarounds value="true"/>
        <junctions.corner-detail value="5"/>
        <junctions.limit-turn-speed value="5.5"/>
        <rectangular-lane-cut value="false"/>
    </junctions>

    <pedestrian>
        <walkingareas value="false"/>
    </pedestrian>

    <netedit>
        <additionals-output value="C:/Users/SUMO-Test/.texttest/tmp/netedit.gui.03Sep085207.2868/netedit.gui/netElements/junctions/move\additionals.xml"/>
        <shapes-output value="C:/Users/SUMO-Test/.texttest/tmp/netedit.gui.03Sep085207.2868/netedit.gui/netElements/junctions/move\shapes.xml"/>
    </netedit>

    <visualisation>
        <gui-settings-file value="C:/Users/SUMO-Test/.texttest/tmp/netedit.gui.03Sep085207.2868/netedit.gui/netElements/junctions/move\gui-settings.xml"/>
        <window-size value="700,500"/>
        <window-pos value="50,50"/>
        <gui-testing value="true"/>
        <gui-testing-debug value="true"/>
    </visualisation>

    <report>
        <no-warnings value="true"/>
        <error-log value="C:/Users/SUMO-Test/.texttest/tmp/netedit.gui.03Sep085207.2868/netedit.gui/netElements/junctions/move\log.txt"/>
    </report>

</configuration>
-->

<net version="1.0" junctionCornerDetail="5" limitTurnSpeed="5.50" xmlns:xsi="http://www.w3.org/2001/XMLSchema-instance" xsi:noNamespaceSchemaLocation="http://sumo.dlr.de/xsd/net_file.xsd">

    <location netOffset="3.00,-25.00" convBoundary="0.00,0.00,120.00,60.00" origBoundary="-10000000000.00,-10000000000.00,10000000000.00,10000000000.00" projParameter="!"/>

    <edge id=":gneJ11_0" function="internal">
        <lane id=":gneJ11_0_0" index="0" speed="13.89" length="22.12" shape="74.72,41.60 52.60,41.60"/>
    </edge>
    <edge id=":gneJ11_1" function="internal">
        <lane id=":gneJ11_1_0" index="0" speed="13.89" length="6.92" shape="74.72,41.60 69.83,40.66 68.00,40.00"/>
    </edge>
    <edge id=":gneJ11_6" function="internal">
        <lane id=":gneJ11_6_0" index="0" speed="13.89" length="16.42" shape="68.00,40.00 63.62,38.42 57.49,35.79 52.88,33.64"/>
    </edge>
    <edge id=":gneJ11_2" function="internal">
        <lane id=":gneJ11_2_0" index="0" speed="13.89" length="21.95" shape="54.25,30.75 58.65,32.85 64.30,35.38 70.05,37.51 74.72,38.40"/>
    </edge>
    <edge id=":gneJ11_3" function="internal">
        <lane id=":gneJ11_3_0" index="0" speed="6.91" length="19.21" shape="54.25,30.75 59.21,34.25 60.56,37.78 58.35,40.51 52.60,41.60"/>
    </edge>
    <edge id=":gneJ11_4" function="internal">
        <lane id=":gneJ11_4_0" index="0" speed="5.55" length="11.70" shape="52.60,38.40 56.48,38.10 57.82,37.21 56.62,35.72 52.88,33.64"/>
    </edge>
    <edge id=":gneJ11_5" function="internal">
        <lane id=":gneJ11_5_0" index="0" speed="13.89" length="22.12" shape="52.60,38.40 74.72,38.40"/>
    </edge>
    <edge id=":gneJ12_0" function="internal">
        <lane id=":gneJ12_0_0" index="0" speed="7.27" length="2.83" shape="91.68,40.81 90.98,41.25 90.45,41.49 89.87,41.58 89.04,41.60"/>
    </edge>
    <edge id=":gneJ12_1" function="internal">
        <lane id=":gneJ12_1_0" index="0" speed="13.89" length="0.94" shape="89.04,38.40 89.32,38.39 89.51,38.36 89.69,38.28 89.92,38.14"/>
    </edge>
    <edge id=":gneJ13_0" function="internal">
        <lane id=":gneJ13_0_0" index="0" speed="9.09" length="24.23" shape="109.02,10.88 114.19,15.55 115.82,20.25 113.93,24.97 108.50,29.71"/>
    </edge>
    <edge id=":gneJ13_1" function="internal">
        <lane id=":gneJ13_1_0" index="0" speed="7.71" length="14.26" shape="109.02,10.88 114.84,15.65 116.14,19.08 113.57,20.75"/>
    </edge>
    <edge id=":gneJ13_6" function="internal">
        <lane id=":gneJ13_6_0" index="0" speed="7.71" length="8.55" shape="113.57,20.75 112.92,21.17 105.18,21.93"/>
    </edge>
    <edge id=":gneJ13_2" function="internal">
        <lane id=":gneJ13_2_0" index="0" speed="5.54" length="10.89" shape="105.15,18.73 108.91,18.37 110.51,17.39 109.95,15.77 107.23,13.53"/>
    </edge>
    <edge id=":gneJ13_3" function="internal">
        <lane id=":gneJ13_3_0" index="0" speed="7.09" length="19.22" shape="105.15,18.73 111.07,19.63 113.71,22.12 112.91,25.65 108.50,29.71"/>
    </edge>
    <edge id=":gneJ13_4" function="internal">
        <lane id=":gneJ13_4_0" index="0" speed="5.49" length="10.77" shape="106.74,27.03 109.59,24.77 110.28,23.17 108.81,22.22 105.18,21.93"/>
    </edge>
    <edge id=":gneJ13_5" function="internal">
        <lane id=":gneJ13_5_0" index="0" speed="7.78" length="17.38" shape="106.74,27.03 110.66,23.62 112.05,20.23 110.91,16.87 107.23,13.53"/>
    </edge>
    <edge id=":gneJ14_0" function="internal">
        <lane id=":gneJ14_0_0" index="0" speed="13.89" length="0.96" shape="89.92,1.87 89.68,1.72 89.50,1.64 89.31,1.61 89.02,1.60"/>
    </edge>
    <edge id=":gneJ14_1" function="internal">
        <lane id=":gneJ14_1_0" index="0" speed="7.23" length="2.88" shape="89.02,-1.60 89.87,-1.58 90.45,-1.48 90.99,-1.24 91.70,-0.78"/>
    </edge>
    <edge id=":gneJ15_0" function="internal">
        <lane id=":gneJ15_0_0" index="0" speed="13.89" length="20.70" shape="74.79,1.60 70.32,2.48 65.03,4.58 59.86,7.12 55.71,9.31"/>
    </edge>
    <edge id=":gneJ15_1" function="internal">
        <lane id=":gneJ15_1_0" index="0" speed="13.89" length="21.59" shape="74.79,1.60 53.20,1.60"/>
    </edge>
    <edge id=":gneJ15_2" function="internal">
        <lane id=":gneJ15_2_0" index="0" speed="13.89" length="21.59" shape="53.20,-1.60 74.79,-1.60"/>
    </edge>
    <edge id=":gneJ15_3" function="internal">
        <lane id=":gneJ15_3_0" index="0" speed="6.97" length="6.70" shape="53.20,-1.60 59.06,-0.55 59.57,0.00"/>
    </edge>
    <edge id=":gneJ15_6" function="internal">
        <lane id=":gneJ15_6_0" index="0" speed="6.97" length="12.57" shape="59.57,0.00 61.53,2.11 60.46,5.64 55.71,9.31"/>
    </edge>
    <edge id=":gneJ15_4" function="internal">
        <lane id=":gneJ15_4_0" index="0" speed="5.55" length="11.52" shape="54.22,6.48 57.64,4.34 58.61,2.82 57.13,1.90 53.20,1.60"/>
    </edge>
    <edge id=":gneJ15_5" function="internal">
        <lane id=":gneJ15_5_0" index="0" speed="13.89" length="22.21" shape="54.22,6.48 58.60,4.23 64.29,1.57 70.09,-0.66 74.79,-1.60"/>
    </edge>
    <edge id=":gneJ16_0" function="internal">
        <lane id=":gneJ16_0_0" index="0" speed="6.03" length="7.60" shape="48.40,3.20 48.69,1.10 49.56,-0.40 51.00,-1.30 53.02,-1.60"/>
    </edge>
    <edge id=":gneJ16_1" function="internal">
        <lane id=":gneJ16_1_0" index="0" speed="3.83" length="2.44" shape="53.02,1.60 52.40,1.70 51.96,2.00 51.69,2.50 51.60,3.20"/>
    </edge>
    <edge id=":gneJ17_0" function="internal">
        <lane id=":gneJ17_0_0" index="0" speed="5.76" length="7.12" shape="48.40,27.36 48.21,24.89 47.62,23.14 46.65,22.12 45.29,21.84"/>
    </edge>
    <edge id=":gneJ17_1" function="internal">
        <lane id=":gneJ17_1_0" index="0" speed="13.89" length="14.41" shape="48.40,27.36 48.40,12.96"/>
    </edge>
    <edge id=":gneJ17_2" function="internal">
        <lane id=":gneJ17_2_0" index="0" speed="13.89" length="14.41" shape="51.60,12.96 51.60,27.36"/>
    </edge>
    <edge id=":gneJ17_3" function="internal">
        <lane id=":gneJ17_3_0" index="0" speed="7.60" length="6.77" shape="51.60,12.96 51.21,16.72 50.02,19.46"/>
    </edge>
    <edge id=":gneJ17_6" function="internal">
        <lane id=":gneJ17_6_0" index="0" speed="7.60" length="5.45" shape="50.02,19.46 48.05,21.16 45.29,21.84"/>
    </edge>
    <edge id=":gneJ17_4" function="internal">
        <lane id=":gneJ17_4_0" index="0" speed="6.18" length="7.75" shape="44.50,18.67 46.20,18.24 47.42,17.15 48.16,15.38 48.40,12.96"/>
    </edge>
    <edge id=":gneJ17_5" function="internal">
        <lane id=":gneJ17_5_0" index="0" speed="7.52" length="12.89" shape="44.50,18.67 47.60,19.08 49.82,20.67 51.16,23.43 51.60,27.36"/>
    </edge>
    <edge id=":gneJ18_0" function="internal">
        <lane id=":gneJ18_0_0" index="0" speed="5.85" length="7.11" shape="52.40,41.60 50.65,41.30 49.40,40.40 48.65,38.90 48.40,36.80"/>
    </edge>
    <edge id=":gneJ18_1" function="internal">
        <lane id=":gneJ18_1_0" index="0" speed="3.62" length="2.07" shape="51.60,36.80 51.60,37.43 51.67,37.94 51.90,38.28 52.40,38.40"/>
    </edge>
    <edge id=":gneJ19_0" function="internal">
        <lane id=":gneJ19_0_0" index="0" speed="9.12" length="27.98" shape="45.49,30.13 38.35,25.53 36.00,20.81 38.44,15.95 45.66,10.97"/>
    </edge>
    <edge id=":gneJ19_1" function="internal">
        <lane id=":gneJ19_1_0" index="0" speed="7.89" length="19.91" shape="45.49,30.13 37.20,25.51 34.23,22.06 36.60,19.79 39.16,19.42"/>
    </edge>
    <edge id=":gneJ19_2" function="internal">
        <lane id=":gneJ19_2_0" index="0" speed="6.91" length="10.81" shape="45.49,30.13 40.43,26.63 38.87,23.11 39.36,22.46"/>
    </edge>
    <edge id=":gneJ19_12" function="internal">
        <lane id=":gneJ19_12_0" index="0" speed="7.89" length="5.19" shape="39.16,19.42 44.30,18.68"/>
    </edge>
    <edge id=":gneJ19_13" function="internal">
        <lane id=":gneJ19_13_0" index="0" speed="6.91" length="8.34" shape="39.36,22.46 40.88,20.39 46.53,19.25"/>
    </edge>
    <edge id=":gneJ19_3" function="internal">
        <lane id=":gneJ19_3_0" index="0" speed="5.63" length="12.03" shape="47.98,22.44 43.78,22.78 42.19,23.69 43.22,25.18 46.86,27.24"/>
    </edge>
    <edge id=":gneJ19_4" function="internal">
        <lane id=":gneJ19_4_0" index="0" speed="8.20" length="27.45" shape="47.98,22.44 38.62,21.81 35.11,19.68 37.46,16.07 45.66,10.97"/>
    </edge>
    <edge id=":gneJ19_5" function="internal">
        <lane id=":gneJ19_5_0" index="0" speed="5.97" length="16.10" shape="47.98,22.44 41.78,21.96 38.64,20.78 39.25,19.49 44.30,18.68"/>
    </edge>
    <edge id=":gneJ19_6" function="internal">
        <lane id=":gneJ19_6_0" index="0" speed="5.53" length="11.37" shape="45.09,21.85 41.95,22.35 41.20,23.41 42.84,25.04 46.86,27.24"/>
    </edge>
    <edge id=":gneJ19_7" function="internal">
        <lane id=":gneJ19_7_0" index="0" speed="6.88" length="19.09" shape="45.09,21.85 39.72,21.01 38.31,18.34 40.43,14.70 45.66,10.97"/>
    </edge>
    <edge id=":gneJ19_8" function="internal">
        <lane id=":gneJ19_8_0" index="0" speed="3.19" length="2.97" shape="45.09,21.85 46.53,19.25"/>
    </edge>
    <edge id=":gneJ19_9" function="internal">
        <lane id=":gneJ19_9_0" index="0" speed="5.26" length="10.34" shape="47.15,13.80 43.23,16.07 41.45,17.64 41.81,18.51 44.30,18.68"/>
    </edge>
    <edge id=":gneJ19_10" function="internal">
        <lane id=":gneJ19_10_0" index="0" speed="5.67" length="12.12" shape="47.15,13.80 43.16,16.22 41.72,17.93 42.85,18.95 46.53,19.25"/>
    </edge>
    <edge id=":gneJ19_11" function="internal">
        <lane id=":gneJ19_11_0" index="0" speed="7.72" length="19.62" shape="47.15,13.80 42.04,17.31 40.29,20.72 41.90,24.03 46.86,27.24"/>
    </edge>
    <edge id=":gneJ2_0" function="internal">
        <lane id=":gneJ2_0_0" index="0" speed="3.65" length="4.67" shape="40.00,61.60 38.80,60.80 38.40,60.00 38.80,59.20 40.00,58.40"/>
    </edge>
    <edge id=":gneJ3_0" function="internal">
        <lane id=":gneJ3_0_0" index="0" speed="3.65" length="4.67" shape="60.00,58.40 61.20,59.20 61.60,60.00 61.20,60.80 60.00,61.60"/>
    </edge>
    <edge id=":gneJ4_0" function="internal">
        <lane id=":gneJ4_0_0" index="0" speed="3.65" length="4.67" shape="80.00,61.60 78.80,60.80 78.40,60.00 78.80,59.20 80.00,58.40"/>
    </edge>
    <edge id=":gneJ5_0" function="internal">
        <lane id=":gneJ5_0_0" index="0" speed="3.65" length="4.67" shape="100.00,58.40 101.20,59.20 101.60,60.00 101.20,60.80 100.00,61.60"/>
    </edge>
    <edge id=":gneJ6_0" function="internal">
        <lane id=":gneJ6_0_0" index="0" speed="6.08" length="7.74" shape="3.20,41.60 1.10,41.30 -0.40,40.40 -1.30,38.90 -1.60,36.80"/>
    </edge>
    <edge id=":gneJ6_1" function="internal">
        <lane id=":gneJ6_1_0" index="0" speed="3.90" length="2.58" shape="1.60,36.80 1.70,37.50 2.00,38.00 2.50,38.30 3.20,38.40"/>
    </edge>
    <edge id=":gneJ7_0" function="internal">
        <lane id=":gneJ7_0_0" index="0" speed="6.08" length="7.74" shape="21.60,36.80 21.30,38.90 20.40,40.40 18.90,41.30 16.80,41.60"/>
    </edge>
    <edge id=":gneJ7_1" function="internal">
        <lane id=":gneJ7_1_0" index="0" speed="3.90" length="2.58" shape="16.80,38.40 17.50,38.30 18.00,38.00 18.30,37.50 18.40,36.80"/>
    </edge>
    <edge id=":gneJ8_0" function="internal">
        <lane id=":gneJ8_0_0" index="0" speed="3.90" length="2.58" shape="18.40,23.20 18.30,22.50 18.00,22.00 17.50,21.70 16.80,21.60"/>
    </edge>
    <edge id=":gneJ8_1" function="internal">
        <lane id=":gneJ8_1_0" index="0" speed="6.08" length="7.74" shape="16.80,18.40 18.90,18.70 20.40,19.60 21.30,21.10 21.60,23.20"/>
    </edge>
    <edge id=":gneJ9_0" function="internal">
        <lane id=":gneJ9_0_0" index="0" speed="6.08" length="7.74" shape="-1.60,23.20 -1.30,21.10 -0.40,19.60 1.10,18.70 3.20,18.40"/>
    </edge>
    <edge id=":gneJ9_1" function="internal">
        <lane id=":gneJ9_1_0" index="0" speed="3.90" length="2.58" shape="3.20,21.60 2.50,21.70 2.00,22.00 1.70,22.50 1.60,23.20"/>
    </edge>

    <edge id="-gneE10" from="gneJ14" to="gneJ13" priority="1">
        <lane id="-gneE10_0" index="0" speed="13.89" length="20.87" shape="91.70,-0.78 109.02,10.88"/>
    </edge>
    <edge id="-gneE11" from="gneJ15" to="gneJ14" priority="1">
        <lane id="-gneE11_0" index="0" speed="13.89" length="14.23" shape="74.79,-1.60 89.02,-1.60"/>
    </edge>
    <edge id="-gneE12" from="gneJ16" to="gneJ15" priority="1">
        <lane id="-gneE12_0" index="0" speed="13.89" length="0.18" shape="53.02,-1.60 53.20,-1.60"/>
    </edge>
    <edge id="-gneE13" from="gneJ17" to="gneJ16" priority="1">
        <lane id="-gneE13_0" index="0" speed="13.89" length="9.76" shape="48.40,12.96 48.40,3.20"/>
    </edge>
    <edge id="-gneE14" from="gneJ18" to="gneJ17" priority="1">
        <lane id="-gneE14_0" index="0" speed="13.89" length="9.44" shape="48.40,36.80 48.40,27.36"/>
    </edge>
    <edge id="-gneE15" from="gneJ11" to="gneJ18" priority="1">
        <lane id="-gneE15_0" index="0" speed="13.89" length="0.20" shape="52.60,41.60 52.40,41.60"/>
    </edge>
    <edge id="-gneE16" from="gneJ11" to="gneJ19" priority="1">
        <lane id="-gneE16_0" index="0" speed="13.89" length="8.18" shape="52.88,33.64 45.49,30.13"/>
    </edge>
    <edge id="-gneE17" from="gneJ13" to="gneJ19" priority="1">
        <lane id="-gneE17_0" index="0" speed="13.89" length="57.20" shape="105.18,21.93 47.98,22.44"/>
    </edge>
    <edge id="-gneE18" from="gneJ15" to="gneJ19" priority="1">
        <lane id="-gneE18_0" index="0" speed="13.89" length="9.67" shape="55.71,9.31 47.15,13.80"/>
    </edge>
    <edge id="-gneE19" from="gneJ17" to="gneJ19" priority="1">
        <lane id="-gneE19_0" index="0" speed="13.89" length="0.20" shape="45.29,21.84 45.09,21.85"/>
    </edge>
    <edge id="-gneE3" from="gneJ5" to="gneJ4" priority="1">
        <lane id="-gneE3_0" index="0" speed="13.89" length="20.00" shape="100.00,61.60 80.00,61.60"/>
    </edge>
    <edge id="-gneE4" from="gneJ7" to="gneJ6" priority="1">
        <lane id="-gneE4_0" index="0" speed="13.89" length="13.60" shape="16.80,41.60 3.20,41.60"/>
    </edge>
    <edge id="-gneE5" from="gneJ8" to="gneJ7" priority="1">
        <lane id="-gneE5_0" index="0" speed="13.89" length="13.60" shape="21.60,23.20 21.60,36.80"/>
    </edge>
    <edge id="-gneE6" from="gneJ9" to="gneJ8" priority="1">
        <lane id="-gneE6_0" index="0" speed="13.89" length="13.60" shape="3.20,18.40 16.80,18.40"/>
    </edge>
    <edge id="-gneE7" from="gneJ6" to="gneJ9" priority="1">
        <lane id="-gneE7_0" index="0" speed="13.89" length="13.60" shape="-1.60,36.80 -1.60,23.20"/>
    </edge>
    <edge id="-gneE8" from="gneJ12" to="gneJ11" priority="1">
        <lane id="-gneE8_0" index="0" speed="13.89" length="14.32" shape="89.04,41.60 74.72,41.60"/>
    </edge>
    <edge id="-gneE9" from="gneJ13" to="gneJ12" priority="1">
        <lane id="-gneE9_0" index="0" speed="13.89" length="20.15" shape="108.50,29.71 91.68,40.81"/>
    </edge>
    <edge id="gneE0" from="gneJ0" to="gneJ1" priority="1">
        <lane id="gneE0_0" index="0" speed="13.89" length="20.00" shape="0.00,58.40 20.00,58.40"/>
    </edge>
    <edge id="gneE1" from="gneJ2" to="gneJ3" priority="1">
        <lane id="gneE1_0" index="0" speed="13.89" length="20.00" shape="40.00,58.40 60.00,58.40"/>
    </edge>
    <edge id="gneE10" from="gneJ13" to="gneJ14" priority="1">
        <lane id="gneE10_0" index="0" speed="13.89" length="20.87" shape="107.23,13.53 89.92,1.87"/>
    </edge>
    <edge id="gneE11" from="gneJ14" to="gneJ15" priority="1">
        <lane id="gneE11_0" index="0" speed="13.89" length="14.23" shape="89.02,1.60 74.79,1.60"/>
    </edge>
    <edge id="gneE12" from="gneJ15" to="gneJ16" priority="1">
        <lane id="gneE12_0" index="0" speed="13.89" length="0.18" shape="53.20,1.60 53.02,1.60"/>
    </edge>
    <edge id="gneE13" from="gneJ16" to="gneJ17" priority="1">
        <lane id="gneE13_0" index="0" speed="13.89" length="9.76" shape="51.60,3.20 51.60,12.96"/>
    </edge>
    <edge id="gneE14" from="gneJ17" to="gneJ18" priority="1">
        <lane id="gneE14_0" index="0" speed="13.89" length="9.44" shape="51.60,27.36 51.60,36.80"/>
    </edge>
    <edge id="gneE15" from="gneJ18" to="gneJ11" priority="1">
        <lane id="gneE15_0" index="0" speed="13.89" length="0.20" shape="52.40,38.40 52.60,38.40"/>
    </edge>
    <edge id="gneE16" from="gneJ19" to="gneJ11" priority="1">
        <lane id="gneE16_0" index="0" speed="13.89" length="8.18" shape="46.86,27.24 54.25,30.75"/>
    </edge>
    <edge id="gneE17" from="gneJ19" to="gneJ13" priority="1">
        <lane id="gneE17_0" index="0" speed="13.89" length="58.62" shape="46.53,19.25 105.15,18.73"/>
    </edge>
    <edge id="gneE18" from="gneJ19" to="gneJ15" priority="1">
        <lane id="gneE18_0" index="0" speed="13.89" length="9.67" shape="45.66,10.97 54.22,6.48"/>
    </edge>
    <edge id="gneE19" from="gneJ19" to="gneJ17" priority="1">
        <lane id="gneE19_0" index="0" speed="13.89" length="0.20" shape="44.30,18.68 44.50,18.67"/>
    </edge>
    <edge id="gneE2" from="gneJ3" to="gneJ2" priority="1">
        <lane id="gneE2_0" index="0" speed="13.89" length="20.00" shape="60.00,61.60 40.00,61.60"/>
    </edge>
    <edge id="gneE3" from="gneJ4" to="gneJ5" priority="1">
        <lane id="gneE3_0" index="0" speed="13.89" length="20.00" shape="80.00,58.40 100.00,58.40"/>
    </edge>
    <edge id="gneE4" from="gneJ6" to="gneJ7" priority="1">
        <lane id="gneE4_0" index="0" speed="13.89" length="13.60" shape="3.20,38.40 16.80,38.40"/>
    </edge>
    <edge id="gneE5" from="gneJ7" to="gneJ8" priority="1">
        <lane id="gneE5_0" index="0" speed="13.89" length="13.60" shape="18.40,36.80 18.40,23.20"/>
    </edge>
    <edge id="gneE6" from="gneJ8" to="gneJ9" priority="1">
        <lane id="gneE6_0" index="0" speed="13.89" length="13.60" shape="16.80,21.60 3.20,21.60"/>
    </edge>
    <edge id="gneE7" from="gneJ9" to="gneJ6" priority="1">
        <lane id="gneE7_0" index="0" speed="13.89" length="13.60" shape="1.60,23.20 1.60,36.80"/>
    </edge>
    <edge id="gneE8" from="gneJ11" to="gneJ12" priority="1">
        <lane id="gneE8_0" index="0" speed="13.89" length="14.32" shape="74.72,38.40 89.04,38.40"/>
    </edge>
    <edge id="gneE9" from="gneJ12" to="gneJ13" priority="1">
        <lane id="gneE9_0" index="0" speed="13.89" length="20.15" shape="89.92,38.14 106.74,27.03"/>
    </edge>

    <junction id="gneJ0" type="dead_end" x="0.00" y="60.00" incLanes="" intLanes="" shape="0.00,60.00 0.00,56.80"/>
    <junction id="gneJ1" type="dead_end" x="20.00" y="60.00" incLanes="gneE0_0" intLanes="" shape="20.00,56.80 20.00,60.00"/>
    <junction id="gneJ11" type="priority" x="70.00" y="40.00" incLanes="-gneE8_0 gneE16_0 gneE15_0" intLanes=":gneJ11_0_0 :gneJ11_6_0 :gneJ11_2_0 :gneJ11_3_0 :gneJ11_4_0 :gneJ11_5_0" shape="74.72,43.20 74.72,36.80 70.25,36.56 67.01,35.86 64.45,34.75 61.96,33.26 58.99,31.43 54.94,29.30 52.19,35.08 51.80,36.80 51.80,43.20">
        <request index="0" response="000000" foes="001000" cont="0"/>
        <request index="1" response="110000" foes="111000" cont="1"/>
        <request index="2" response="100000" foes="100000" cont="0"/>
        <request index="3" response="100011" foes="100011" cont="0"/>
        <request index="4" response="000000" foes="000010" cont="0"/>
        <request index="5" response="000000" foes="001110" cont="0"/>
    </junction>
    <junction id="gneJ12" type="priority" x="90.00" y="40.00" incLanes="-gneE9_0 gneE8_0" intLanes=":gneJ12_0_0 :gneJ12_1_0" shape="92.56,42.14 89.04,36.80 89.04,43.20 90.43,43.15 90.92,43.05 91.38,42.87 91.90,42.57">
        <request index="0" response="00" foes="00" cont="0"/>
        <request index="1" response="00" foes="00" cont="0"/>
    </junction>
    <junction id="gneJ13" type="priority" x="120.00" y="20.20" incLanes="-gneE10_0 gneE17_0 gneE9_0" intLanes=":gneJ13_0_0 :gneJ13_6_0 :gneJ13_2_0 :gneJ13_3_0 :gneJ13_4_0 :gneJ13_5_0" shape="109.91,9.55 106.34,14.86 107.68,16.10 107.70,16.54 107.28,16.86 106.43,17.06 105.14,17.13 105.20,23.53 105.86,25.70 109.38,31.04 113.95,27.44 116.72,23.85 117.71,20.26 116.90,16.68 114.30,13.11">
        <request index="0" response="000000" foes="001000" cont="0"/>
        <request index="1" response="110000" foes="111000" cont="1"/>
        <request index="2" response="100000" foes="100000" cont="0"/>
        <request index="3" response="100011" foes="100011" cont="0"/>
        <request index="4" response="000000" foes="000010" cont="0"/>
        <request index="5" response="000000" foes="001110" cont="0"/>
    </junction>
    <junction id="gneJ14" type="priority" x="90.00" y="0.00" incLanes="gneE10_0 -gneE11_0" intLanes=":gneJ14_0_0 :gneJ14_1_0" shape="89.02,3.20 92.60,-2.11 91.40,-2.86 90.93,-3.05 90.44,-3.15 89.83,-3.19 89.02,-3.20">
        <request index="0" response="00" foes="00" cont="0"/>
        <request index="1" response="00" foes="00" cont="0"/>
    </junction>
    <junction id="gneJ15" type="priority" x="70.00" y="0.00" incLanes="gneE11_0 -gneE12_0 gneE18_0" intLanes=":gneJ15_0_0 :gneJ15_1_0 :gneJ15_2_0 :gneJ15_6_0 :gneJ15_4_0 :gneJ15_5_0" shape="74.79,3.20 74.79,-3.20 53.02,-3.20 53.02,3.20 53.48,5.06 56.45,10.73 60.17,8.57 62.90,6.73 65.20,5.24 67.58,4.13 70.60,3.44">
        <request index="0" response="000000" foes="001000" cont="0"/>
        <request index="1" response="000000" foes="111000" cont="0"/>
        <request index="2" response="000000" foes="100000" cont="0"/>
        <request index="3" response="000011" foes="100011" cont="1"/>
        <request index="4" response="000010" foes="000010" cont="0"/>
        <request index="5" response="001110" foes="001110" cont="0"/>
    </junction>
    <junction id="gneJ16" type="priority" x="50.00" y="0.00" incLanes="-gneE13_0 gneE12_0" intLanes=":gneJ16_0_0 :gneJ16_1_0" shape="46.80,3.20 53.20,3.20 53.20,-3.20 49.64,-2.49 48.40,-1.60 47.51,-0.36 46.98,1.24">
        <request index="0" response="00" foes="00" cont="0"/>
        <request index="1" response="00" foes="00" cont="0"/>
    </junction>
    <junction id="gneJ17" type="priority" x="50.00" y="20.00" incLanes="-gneE14_0 gneE13_0 gneE19_0" intLanes=":gneJ17_0_0 :gneJ17_1_0 :gneJ17_2_0 :gneJ17_6_0 :gneJ17_4_0 :gneJ17_5_0" shape="46.80,27.36 53.20,27.36 53.20,12.96 46.80,12.96 46.32,15.20 45.72,16.01 44.88,16.61 43.80,16.99 42.49,17.17 42.80,23.56 45.02,23.90 45.80,24.41 46.36,25.16 46.69,26.15">
        <request index="0" response="000000" foes="001000" cont="0"/>
        <request index="1" response="000000" foes="111000" cont="0"/>
        <request index="2" response="000000" foes="100000" cont="0"/>
        <request index="3" response="000011" foes="100011" cont="1"/>
        <request index="4" response="000010" foes="000010" cont="0"/>
        <request index="5" response="001110" foes="001110" cont="0"/>
    </junction>
    <junction id="gneJ18" type="priority" x="50.00" y="40.00" incLanes="-gneE15_0 gneE14_0" intLanes=":gneJ18_0_0 :gneJ18_1_0" shape="53.20,43.20 53.20,36.80 46.80,36.80 47.51,40.36 48.40,41.60 49.64,42.49 51.24,43.02">
        <request index="0" response="00" foes="00" cont="0"/>
        <request index="1" response="00" foes="00" cont="0"/>
    </junction>
    <junction id="gneJ19" type="priority" x="30.00" y="21.00" incLanes="-gneE16_0 -gneE17_0 -gneE19_0 -gneE18_0" intLanes=":gneJ19_0_0 :gneJ19_12_0 :gneJ19_13_0 :gneJ19_3_0 :gneJ19_4_0 :gneJ19_5_0 :gneJ19_6_0 :gneJ19_7_0 :gneJ19_8_0 :gneJ19_9_0 :gneJ19_10_0 :gneJ19_11_0" shape="44.80,31.57 47.55,25.79 48.70,24.03 45.52,17.02 47.90,15.22 44.92,9.55 38.78,13.38 35.10,17.15 33.85,20.85 35.06,24.49 38.71,28.06">
        <request index="0"  response="000000000000" foes="000010010000" cont="0"/>
        <request index="1"  response="111000000000" foes="111010110000" cont="1"/>
        <request index="2"  response="110010000000" foes="110111110000" cont="1"/>
        <request index="3"  response="100000000000" foes="100001000000" cont="0"/>
        <request index="4"  response="100000000111" foes="100011000111" cont="0"/>
        <request index="5"  response="011000000110" foes="011011000110" cont="0"/>
        <request index="6"  response="110000111100" foes="110000111100" cont="0"/>
        <request index="7"  response="110000110011" foes="110000110111" cont="0"/>
        <request index="8"  response="010000000100" foes="010000000100" cont="0"/>
        <request index="9"  response="000000000000" foes="000000100010" cont="0"/>
        <request index="10" response="000000000000" foes="000111100110" cont="0"/>
        <request index="11" response="000000000000" foes="000011011110" cont="0"/>
    </junction>
    <junction id="gneJ2" type="priority" x="40.00" y="60.00" incLanes="gneE2_0" intLanes=":gneJ2_0_0" shape="40.00,60.00 40.00,63.20 40.00,60.00">
        <request index="0" response="0" foes="0" cont="0"/>
    </junction>
    <junction id="gneJ3" type="priority" x="60.00" y="60.00" incLanes="gneE1_0" intLanes=":gneJ3_0_0" shape="60.00,60.00 60.00,56.80 60.00,60.00">
        <request index="0" response="0" foes="0" cont="0"/>
    </junction>
    <junction id="gneJ4" type="priority" x="80.00" y="60.00" incLanes="-gneE3_0" intLanes=":gneJ4_0_0" shape="80.00,60.00 80.00,63.20 80.00,60.00">
        <request index="0" response="0" foes="0" cont="0"/>
    </junction>
    <junction id="gneJ5" type="priority" x="100.00" y="60.00" incLanes="gneE3_0" intLanes=":gneJ5_0_0" shape="100.00,60.00 100.00,56.80 100.00,60.00">
        <request index="0" response="0" foes="0" cont="0"/>
    </junction>
    <junction id="gneJ6" type="priority" x="0.00" y="40.00" incLanes="-gneE4_0 gneE7_0" intLanes=":gneJ6_0_0 :gneJ6_1_0" shape="3.20,43.20 3.20,36.80 -3.20,36.80 -2.49,40.36 -1.60,41.60 -0.36,42.49 1.24,43.02">
        <request index="0" response="00" foes="00" cont="0"/>
        <request index="1" response="00" foes="00" cont="0"/>
    </junction>
    <junction id="gneJ7" type="priority" x="20.00" y="40.00" incLanes="-gneE5_0 gneE4_0" intLanes=":gneJ7_0_0 :gneJ7_1_0" shape="23.20,36.80 16.80,36.80 16.80,43.20 20.36,42.49 21.60,41.60 22.49,40.36 23.02,38.76">
        <request index="0" response="00" foes="00" cont="0"/>
        <request index="1" response="00" foes="00" cont="0"/>
    </junction>
    <junction id="gneJ8" type="priority" x="20.00" y="20.00" incLanes="gneE5_0 -gneE6_0" intLanes=":gneJ8_0_0 :gneJ8_1_0" shape="16.80,23.20 23.20,23.20 22.49,19.64 21.60,18.40 20.36,17.51 18.76,16.98 16.80,16.80">
        <request index="0" response="00" foes="00" cont="0"/>
        <request index="1" response="00" foes="00" cont="0"/>
    </junction>
    <junction id="gneJ9" type="priority" x="0.00" y="20.00" incLanes="-gneE7_0 gneE6_0" intLanes=":gneJ9_0_0 :gneJ9_1_0" shape="-3.20,23.20 3.20,23.20 3.20,16.80 -0.36,17.51 -1.60,18.40 -2.49,19.64 -3.02,21.24">
        <request index="0" response="00" foes="00" cont="0"/>
        <request index="1" response="00" foes="00" cont="0"/>
    </junction>

    <junction id=":gneJ11_6_0" type="internal" x="68.00" y="40.00" incLanes=":gneJ11_1_0 gneE15_0" intLanes=":gneJ11_3_0 :gneJ11_4_0 :gneJ11_5_0"/>
    <junction id=":gneJ13_6_0" type="internal" x="113.57" y="20.75" incLanes=":gneJ13_1_0 gneE9_0" intLanes=":gneJ13_3_0 :gneJ13_4_0 :gneJ13_5_0"/>
    <junction id=":gneJ15_6_0" type="internal" x="59.57" y="0.00" incLanes=":gneJ15_3_0 gneE11_0" intLanes=":gneJ15_0_0 :gneJ15_1_0 :gneJ15_5_0"/>
    <junction id=":gneJ17_6_0" type="internal" x="50.02" y="19.46" incLanes=":gneJ17_3_0 -gneE14_0" intLanes=":gneJ17_0_0 :gneJ17_1_0 :gneJ17_5_0"/>
    <junction id=":gneJ19_12_0" type="internal" x="39.16" y="19.42" incLanes=":gneJ19_1_0 -gneE18_0" intLanes=":gneJ19_4_0 :gneJ19_5_0 :gneJ19_7_0 :gneJ19_9_0 :gneJ19_10_0 :gneJ19_11_0"/>
    <junction id=":gneJ19_13_0" type="internal" x="39.36" y="22.46" incLanes=":gneJ19_2_0 -gneE18_0" intLanes=":gneJ19_4_0 :gneJ19_5_0 :gneJ19_6_0 :gneJ19_7_0 :gneJ19_8_0 :gneJ19_10_0 :gneJ19_11_0"/>
