<?xml version="1.0" encoding="UTF-8"?>

<!-- generated on 2021-12-06 18:33:07 by Eclipse SUMO netconvert Version v1_11_0+0348-ecb31501c71
This data file and the accompanying materials
are made available under the terms of the Eclipse Public License v2.0
which accompanies this distribution, and is available at
http://www.eclipse.org/legal/epl-v20.html
SPDX-License-Identifier: EPL-2.0
<configuration xmlns:xsi="http://www.w3.org/2001/XMLSchema-instance" xsi:noNamespaceSchemaLocation="http://sumo.dlr.de/xsd/netconvertConfiguration.xsd">

    <input>
        <node-files value="input_plain.nod.xml"/>
        <edge-files value="input_plain.edg.xml"/>
    </input>

    <output>
        <write-license value="true"/>
        <output-file value="net.net.xml"/>
    </output>

    <junctions>
        <no-turnarounds value="true"/>
    </junctions>

    <report>
        <xml-validation value="never"/>
        <aggregate-warnings value="5"/>
    </report>

</configuration>
-->

<net version="1.9" junctionCornerDetail="5" limitTurnSpeed="5.50" xmlns:xsi="http://www.w3.org/2001/XMLSchema-instance" xsi:noNamespaceSchemaLocation="http://sumo.dlr.de/xsd/net_file.xsd">

    <location netOffset="100.00,100.00" convBoundary="0.00,0.00,200.00,200.00" origBoundary="-10000000000.00,-10000000000.00,10000000000.00,10000000000.00" projParameter="!"/>

    <edge id=":C_0" function="internal">
        <lane id=":C_0_0" index="0" allow="bicycle" speed="4.24" length="3.79" width="1.50" shape="91.35,110.90 91.20,109.92 90.74,109.21 89.97,108.79 88.90,108.65"/>
    </edge>
    <edge id=":C_1" function="internal">
        <lane id=":C_1_0" index="0" allow="bicycle" speed="13.89" length="21.80" shape="91.35,110.90 91.15,89.10"/>
    </edge>
    <edge id=":C_2" function="internal">
        <lane id=":C_2_0" index="0" allow="bicycle" speed="11.60" length="8.64" width="1.50" shape="91.35,110.90 92.57,102.35"/>
    </edge>
    <edge id=":C_3" function="internal">
        <lane id=":C_3_0" index="0" allow="passenger" speed="6.81" length="5.77" shape="95.20,110.90 94.81,108.23 93.62,106.33 92.90,105.91"/>
    </edge>
    <edge id=":C_4" function="internal">
        <lane id=":C_4_0" index="0" allow="passenger" speed="13.89" length="21.80" shape="95.20,110.90 95.20,89.10"/>
        <lane id=":C_4_1" index="1" allow="passenger" speed="13.89" length="21.80" shape="98.40,110.90 98.40,89.10"/>
    </edge>
    <edge id=":C_6" function="internal">
        <lane id=":C_6_0" index="0" allow="passenger" speed="9.44" length="7.12" shape="98.40,110.90 99.18,105.43 100.00,104.07"/>
    </edge>
    <edge id=":C_27" function="internal">
        <lane id=":C_27_0" index="0" allow="bicycle" speed="11.60" length="22.89" width="1.50" shape="92.57,102.35 96.24,96.24 102.35,92.57 110.90,91.35"/>
    </edge>
    <edge id=":C_28" function="internal">
        <lane id=":C_28_0" index="0" allow="passenger" speed="6.81" length="4.23" shape="92.90,105.91 91.66,105.18 88.90,104.80"/>
    </edge>
    <edge id=":C_29" function="internal">
        <lane id=":C_29_0" index="0" allow="passenger" speed="9.44" length="13.04" shape="100.00,104.07 101.53,101.53 105.43,99.18 110.90,98.40"/>
    </edge>
    <edge id=":C_7" function="internal">
        <lane id=":C_7_0" index="0" allow="bicycle" speed="4.16" length="3.63" width="1.50" shape="110.90,108.65 109.92,108.79 109.21,109.21 108.79,109.92 108.65,110.90"/>
    </edge>
    <edge id=":C_8" function="internal">
        <lane id=":C_8_0" index="0" allow="bicycle" speed="13.89" length="22.00" width="1.50" shape="110.90,108.65 88.90,108.65"/>
    </edge>
    <edge id=":C_9" function="internal">
        <lane id=":C_9_0" index="0" allow="bicycle" speed="11.63" length="20.30" shape="110.90,108.65 102.26,107.43 96.09,103.76 93.81,100.00"/>
    </edge>
    <edge id=":C_10" function="internal">
        <lane id=":C_10_0" index="0" allow="passenger" speed="6.76" length="5.88" shape="110.90,104.80 108.23,105.18 106.32,106.32 105.83,107.15"/>
    </edge>
    <edge id=":C_11" function="internal">
        <lane id=":C_11_0" index="0" allow="passenger" speed="13.89" length="22.00" shape="110.90,104.80 88.90,104.80"/>
        <lane id=":C_11_1" index="1" allow="passenger" speed="13.89" length="22.00" shape="110.90,101.60 88.90,101.60"/>
    </edge>
    <edge id=":C_13" function="internal">
        <lane id=":C_13_0" index="0" allow="passenger" speed="9.44" length="7.12" shape="110.90,101.60 105.43,100.82 104.07,100.00"/>
    </edge>
    <edge id=":C_30" function="internal">
        <lane id=":C_30_0" index="0" allow="bicycle" speed="11.63" length="11.39" shape="93.81,100.00 92.38,97.65 91.15,89.10"/>
    </edge>
    <edge id=":C_31" function="internal">
        <lane id=":C_31_0" index="0" allow="passenger" speed="6.76" length="3.96" shape="105.83,107.15 105.18,108.23 104.80,110.90"/>
    </edge>
    <edge id=":C_32" function="internal">
        <lane id=":C_32_0" index="0" allow="passenger" speed="9.44" length="13.04" shape="104.07,100.00 101.53,98.47 99.18,94.57 98.40,89.10"/>
    </edge>
    <edge id=":C_14" function="internal">
        <lane id=":C_14_0" index="0" allow="bicycle" speed="5.53" length="6.24" width="1.50" shape="105.65,89.10 105.98,90.08 106.96,90.79 108.60,91.21 110.90,91.35"/>
        <lane id=":C_14_1" index="1" allow="passenger" speed="6.76" length="9.84" shape="104.80,89.10 105.18,91.77 106.32,93.68 108.23,94.82 110.90,95.20"/>
    </edge>
    <edge id=":C_16" function="internal">
        <lane id=":C_16_0" index="0" allow="bicycle" speed="13.89" length="21.93" width="1.50" shape="105.65,89.10 106.12,95.18 107.15,99.62 108.18,104.26 108.65,110.90"/>
        <lane id=":C_16_1" index="1" allow="passenger" speed="13.89" length="21.93" shape="104.80,89.10 104.80,110.90"/>
    </edge>
    <edge id=":C_18" function="internal">
        <lane id=":C_18_0" index="0" allow="bicycle" speed="10.76" length="12.26" width="1.50" shape="103.95,89.10 102.66,95.62 100.00,100.56"/>
    </edge>
    <edge id=":C_19" function="internal">
        <lane id=":C_19_0" index="0" allow="passenger" speed="13.89" length="21.80" shape="101.60,89.10 101.60,110.90"/>
    </edge>
    <edge id=":C_20" function="internal">
        <lane id=":C_20_0" index="0" allow="passenger" speed="9.23" length="5.36" shape="101.60,89.10 100.45,93.56 100.00,94.17"/>
    </edge>
    <edge id=":C_33" function="internal">
        <lane id=":C_33_0" index="0" allow="bicycle" speed="10.76" length="14.23" width="1.50" shape="100.00,100.56 99.25,101.96 94.43,106.75 88.90,108.65"/>
    </edge>
    <edge id=":C_34" function="internal">
        <lane id=":C_34_0" index="0" allow="passenger" speed="9.23" length="13.88" shape="100.00,94.17 97.48,97.58 93.39,100.48 88.90,101.60"/>
    </edge>
    <edge id=":C_21" function="internal">
        <lane id=":C_21_0" index="0" allow="passenger bicycle" speed="6.02" length="7.58" shape="88.90,95.20 90.26,94.82 91.22,93.68 91.81,91.77 92.00,89.10"/>
    </edge>
    <edge id=":C_22" function="internal">
        <lane id=":C_22_0" index="0" allow="bicycle" speed="13.89" length="22.13" width="1.50" shape="88.90,94.35 95.00,93.88 99.49,92.85 104.19,91.82 110.90,91.35"/>
        <lane id=":C_22_1" index="1" allow="passenger" speed="13.89" length="22.13" shape="88.90,95.20 110.90,95.20"/>
    </edge>
    <edge id=":C_24" function="internal">
        <lane id=":C_24_0" index="0" allow="bicycle" speed="10.76" length="12.43" width="1.50" shape="88.90,96.05 95.46,97.33 100.55,100.00"/>
    </edge>
    <edge id=":C_25" function="internal">
        <lane id=":C_25_0" index="0" allow="passenger" speed="13.89" length="22.00" shape="88.90,98.40 110.90,98.40"/>
    </edge>
    <edge id=":C_26" function="internal">
        <lane id=":C_26_0" index="0" allow="passenger" speed="9.23" length="5.46" shape="88.90,98.40 93.39,99.52 94.07,100.00"/>
    </edge>
    <edge id=":C_35" function="internal">
        <lane id=":C_35_0" index="0" allow="bicycle" speed="10.76" length="14.07" width="1.50" shape="100.55,100.00 101.86,100.69 106.72,105.45 108.65,110.90"/>
    </edge>
    <edge id=":C_36" function="internal">
        <lane id=":C_36_0" index="0" allow="passenger" speed="9.23" length="13.79" shape="94.07,100.00 97.48,102.42 100.45,106.44 101.60,110.90"/>
    </edge>

    <edge id="CE" from="C" to="E" priority="1">
        <lane id="CE_0" index="0" allow="bicycle" speed="13.89" length="89.10" width="1.50" shape="110.90,91.35 200.00,91.35"/>
        <lane id="CE_1" index="1" disallow="all" speed="13.89" length="89.10" width="1.50" shape="110.90,92.85 200.00,92.85"/>
        <lane id="CE_2" index="2" allow="passenger" speed="13.89" length="89.10" shape="110.90,95.20 200.00,95.20"/>
        <lane id="CE_3" index="3" allow="passenger" speed="13.89" length="89.10" shape="110.90,98.40 200.00,98.40"/>
    </edge>
    <edge id="CN" from="C" to="N" priority="2">
        <lane id="CN_0" index="0" allow="bicycle" speed="13.89" length="89.10" width="1.50" shape="108.65,110.90 108.65,200.00"/>
        <lane id="CN_1" index="1" disallow="all" speed="13.89" length="89.10" width="1.50" shape="107.15,110.90 107.15,200.00"/>
        <lane id="CN_2" index="2" allow="passenger" speed="13.89" length="89.10" shape="104.80,110.90 104.80,200.00"/>
        <lane id="CN_3" index="3" allow="passenger" speed="13.89" length="89.10" shape="101.60,110.90 101.60,200.00"/>
    </edge>
    <edge id="CS" from="C" to="S" priority="2">
        <lane id="CS_0" index="0" allow="passenger bicycle" speed="13.89" length="89.10" shape="92.00,89.10 92.00,0.00"/>
        <lane id="CS_1" index="1" allow="passenger bicycle" speed="13.89" length="89.10" shape="95.20,89.10 95.20,0.00"/>
        <lane id="CS_2" index="2" allow="passenger bicycle" speed="13.89" length="89.10" shape="98.40,89.10 98.40,0.00"/>
    </edge>
    <edge id="CW" from="C" to="W" priority="1">
        <lane id="CW_0" index="0" allow="bicycle" speed="13.89" length="88.90" width="1.50" shape="88.90,108.65 0.00,108.65"/>
        <lane id="CW_1" index="1" disallow="all" speed="13.89" length="88.90" width="1.50" shape="88.90,107.15 0.00,107.15"/>
        <lane id="CW_2" index="2" allow="passenger" speed="13.89" length="88.90" shape="88.90,104.80 0.00,104.80"/>
        <lane id="CW_3" index="3" allow="passenger" speed="13.89" length="88.90" shape="88.90,101.60 0.00,101.60"/>
    </edge>
    <edge id="EC" from="E" to="C" priority="1">
        <lane id="EC_0" index="0" allow="bicycle" speed="13.89" length="89.10" width="1.50" shape="200.00,108.65 110.90,108.65"/>
        <lane id="EC_1" index="1" disallow="all" speed="13.89" length="89.10" width="1.50" shape="200.00,107.15 110.90,107.15"/>
        <lane id="EC_2" index="2" allow="passenger" speed="13.89" length="89.10" shape="200.00,104.80 110.90,104.80"/>
        <lane id="EC_3" index="3" allow="passenger" speed="13.89" length="89.10" shape="200.00,101.60 110.90,101.60"/>
    </edge>
    <edge id="NC" from="N" to="C" priority="2">
        <lane id="NC_0" index="0" allow="bicycle" speed="13.89" length="89.10" width="1.50" shape="91.35,200.00 91.35,110.90"/>
        <lane id="NC_1" index="1" disallow="all" speed="13.89" length="89.10" width="1.50" shape="92.85,200.00 92.85,110.90"/>
        <lane id="NC_2" index="2" allow="passenger" speed="13.89" length="89.10" shape="95.20,200.00 95.20,110.90"/>
        <lane id="NC_3" index="3" allow="passenger" speed="13.89" length="89.10" shape="98.40,200.00 98.40,110.90"/>
    </edge>
    <edge id="SC" from="S" to="C" priority="2">
        <lane id="SC_0" index="0" allow="passenger bicycle" speed="13.89" length="89.10" shape="104.80,0.00 104.80,89.10"/>
        <lane id="SC_1" index="1" allow="passenger bicycle" speed="13.89" length="89.10" shape="101.60,0.00 101.60,89.10"/>
    </edge>
    <edge id="WC" from="W" to="C" priority="1">
        <lane id="WC_0" index="0" allow="passenger bicycle" speed="13.89" length="88.90" shape="0.00,95.20 88.90,95.20"/>
        <lane id="WC_1" index="1" allow="passenger bicycle" speed="13.89" length="88.90" shape="0.00,98.40 88.90,98.40"/>
    </edge>

    <tlLogic id="C" type="static" programID="0" offset="0">
        <phase duration="42" state="GGggGGgrrrrrrrGGGGgGgrrrrrr"/>
        <phase duration="3"  state="yyyyyyyrrrrrrryyyyyyyrrrrrr"/>
        <phase duration="42" state="rrrrrrrGGggGGgrrrrrrrGGGgGg"/>
        <phase duration="3"  state="rrrrrrryyyyyyyrrrrrrryyyyyy"/>
    </tlLogic>

    <junction id="C" type="traffic_light" x="100.00" y="100.00" incLanes="NC_0 NC_1 NC_2 NC_3 EC_0 EC_1 EC_2 EC_3 SC_0 SC_1 WC_0 WC_1" intLanes=":C_0_0 :C_1_0 :C_27_0 :C_28_0 :C_4_0 :C_4_1 :C_29_0 :C_7_0 :C_8_0 :C_30_0 :C_31_0 :C_11_0 :C_11_1 :C_32_0 :C_14_0 :C_14_1 :C_16_0 :C_16_1 :C_33_0 :C_19_0 :C_34_0 :C_21_0 :C_22_0 :C_22_1 :C_35_0 :C_25_0 :C_36_0" shape="90.60,110.90 109.40,110.90 109.57,110.07 109.78,109.78 110.07,109.57 110.44,109.44 110.90,109.40 110.90,90.60 108.40,90.43 107.52,90.22 106.90,89.93 106.53,89.56 106.40,89.10 90.40,89.10 90.23,91.60 90.03,92.48 89.73,93.10 89.36,93.48 88.90,93.60 88.90,109.40 89.84,109.57 90.18,109.78 90.41,110.07 90.55,110.44">
        <request index="0"  response="000000000000000000000000000" foes="000000001000000000100000000" cont="0"/>
        <request index="1"  response="101000000000010001000000000" foes="111111101000011101100001000" cont="0"/>
        <request index="2"  response="101000111111110001000110000" foes="111110111111111101100111000" cont="1"/>
        <request index="3"  response="000000000000000000000000110" foes="000000101000001100100000110" cont="1"/>
        <request index="4"  response="101000000000010001000000000" foes="111111101000011101100000100" cont="0"/>
        <request index="5"  response="101000000000010001000000000" foes="111111101000011101100000100" cont="0"/>
        <request index="6"  response="101000010111010001000000000" foes="111100010111011101100000000" cont="1"/>
        <request index="7"  response="000000000010000000000000000" foes="001000000010000000000000000" cont="0"/>
        <request index="8"  response="000000011110000000001111111" foes="101000011110000010001111111" cont="0"/>
        <request index="9"  response="111111111110001100001110110" foes="111111111110001110001110110" cont="1"/>
        <request index="10" response="000000010110000001100000000" foes="101000010110000001100000000" cont="1"/>
        <request index="11" response="000000111110000000001111110" foes="101000111110000001001111110" cont="0"/>
        <request index="12" response="000000111110000000001111110" foes="101000111110000001001111110" cont="0"/>
        <request index="13" response="010111111110000000001110100" foes="010111111110000000001110100" cont="1"/>
        <request index="14" response="000000000000000000000000000" foes="000010000000000000000000100" cont="0"/>
        <request index="15" response="000000000000000000000000000" foes="010110000000000000001000100" cont="0"/>
        <request index="16" response="001000000000010011000000000" foes="011110000000011111111000100" cont="0"/>
        <request index="17" response="101000000000010011000000000" foes="111110000000011111101000100" cont="0"/>
        <request index="18" response="101000010000010001000111011" foes="111110010000011101100111111" cont="1"/>
        <request index="19" response="101000000000010011000000000" foes="111110001000011111101000100" cont="0"/>
        <request index="20" response="101000000000010001000111010" foes="111110000000011101000111110" cont="1"/>
        <request index="21" response="000000000000000000000110010" foes="000000000000010001000110010" cont="0"/>
        <request index="22" response="000000111111100000000110110" foes="000000111111110001000110110" cont="0"/>
        <request index="23" response="000000111111000000001110110" foes="000000111111010001001110110" cont="0"/>
        <request index="24" response="010000111110001110111110110" foes="010000111110001111111110110" cont="1"/>
        <request index="25" response="000000111111000000001110110" foes="001000111111010001001110110" cont="0"/>
        <request index="26" response="000000111100001110101110110" foes="000000111100001111101110110" cont="1"/>
    </junction>
    <junction id="E" type="dead_end" x="200.00" y="100.00" incLanes="CE_0 CE_1 CE_2 CE_3" intLanes="" shape="200.00,100.00 200.00,90.60 200.00,100.00"/>
    <junction id="N" type="dead_end" x="100.00" y="200.00" incLanes="CN_0 CN_1 CN_2 CN_3" intLanes="" shape="100.00,200.00 109.40,200.00 100.00,200.00"/>
    <junction id="S" type="dead_end" x="100.00" y="0.00" incLanes="CS_0 CS_1 CS_2" intLanes="" shape="100.00,0.00 90.40,0.00 100.00,0.00"/>
    <junction id="W" type="dead_end" x="0.00" y="100.00" incLanes="CW_0 CW_1 CW_2 CW_3" intLanes="" shape="0.00,100.00 0.00,109.40 0.00,100.00"/>

    <junction id=":C_27_0" type="internal" x="92.57" y="102.35" incLanes=":C_2_0 :C_18_0 :C_20_0 SC_0 SC_1" intLanes=":C_33_0 :C_34_0 :C_4_0 :C_4_1 :C_8_0 :C_9_0 :C_11_0 :C_11_1 :C_13_0 :C_14_0 :C_14_1 :C_16_0 :C_16_1 :C_18_0 :C_19_0 :C_20_0 :C_22_0 :C_22_1 :C_24_0 :C_25_0 :C_26_0"/>
    <junction id=":C_28_0" type="internal" x="92.90" y="105.91" incLanes=":C_3_0 NC_0" intLanes=":C_1_0 :C_2_0 :C_8_0 :C_11_0 :C_11_1 :C_18_0 :C_20_0"/>
    <junction id=":C_29_0" type="internal" x="100.00" y="104.07" incLanes=":C_6_0 :C_18_0 SC_0 SC_1" intLanes=":C_33_0 :C_8_0 :C_9_0 :C_11_0 :C_11_1 :C_13_0 :C_14_0 :C_14_1 :C_16_0 :C_16_1 :C_18_0 :C_19_0 :C_22_0 :C_22_1 :C_24_0 :C_25_0 :C_26_0"/>
    <junction id=":C_30_0" type="internal" x="93.81" y="100.00" incLanes=":C_9_0 WC_0 WC_1" intLanes=":C_1_0 :C_2_0 :C_4_0 :C_4_1 :C_6_0 :C_11_0 :C_11_1 :C_16_0 :C_16_1 :C_18_0 :C_19_0 :C_20_0 :C_21_0 :C_22_0 :C_22_1 :C_24_0 :C_25_0 :C_26_0"/>
    <junction id=":C_31_0" type="internal" x="105.83" y="107.15" incLanes=":C_10_0 EC_0" intLanes=":C_8_0 :C_9_0 :C_16_0 :C_16_1 :C_19_0 :C_24_0 :C_26_0"/>
    <junction id=":C_32_0" type="internal" x="104.07" y="100.00" incLanes=":C_13_0 WC_0 WC_1" intLanes=":C_1_0 :C_2_0 :C_4_0 :C_4_1 :C_6_0 :C_16_0 :C_16_1 :C_18_0 :C_19_0 :C_20_0 :C_21_0 :C_22_0 :C_22_1 :C_24_0 :C_25_0"/>
    <junction id=":C_33_0" type="internal" x="100.00" y="100.56" incLanes=":C_18_0 NC_0 NC_2 NC_3" intLanes=":C_0_0 :C_1_0 :C_2_0 :C_3_0 :C_4_0 :C_4_1 :C_8_0 :C_9_0 :C_11_0 :C_11_1 :C_13_0 :C_19_0 :C_22_0 :C_22_1 :C_24_0 :C_25_0 :C_26_0"/>
    <junction id=":C_34_0" type="internal" x="100.00" y="94.17" incLanes=":C_20_0 NC_0 NC_2 NC_3" intLanes=":C_0_0 :C_1_0 :C_2_0 :C_3_0 :C_4_0 :C_4_1 :C_8_0 :C_9_0 :C_11_0 :C_11_1 :C_13_0 :C_22_0 :C_22_1 :C_24_0 :C_25_0 :C_26_0"/>
    <junction id=":C_35_0" type="internal" x="100.55" y="100.00" incLanes=":C_24_0 EC_0 EC_2 EC_3" intLanes=":C_1_0 :C_2_0 :C_4_0 :C_4_1 :C_6_0 :C_7_0 :C_8_0 :C_9_0 :C_10_0 :C_11_0 :C_11_1 :C_16_0 :C_16_1 :C_18_0 :C_19_0 :C_20_0 :C_25_0"/>
    <junction id=":C_36_0" type="internal" x="94.07" y="100.00" incLanes=":C_26_0 EC_0 EC_2 EC_3" intLanes=":C_1_0 :C_2_0 :C_4_0 :C_4_1 :C_6_0 :C_7_0 :C_8_0 :C_9_0 :C_10_0 :C_11_0 :C_11_1 :C_16_0 :C_16_1 :C_18_0 :C_19_0 :C_20_0"/>

    <connection from="EC" to="CN" fromLane="0" toLane="0" via=":C_7_0" tl="C" linkIndex="7" dir="r" state="o"/>
    <connection from="EC" to="CW" fromLane="0" toLane="0" via=":C_8_0" tl="C" linkIndex="8" dir="s" state="o"/>
    <connection from="EC" to="CS" fromLane="0" toLane="0" via=":C_9_0" tl="C" linkIndex="9" dir="l" state="o"/>
    <connection from="EC" to="CN" fromLane="2" toLane="2" via=":C_10_0" tl="C" linkIndex="10" dir="r" state="o"/>
    <connection from="EC" to="CW" fromLane="2" toLane="2" via=":C_11_0" tl="C" linkIndex="11" dir="s" state="o"/>
    <connection from="EC" to="CW" fromLane="3" toLane="3" via=":C_11_1" tl="C" linkIndex="12" dir="s" state="o"/>
    <connection from="EC" to="CS" fromLane="3" toLane="2" via=":C_13_0" tl="C" linkIndex="13" dir="l" state="o"/>
    <connection from="NC" to="CW" fromLane="0" toLane="0" via=":C_0_0" tl="C" linkIndex="0" dir="r" state="O"/>
    <connection from="NC" to="CS" fromLane="0" toLane="0" via=":C_1_0" tl="C" linkIndex="1" dir="s" state="O"/>
    <connection from="NC" to="CE" fromLane="0" toLane="0" via=":C_2_0" tl="C" linkIndex="2" dir="l" state="o"/>
    <connection from="NC" to="CW" fromLane="2" toLane="2" via=":C_3_0" tl="C" linkIndex="3" dir="r" state="o"/>
    <connection from="NC" to="CS" fromLane="2" toLane="1" via=":C_4_0" tl="C" linkIndex="4" dir="s" state="O"/>
    <connection from="NC" to="CS" fromLane="3" toLane="2" via=":C_4_1" tl="C" linkIndex="5" dir="s" state="O"/>
    <connection from="NC" to="CE" fromLane="3" toLane="3" via=":C_6_0" tl="C" linkIndex="6" dir="l" state="o"/>
    <connection from="SC" to="CE" fromLane="0" toLane="0" via=":C_14_0" tl="C" linkIndex="14" dir="r" state="O"/>
    <connection from="SC" to="CE" fromLane="0" toLane="2" via=":C_14_1" tl="C" linkIndex="15" dir="r" state="O"/>
    <connection from="SC" to="CN" fromLane="0" toLane="0" via=":C_16_0" tl="C" linkIndex="16" dir="s" state="O"/>
    <connection from="SC" to="CN" fromLane="0" toLane="2" via=":C_16_1" tl="C" linkIndex="17" dir="s" state="O"/>
    <connection from="SC" to="CW" fromLane="0" toLane="0" via=":C_18_0" tl="C" linkIndex="18" dir="l" state="o"/>
    <connection from="SC" to="CN" fromLane="1" toLane="3" via=":C_19_0" tl="C" linkIndex="19" dir="s" state="O"/>
    <connection from="SC" to="CW" fromLane="1" toLane="3" via=":C_20_0" tl="C" linkIndex="20" dir="l" state="o"/>
    <connection from="WC" to="CS" fromLane="0" toLane="0" via=":C_21_0" tl="C" linkIndex="21" dir="r" state="o"/>
    <connection from="WC" to="CE" fromLane="0" toLane="0" via=":C_22_0" tl="C" linkIndex="22" dir="s" state="o"/>
    <connection from="WC" to="CE" fromLane="0" toLane="2" via=":C_22_1" tl="C" linkIndex="23" dir="s" state="o"/>
    <connection from="WC" to="CN" fromLane="0" toLane="0" via=":C_24_0" tl="C" linkIndex="24" dir="l" state="o"/>
    <connection from="WC" to="CE" fromLane="1" toLane="3" via=":C_25_0" tl="C" linkIndex="25" dir="s" state="o"/>
    <connection from="WC" to="CN" fromLane="1" toLane="3" via=":C_26_0" tl="C" linkIndex="26" dir="l" state="o"/>

    <connection from=":C_0" to="CW" fromLane="0" toLane="0" dir="r" state="M"/>
    <connection from=":C_1" to="CS" fromLane="0" toLane="0" dir="s" state="M"/>
    <connection from=":C_2" to="CE" fromLane="0" toLane="0" via=":C_27_0" dir="l" state="m"/>
    <connection from=":C_27" to="CE" fromLane="0" toLane="0" dir="l" state="M"/>
    <connection from=":C_3" to="CW" fromLane="0" toLane="2" via=":C_28_0" dir="r" state="m"/>
    <connection from=":C_28" to="CW" fromLane="0" toLane="2" dir="r" state="M"/>
    <connection from=":C_4" to="CS" fromLane="0" toLane="1" dir="s" state="M"/>
    <connection from=":C_4" to="CS" fromLane="1" toLane="2" dir="s" state="M"/>
    <connection from=":C_6" to="CE" fromLane="0" toLane="3" via=":C_29_0" dir="l" state="m"/>
    <connection from=":C_29" to="CE" fromLane="0" toLane="3" dir="l" state="M"/>
    <connection from=":C_7" to="CN" fromLane="0" toLane="0" dir="r" state="M"/>
    <connection from=":C_8" to="CW" fromLane="0" toLane="0" dir="s" state="M"/>
    <connection from=":C_9" to="CS" fromLane="0" toLane="0" via=":C_30_0" dir="l" state="m"/>
    <connection from=":C_30" to="CS" fromLane="0" toLane="0" dir="l" state="M"/>
    <connection from=":C_10" to="CN" fromLane="0" toLane="2" via=":C_31_0" dir="r" state="m"/>
    <connection from=":C_31" to="CN" fromLane="0" toLane="2" dir="r" state="M"/>
    <connection from=":C_11" to="CW" fromLane="0" toLane="2" dir="s" state="M"/>
    <connection from=":C_11" to="CW" fromLane="1" toLane="3" dir="s" state="M"/>
    <connection from=":C_13" to="CS" fromLane="0" toLane="2" via=":C_32_0" dir="l" state="m"/>
    <connection from=":C_32" to="CS" fromLane="0" toLane="2" dir="l" state="M"/>
    <connection from=":C_14" to="CE" fromLane="0" toLane="0" dir="r" state="M"/>
    <connection from=":C_14" to="CE" fromLane="1" toLane="2" dir="r" state="M"/>
    <connection from=":C_16" to="CN" fromLane="0" toLane="0" dir="s" state="M"/>
    <connection from=":C_16" to="CN" fromLane="1" toLane="2" dir="s" state="M"/>
    <connection from=":C_18" to="CW" fromLane="0" toLane="0" via=":C_33_0" dir="l" state="m"/>
    <connection from=":C_33" to="CW" fromLane="0" toLane="0" dir="l" state="M"/>
    <connection from=":C_19" to="CN" fromLane="0" toLane="3" dir="s" state="M"/>
    <connection from=":C_20" to="CW" fromLane="0" toLane="3" via=":C_34_0" dir="l" state="m"/>
    <connection from=":C_34" to="CW" fromLane="0" toLane="3" dir="l" state="M"/>
    <connection from=":C_21" to="CS" fromLane="0" toLane="0" dir="r" state="M"/>
    <connection from=":C_22" to="CE" fromLane="0" toLane="0" dir="s" state="M"/>
    <connection from=":C_22" to="CE" fromLane="1" toLane="2" dir="s" state="M"/>
    <connection from=":C_24" to="CN" fromLane="0" toLane="0" via=":C_35_0" dir="l" state="m"/>
    <connection from=":C_35" to="CN" fromLane="0" toLane="0" dir="l" state="M"/>
    <connection from=":C_25" to="CE" fromLane="0" toLane="3" dir="s" state="M"/>
    <connection from=":C_26" to="CN" fromLane="0" toLane="3" via=":C_36_0" dir="l" state="m"/>
    <connection from=":C_36" to="CN" fromLane="0" toLane="3" dir="l" state="M"/>

</net>
