<?xml version="1.0" encoding="UTF-8"?>

<!-- generated on Thu Jan 28 08:45:41 2016 by SUMO Version dev-SVN-r19818
<?xml version="1.0" encoding="UTF-8"?>

<configuration xmlns:xsi="http://www.w3.org/2001/XMLSchema-instance" xsi:noNamespaceSchemaLocation="http://sumo.dlr.de/xsd/sumoConfiguration.xsd">

    <input>
        <net-file value="three_split.net.xml"/>
        <route-files value="input_routes.rou.xml"/>
    </input>

    <output>
        <link-output value="linkstate.xml"/>
    </output>

    <time>
        <end value="10"/>
    </time>

    <report>
        <xml-validation value="never"/>
        <duration-log.disable value="true"/>
        <no-step-log value="true"/>
    </report>

</configuration>
-->

<link-output>
    <timestep id="0.00"/>
    <timestep id="1.00">
        <link from="right2end_0" via="" to="end_0">
            <approaching id="ego" impatience="0.00" arrivalTime="2.33" arrivalTimeBraking="32.33" leaveTime="3.74" arrivalSpeed="6.00" arrivalSpeedBraking="0.00" leaveSpeed="7.32" willPass="1"/>
        </link>
    </timestep>
    <timestep id="2.00">
        <link from="right2end_0" via="" to="end_0">
            <approaching id="ego" impatience="0.00" arrivalTime="2.50" arrivalTimeBraking="32.50" leaveTime="3.91" arrivalSpeed="6.00" arrivalSpeedBraking="0.00" leaveSpeed="7.32" willPass="1"/>
        </link>
    </timestep>
    <timestep id="3.00">
        <link from="right2end_0" via="" to="end_0">
            <approaching id="ego" impatience="0.00" arrivalTime="2.60" arrivalTimeBraking="3.60" leaveTime="3.81" arrivalSpeed="7.21" arrivalSpeedBraking="7.21" leaveSpeed="8.34" willPass="1"/>
        </link>
    </timestep>
    <timestep id="4.00"/>
    <timestep id="5.00"/>
    <timestep id="6.00"/>
    <timestep id="7.00"/>
    <timestep id="8.00"/>
    <timestep id="9.00"/>
</link-output>
