<?xml version="1.0" encoding="UTF-8"?>

<!-- generated on 2022-06-22 08:14:30 by Eclipse SUMO netconvert Version v1_13_0+1094-d2dab2e946c
This data file and the accompanying materials
are made available under the terms of the Eclipse Public License v2.0
which accompanies this distribution, and is available at
http://www.eclipse.org/legal/epl-v20.html
This file may also be made available under the following Secondary
Licenses when the conditions for such availability set forth in the Eclipse
Public License 2.0 are satisfied: GNU General Public License, version 2
or later which is available at
https://www.gnu.org/licenses/old-licenses/gpl-2.0-standalone.html
SPDX-License-Identifier: EPL-2.0 OR GPL-2.0-or-later
<configuration xmlns:xsi="http://www.w3.org/2001/XMLSchema-instance" xsi:noNamespaceSchemaLocation="http://sumo.dlr.de/xsd/netconvertConfiguration.xsd">

    <input>
        <osm-files value="osm.xml"/>
    </input>

    <output>
        <write-license value="true"/>
    </output>

    <projection>
        <proj.utm value="true"/>
    </projection>

    <processing>
        <geometry.remove value="true"/>
        <lefthand value="true"/>
    </processing>

    <edge_removal>
        <keep-edges.by-vclass value="passenger"/>
    </edge_removal>

    <junctions>
        <junctions.join value="true"/>
    </junctions>

    <report>
        <xml-validation value="never"/>
    </report>

</configuration>
-->

<net version="1.16" junctionCornerDetail="5" lefthand="true" limitTurnSpeed="5.50" xmlns:xsi="http://www.w3.org/2001/XMLSchema-instance" xsi:noNamespaceSchemaLocation="http://sumo.dlr.de/xsd/net_file.xsd">

    <location netOffset="-528214.97,-5700855.89" convBoundary="0.00,-0.00,404.29,221.27" origBoundary="-2.593875,51.458003,-2.585151,51.460319" projParameter="+proj=utm +zone=30 +ellps=WGS84 +datum=WGS84 +units=m +no_defs"/>

    <type id="highway.bridleway" priority="1" numLanes="1" speed="2.78" allow="pedestrian" oneway="1" width="2.00"/>
    <type id="highway.bus_guideway" priority="1" numLanes="1" speed="27.78" allow="bus" oneway="1"/>
    <type id="highway.cycleway" priority="1" numLanes="1" speed="5.56" allow="bicycle" oneway="0" width="1.00"/>
    <type id="highway.footway" priority="1" numLanes="1" speed="2.78" allow="pedestrian" oneway="1" width="2.00"/>
    <type id="highway.ford" priority="1" numLanes="1" speed="2.78" allow="army" oneway="0"/>
    <type id="highway.living_street" priority="2" numLanes="1" speed="2.78" disallow="tram rail_urban rail rail_electric rail_fast ship" oneway="0"/>
    <type id="highway.motorway" priority="14" numLanes="2" speed="39.44" allow="private emergency authority army vip passenger hov taxi bus coach delivery truck trailer motorcycle evehicle custom1 custom2" oneway="1"/>
    <type id="highway.motorway_link" priority="9" numLanes="1" speed="22.22" allow="private emergency authority army vip passenger hov taxi bus coach delivery truck trailer motorcycle evehicle custom1 custom2" oneway="1"/>
    <type id="highway.path" priority="1" numLanes="1" speed="5.56" allow="pedestrian bicycle" oneway="0" width="2.00"/>
    <type id="highway.pedestrian" priority="1" numLanes="1" speed="2.78" allow="pedestrian" oneway="1" width="2.00"/>
    <type id="highway.primary" priority="12" numLanes="2" speed="27.78" disallow="tram rail_urban rail rail_electric rail_fast ship" oneway="0"/>
    <type id="highway.primary_link" priority="7" numLanes="1" speed="22.22" disallow="tram rail_urban rail rail_electric rail_fast ship" oneway="0"/>
    <type id="highway.raceway" priority="15" numLanes="2" speed="83.33" allow="vip" oneway="0"/>
    <type id="highway.residential" priority="3" numLanes="1" speed="13.89" disallow="tram rail_urban rail rail_electric rail_fast ship" oneway="0"/>
    <type id="highway.secondary" priority="11" numLanes="1" speed="27.78" disallow="tram rail_urban rail rail_electric rail_fast ship" oneway="0"/>
    <type id="highway.secondary_link" priority="6" numLanes="1" speed="22.22" disallow="tram rail_urban rail rail_electric rail_fast ship" oneway="0"/>
    <type id="highway.service" priority="1" numLanes="1" speed="5.56" allow="pedestrian delivery bicycle" oneway="0"/>
    <type id="highway.stairs" priority="1" numLanes="1" speed="1.39" allow="pedestrian" oneway="1" width="2.00"/>
    <type id="highway.step" priority="1" numLanes="1" speed="1.39" allow="pedestrian" oneway="1" width="2.00"/>
    <type id="highway.steps" priority="1" numLanes="1" speed="1.39" allow="pedestrian" oneway="1" width="2.00"/>
    <type id="highway.tertiary" priority="10" numLanes="1" speed="22.22" disallow="tram rail_urban rail rail_electric rail_fast ship" oneway="0"/>
    <type id="highway.tertiary_link" priority="5" numLanes="1" speed="22.22" disallow="tram rail_urban rail rail_electric rail_fast ship" oneway="0"/>
    <type id="highway.track" priority="1" numLanes="1" speed="5.56" allow="pedestrian motorcycle moped bicycle" oneway="0"/>
    <type id="highway.trunk" priority="13" numLanes="2" speed="27.78" disallow="pedestrian bicycle tram rail_urban rail rail_electric rail_fast ship" oneway="0"/>
    <type id="highway.trunk_link" priority="8" numLanes="1" speed="22.22" disallow="pedestrian bicycle tram rail_urban rail rail_electric rail_fast ship" oneway="0"/>
    <type id="highway.unclassified" priority="4" numLanes="1" speed="13.89" disallow="tram rail_urban rail rail_electric rail_fast ship" oneway="0"/>
    <type id="highway.unsurfaced" priority="1" numLanes="1" speed="8.33" disallow="tram rail_urban rail rail_electric rail_fast ship" oneway="0"/>
    <type id="railway.highspeed" priority="21" numLanes="1" speed="69.44" allow="rail_fast" oneway="1"/>
    <type id="railway.light_rail" priority="19" numLanes="1" speed="27.78" allow="rail_urban" oneway="1"/>
    <type id="railway.preserved" priority="16" numLanes="1" speed="27.78" allow="rail" oneway="1"/>
    <type id="railway.rail" priority="20" numLanes="1" speed="44.44" allow="rail" oneway="1"/>
    <type id="railway.subway" priority="18" numLanes="1" speed="27.78" allow="rail_urban" oneway="1"/>
    <type id="railway.tram" priority="17" numLanes="1" speed="13.89" allow="tram" oneway="1"/>

    <edge id=":1247839593_0" function="internal">
        <lane id=":1247839593_0_0" index="0" disallow="pedestrian bicycle tram rail_urban rail rail_electric rail_fast ship" speed="8.94" length="2.86" shape="272.98,163.58 275.21,161.51"/>
        <lane id=":1247839593_0_1" index="1" disallow="pedestrian bicycle tram rail_urban rail rail_electric rail_fast ship" speed="8.94" length="2.86" shape="271.15,160.89 273.13,159.09"/>
    </edge>
    <edge id=":1247839593_2" function="internal">
        <lane id=":1247839593_2_0" index="0" disallow="pedestrian bicycle tram rail_urban rail rail_electric rail_fast ship" speed="8.94" length="2.83" shape="272.81,163.33 273.55,162.83 274.05,162.47 274.53,162.09 275.21,161.51"/>
        <lane id=":1247839593_2_1" index="1" disallow="pedestrian bicycle tram rail_urban rail rail_electric rail_fast ship" speed="8.94" length="2.83" shape="271.01,160.68 271.66,160.24 272.10,159.93 272.53,159.59 273.13,159.09"/>
    </edge>
    <edge id=":1247839596_0" function="internal">
        <lane id=":1247839596_0_0" index="0" disallow="pedestrian bicycle tram rail_urban rail rail_electric rail_fast ship" speed="11.18" length="1.14" shape="306.87,140.79 307.03,140.74 307.14,140.71 307.26,140.70 307.43,140.71"/>
        <lane id=":1247839596_0_1" index="1" disallow="pedestrian bicycle tram rail_urban rail rail_electric rail_fast ship" speed="10.30" length="1.14" shape="305.85,137.76 306.33,137.60 306.67,137.52 307.02,137.50 307.53,137.51"/>
    </edge>
    <edge id=":1280853175_0" function="internal">
        <lane id=":1280853175_0_0" index="0" disallow="pedestrian bicycle tram rail_urban rail rail_electric rail_fast ship" speed="8.94" length="0.25" shape="268.35,124.87 268.27,124.86"/>
        <lane id=":1280853175_0_1" index="1" disallow="pedestrian bicycle tram rail_urban rail rail_electric rail_fast ship" speed="8.94" length="0.25" shape="268.30,128.07 268.05,128.06"/>
        <lane id=":1280853175_0_2" index="2" disallow="pedestrian bicycle tram rail_urban rail rail_electric rail_fast ship" speed="8.94" length="0.25" shape="268.25,131.27 267.84,131.25"/>
    </edge>
    <edge id=":1280853193_0" function="internal">
        <lane id=":1280853193_0_0" index="0" disallow="tram rail_urban rail rail_electric rail_fast ship" speed="8.94" length="0.96" shape="236.59,199.16 236.66,199.03 236.72,198.95 236.78,198.88 236.88,198.78"/>
        <lane id=":1280853193_0_1" index="1" disallow="tram rail_urban rail rail_electric rail_fast ship" speed="8.94" length="0.96" shape="233.78,197.63 233.99,197.25 234.15,197.01 234.34,196.79 234.65,196.49"/>
    </edge>
    <edge id=":1280853195_0" function="internal">
        <lane id=":1280853195_0_0" index="0" disallow="pedestrian bicycle tram rail_urban rail rail_electric rail_fast ship" speed="8.94" length="10.88" shape="231.51,192.13 233.09,189.61 234.15,187.74 235.51,186.29 238.04,185.02"/>
        <lane id=":1280853195_0_1" index="1" disallow="pedestrian bicycle tram rail_urban rail rail_electric rail_fast ship" speed="8.94" length="10.88" shape="228.92,190.24 230.84,187.28 232.18,185.14 233.89,183.49 236.93,182.02"/>
    </edge>
    <edge id=":1280853195_2" function="internal">
        <lane id=":1280853195_2_0" index="0" disallow="pedestrian bicycle tram rail_urban rail rail_electric rail_fast ship" speed="8.94" length="11.05" shape="226.90,186.59 230.23,187.08 232.56,186.95 234.85,186.25 238.04,185.02"/>
        <lane id=":1280853195_2_1" index="1" disallow="pedestrian bicycle tram rail_urban rail rail_electric rail_fast ship" speed="8.94" length="11.05" shape="226.67,183.28 229.73,183.76 231.88,183.70 234.00,183.12 236.93,182.02"/>
    </edge>
    <edge id=":1281294877_0" function="internal">
        <lane id=":1281294877_0_0" index="0" disallow="tram rail_urban rail rail_electric rail_fast ship" speed="8.94" length="0.31" shape="169.88,164.03 169.97,164.01 170.03,164.00 170.09,163.99 170.19,163.99"/>
    </edge>
    <edge id=":1381022312_0" function="internal">
        <lane id=":1381022312_0_0" index="0" disallow="tram rail_urban rail rail_electric rail_fast ship" speed="3.65" length="4.67" shape="87.01,91.28 85.57,91.36 84.82,91.84 84.75,92.74 85.38,94.04"/>
    </edge>
    <edge id=":1381053362_0" function="internal">
        <lane id=":1381053362_0_0" index="0" disallow="tram rail_urban rail rail_electric rail_fast ship" speed="8.79" length="12.57" shape="133.37,158.24 132.30,161.85 130.70,164.57 128.56,166.40 125.88,167.33"/>
    </edge>
    <edge id=":1381053362_1" function="internal">
        <lane id=":1381053362_1_0" index="0" disallow="tram rail_urban rail rail_electric rail_fast ship" speed="3.66" length="4.71" shape="133.37,158.24 133.75,159.65 134.38,160.29 135.28,160.17 136.43,159.28"/>
    </edge>
    <edge id=":1381053362_2" function="internal">
        <lane id=":1381053362_2_0" index="0" disallow="tram rail_urban rail rail_electric rail_fast ship" speed="5.60" length="8.78" shape="140.93,164.08 138.48,164.43 136.91,163.74 136.23,162.02 136.43,159.28"/>
    </edge>
    <edge id=":1381053362_3" function="internal">
        <lane id=":1381053362_3_0" index="0" disallow="tram rail_urban rail rail_electric rail_fast ship" speed="8.94" length="15.40" shape="140.93,164.08 137.25,165.07 133.46,165.93 129.64,166.68 125.88,167.33"/>
    </edge>
    <edge id=":1382252934_0" function="internal">
        <lane id=":1382252934_0_0" index="0" disallow="tram rail_urban rail rail_electric rail_fast ship" speed="8.94" length="0.37" shape="206.72,91.69 206.67,91.66 206.64,91.64 206.61,91.62 206.57,91.58"/>
        <lane id=":1382252934_0_1" index="1" disallow="tram rail_urban rail rail_electric rail_fast ship" speed="8.94" length="0.37" shape="204.95,94.36 204.81,94.27 204.72,94.20 204.63,94.13 204.51,94.03"/>
    </edge>
    <edge id=":17660703_0" function="internal">
        <lane id=":17660703_0_0" index="0" disallow="pedestrian bicycle tram rail_urban rail rail_electric rail_fast ship" speed="8.94" length="26.07" shape="241.60,183.71 247.79,180.85 252.88,177.51 257.77,173.78 263.35,169.72"/>
        <lane id=":17660703_0_1" index="1" disallow="pedestrian bicycle tram rail_urban rail rail_electric rail_fast ship" speed="8.94" length="26.07" shape="241.60,183.71 247.51,180.43 251.99,176.19 256.26,171.54 261.56,167.07"/>
    </edge>
    <edge id=":17660703_2" function="internal">
        <lane id=":17660703_2_0" index="0" disallow="pedestrian bicycle tram rail_urban rail rail_electric rail_fast ship" speed="8.94" length="26.08" shape="241.60,183.71 247.54,180.39 251.86,175.84 255.41,170.34 259.01,164.18"/>
        <lane id=":17660703_2_1" index="1" disallow="pedestrian bicycle tram rail_urban rail rail_electric rail_fast ship" speed="8.94" length="26.08" shape="240.49,180.71 246.23,177.51 250.12,173.22 253.23,167.97 256.64,161.93"/>
    </edge>
    <edge id=":17660715_0" function="internal">
        <lane id=":17660715_0_0" index="0" disallow="pedestrian bicycle tram rail_urban rail rail_electric rail_fast ship" speed="8.94" length="11.03" shape="263.68,124.55 259.75,124.13 256.72,123.47 254.61,122.56 253.40,121.40"/>
        <lane id=":17660715_0_1" index="1" disallow="pedestrian bicycle tram rail_urban rail rail_electric rail_fast ship" speed="8.94" length="14.09" shape="263.47,127.75 258.74,127.18 255.02,126.21 252.33,124.83 250.65,123.03"/>
    </edge>
    <edge id=":17660715_2" function="internal">
        <lane id=":17660715_2_0" index="0" disallow="pedestrian bicycle tram rail_urban rail rail_electric rail_fast ship" speed="8.94" length="15.21" shape="260.52,135.00 253.40,121.40"/>
        <lane id=":17660715_2_1" index="1" disallow="pedestrian bicycle tram rail_urban rail rail_electric rail_fast ship" speed="8.94" length="15.21" shape="257.64,136.40 250.65,123.03"/>
    </edge>
    <edge id=":17660726_0" function="internal">
        <lane id=":17660726_0_0" index="0" disallow="pedestrian bicycle tram rail_urban rail rail_electric rail_fast ship" speed="8.94" length="9.81" shape="219.70,103.84 217.51,102.14 216.59,100.28 215.72,98.33 213.71,96.34"/>
        <lane id=":17660726_0_1" index="1" disallow="pedestrian bicycle tram rail_urban rail rail_electric rail_fast ship" speed="8.94" length="9.16" shape="219.70,103.84 217.29,102.58 215.71,101.60 214.18,100.54 211.93,99.00"/>
    </edge>
    <edge id=":17660726_2" function="internal">
        <lane id=":17660726_2_0" index="0" disallow="pedestrian bicycle tram rail_urban rail rail_electric rail_fast ship" speed="8.94" length="8.31" shape="219.70,103.84 217.26,102.82 215.44,102.53 213.54,102.64 210.84,102.80"/>
        <lane id=":17660726_2_1" index="1" disallow="pedestrian bicycle tram rail_urban rail rail_electric rail_fast ship" speed="8.94" length="8.31" shape="218.27,106.70 216.25,105.88 214.74,105.70 213.16,105.84 210.92,106.00"/>
    </edge>
    <edge id=":17660730_0" function="internal">
        <lane id=":17660730_0_0" index="0" disallow="pedestrian bicycle tram rail_urban rail rail_electric rail_fast ship" speed="8.94" length="9.74" shape="185.67,109.15 182.85,110.43 180.95,111.47 179.40,112.93 177.66,115.43"/>
        <lane id=":17660730_0_1" index="1" disallow="pedestrian bicycle tram rail_urban rail rail_electric rail_fast ship" speed="8.94" length="9.74" shape="187.43,111.86 184.98,112.94 183.28,113.78 181.90,114.98 180.38,117.12"/>
    </edge>
    <edge id=":17660730_2" function="internal">
        <lane id=":17660730_2_0" index="0" disallow="pedestrian bicycle tram rail_urban rail rail_electric rail_fast ship" speed="8.94" length="9.64" shape="178.62,106.99 178.80,109.59 179.00,111.45 178.76,113.18 177.66,115.43"/>
        <lane id=":17660730_2_1" index="1" disallow="pedestrian bicycle tram rail_urban rail rail_electric rail_fast ship" speed="8.94" length="9.64" shape="181.82,106.95 182.00,110.09 182.14,112.32 181.76,114.41 180.38,117.12"/>
    </edge>
    <edge id=":17660734_0" function="internal">
        <lane id=":17660734_0_0" index="0" disallow="pedestrian bicycle tram rail_urban rail rail_electric rail_fast ship" speed="8.94" length="16.59" shape="173.07,125.00 171.60,130.17 170.25,134.09 168.83,137.31 167.13,140.41"/>
    </edge>
    <edge id=":17660734_1" function="internal">
        <lane id=":17660734_1_0" index="0" disallow="pedestrian bicycle tram rail_urban rail rail_electric rail_fast ship" speed="8.94" length="16.40" shape="173.07,125.00 171.99,129.85 171.75,133.26 171.98,136.72 172.28,141.73"/>
        <lane id=":17660734_1_1" index="1" disallow="pedestrian bicycle tram rail_urban rail rail_electric rail_fast ship" speed="8.94" length="16.40" shape="176.16,125.82 175.15,130.40 174.95,133.62 175.18,136.89 175.48,141.62"/>
    </edge>
    <edge id=":17660736_0" function="internal">
        <lane id=":17660736_0_0" index="0" disallow="pedestrian bicycle tram rail_urban rail rail_electric rail_fast ship" speed="8.94" length="13.37" shape="175.51,163.85 178.76,164.01 181.46,164.71 184.31,166.03 188.00,168.01"/>
    </edge>
    <edge id=":17660736_1" function="internal">
        <lane id=":17660736_1_0" index="0" disallow="pedestrian bicycle tram rail_urban rail rail_electric rail_fast ship" speed="8.94" length="12.99" shape="178.69,158.23 180.95,161.64 182.57,164.00 184.59,165.92 188.00,168.01"/>
        <lane id=":17660736_1_1" index="1" disallow="pedestrian bicycle tram rail_urban rail rail_electric rail_fast ship" speed="8.94" length="12.99" shape="181.31,156.39 183.31,159.44 184.72,161.57 186.48,163.31 189.52,165.19"/>
    </edge>
    <edge id=":17660738_0" function="internal">
        <lane id=":17660738_0_0" index="0" disallow="pedestrian bicycle tram rail_urban rail rail_electric rail_fast ship" speed="8.94" length="20.16" shape="188.18,168.11 193.07,171.32 195.76,174.38 198.05,177.94 201.74,182.68"/>
        <lane id=":17660738_0_1" index="1" disallow="pedestrian bicycle tram rail_urban rail rail_electric rail_fast ship" speed="8.94" length="20.40" shape="188.18,168.11 193.45,170.99 196.95,173.30 200.06,176.12 204.12,180.54"/>
    </edge>
    <edge id=":17660738_2" function="internal">
        <lane id=":17660738_2_0" index="0" disallow="pedestrian bicycle tram rail_urban rail rail_electric rail_fast ship" speed="8.94" length="20.53" shape="188.18,168.11 206.38,177.63"/>
        <lane id=":17660738_2_1" index="1" disallow="pedestrian bicycle tram rail_urban rail rail_electric rail_fast ship" speed="8.94" length="20.53" shape="189.69,165.28 207.87,174.80"/>
    </edge>
    <edge id=":19999048_0" function="internal">
        <lane id=":19999048_0_0" index="0" disallow="tram rail_urban rail rail_electric rail_fast ship" speed="8.94" length="0.55" shape="178.51,99.97 178.52,100.05 178.53,100.10 178.53,100.16 178.53,100.24"/>
        <lane id=":19999048_0_1" index="1" disallow="tram rail_urban rail rail_electric rail_fast ship" speed="8.94" length="0.55" shape="181.65,99.38 181.69,99.62 181.72,99.79 181.73,99.96 181.73,100.20"/>
    </edge>
    <edge id=":3331523960_0" function="internal">
        <lane id=":3331523960_0_0" index="0" disallow="tram rail_urban rail rail_electric rail_fast ship" speed="8.94" length="0.10" shape="12.66,185.86 12.66,185.86"/>
    </edge>
    <edge id=":3696173720_0" function="internal">
        <lane id=":3696173720_0_0" index="0" disallow="tram rail_urban rail rail_electric rail_fast ship" speed="8.94" length="0.30" shape="228.17,196.72 228.34,196.47"/>
        <lane id=":3696173720_0_1" index="1" disallow="tram rail_urban rail rail_electric rail_fast ship" speed="8.94" length="0.30" shape="225.58,194.83 225.76,194.59"/>
    </edge>
    <edge id=":5065034050_0" function="internal">
        <lane id=":5065034050_0_0" index="0" disallow="pedestrian bicycle tram rail_urban rail rail_electric rail_fast ship" speed="8.94" length="0.46" shape="192.54,106.00 192.34,106.06 192.21,106.11 192.08,106.16 191.89,106.25"/>
        <lane id=":5065034050_0_1" index="1" disallow="pedestrian bicycle tram rail_urban rail rail_electric rail_fast ship" speed="8.94" length="0.46" shape="193.46,109.07 193.39,109.09 193.35,109.10 193.31,109.12 193.24,109.15"/>
    </edge>
    <edge id=":5065034057_0" function="internal">
        <lane id=":5065034057_0_0" index="0" disallow="pedestrian bicycle tram rail_urban rail rail_electric rail_fast ship" speed="8.94" length="4.81" shape="291.24,120.50 290.86,125.29"/>
        <lane id=":5065034057_0_1" index="1" disallow="pedestrian bicycle tram rail_urban rail rail_electric rail_fast ship" speed="8.94" length="4.81" shape="291.19,123.70 290.80,128.49"/>
        <lane id=":5065034057_0_2" index="2" disallow="pedestrian bicycle tram rail_urban rail rail_electric rail_fast ship" speed="8.94" length="4.81" shape="291.13,126.89 290.74,131.69"/>
    </edge>
    <edge id=":644926918_0" function="internal">
        <lane id=":644926918_0_0" index="0" disallow="pedestrian bicycle tram rail_urban rail rail_electric rail_fast ship" speed="8.94" length="1.03" shape="175.05,152.64 175.19,153.07 175.31,153.36 175.46,153.63 175.72,154.01"/>
        <lane id=":644926918_0_1" index="1" disallow="pedestrian bicycle tram rail_urban rail rail_electric rail_fast ship" speed="8.94" length="1.03" shape="178.12,151.71 178.16,151.85 178.20,151.95 178.25,152.04 178.34,152.17"/>
    </edge>
    <edge id=":644926923_0" function="internal">
        <lane id=":644926923_0_0" index="0" disallow="pedestrian bicycle tram rail_urban rail rail_electric rail_fast ship" speed="8.94" length="0.91" shape="220.82,185.18 221.18,185.36 221.44,185.47 221.71,185.55 222.10,185.63"/>
        <lane id=":644926923_0_1" index="1" disallow="pedestrian bicycle tram rail_urban rail rail_electric rail_fast ship" speed="8.94" length="0.91" shape="222.31,182.34 222.43,182.40 222.51,182.44 222.60,182.46 222.73,182.49"/>
    </edge>
    <edge id=":644926958_0" function="internal">
        <lane id=":644926958_0_0" index="0" disallow="pedestrian bicycle tram rail_urban rail rail_electric rail_fast ship" speed="8.94" length="0.86" shape="261.52,137.44 261.44,137.06 261.38,136.80 261.28,136.56 261.11,136.21"/>
        <lane id=":644926958_0_1" index="1" disallow="pedestrian bicycle tram rail_urban rail rail_electric rail_fast ship" speed="8.94" length="0.86" shape="258.37,138.02 258.35,137.90 258.33,137.81 258.29,137.73 258.24,137.62"/>
    </edge>
    <edge id=":644926968_0" function="internal">
        <lane id=":644926968_0_0" index="0" disallow="tram rail_urban rail rail_electric rail_fast ship" speed="8.94" length="0.89" shape="207.53,191.11 207.59,191.23 207.62,191.31 207.65,191.40 207.67,191.53"/>
        <lane id=":644926968_0_1" index="1" disallow="tram rail_urban rail rail_electric rail_fast ship" speed="8.94" length="0.89" shape="210.39,189.68 210.57,190.03 210.67,190.29 210.74,190.55 210.82,190.94"/>
    </edge>

    <edge id="-123981301#2" from="1381022312" to="1381053362" priority="4" type="highway.unclassified" shape="86.19,92.66 105.86,104.33 115.25,111.21 122.98,118.45 126.11,122.31 129.20,126.11 134.01,135.16 136.08,144.45 135.63,155.11 134.62,160.19 132.56,166.22">
        <lane id="-123981301#2_0" index="0" disallow="tram rail_urban rail rail_electric rail_fast ship" speed="13.89" length="86.94" shape="85.38,94.04 104.98,105.66 114.23,112.44 121.80,119.54 124.87,123.32 127.86,127.00 132.50,135.72 134.47,144.60 134.03,154.91 133.37,158.24"/>
    </edge>
    <edge id="1041419770#0" from="5359925909" to="3331523960" priority="11" type="highway.secondary" spreadType="center">
        <lane id="1041419770#0_0" index="0" disallow="tram rail_urban rail rail_electric rail_fast ship" speed="8.94" length="12.67" shape="-0.00,185.70 12.66,185.86"/>
        <param key="ref" value="B4051"/>
    </edge>
    <edge id="1041419770#1" from="3331523960" to="1281294877" priority="11" type="highway.secondary" spreadType="center" shape="12.66,185.86 19.90,185.37 59.72,182.95 75.12,181.63 114.29,178.45 132.94,175.98 149.40,171.05 159.94,166.27 170.03,163.99">
        <lane id="1041419770#1_0" index="0" disallow="tram rail_urban rail rail_electric rail_fast ship" speed="8.94" length="159.66" shape="12.66,185.86 19.90,185.37 59.72,182.95 75.12,181.63 114.29,178.45 132.94,175.98 149.40,171.05 159.94,166.27 169.88,164.03"/>
        <param key="ref" value="B4051"/>
    </edge>
    <edge id="1041419770#2" from="1281294877" to="17660736" priority="11" type="highway.secondary" spreadType="center" shape="170.03,163.99 177.63,163.79 185.19,164.69">
        <lane id="1041419770#2_0" index="0" disallow="tram rail_urban rail rail_electric rail_fast ship" speed="8.94" length="5.33" shape="170.19,163.99 175.51,163.85"/>
        <param key="ref" value="B4051"/>
    </edge>
    <edge id="108842673" from="1247835167" to="1280853193" priority="12" type="highway.primary" spreadType="center" shape="224.15,221.27 228.44,212.11 232.37,203.57 235.42,197.97">
        <lane id="108842673_0" index="0" disallow="tram rail_urban rail rail_electric rail_fast ship" speed="8.94" length="25.41" shape="225.60,221.95 229.89,212.78 233.80,204.29 236.59,199.16"/>
        <lane id="108842673_1" index="1" disallow="tram rail_urban rail rail_electric rail_fast ship" speed="8.94" length="25.41" shape="222.70,220.59 226.99,211.44 230.94,202.85 233.78,197.63"/>
        <param key="ref" value="A38"/>
    </edge>
    <edge id="112748673" from="1280853185" to="3696173720" priority="12" type="highway.primary" spreadType="center" shape="216.31,219.24 223.29,200.70 226.96,195.65">
        <lane id="112748673_0" index="0" disallow="tram rail_urban rail rail_electric rail_fast ship" speed="8.94" length="25.90" shape="217.80,219.80 224.71,201.47 228.17,196.72"/>
        <lane id="112748673_1" index="1" disallow="tram rail_urban rail rail_electric rail_fast ship" speed="8.94" length="25.90" shape="214.81,218.67 221.87,199.94 225.58,194.83"/>
        <param key="ref" value="A38"/>
    </edge>
    <edge id="123981301#0" from="1381053362" to="1381022312" priority="4" type="highway.unclassified" shape="132.56,166.22 134.62,160.19 135.63,155.11 136.08,144.45 134.01,135.16 129.20,126.11 126.11,122.31 122.98,118.45 115.25,111.21 105.86,104.33 86.19,92.66">
        <lane id="123981301#0_0" index="0" disallow="tram rail_urban rail rail_electric rail_fast ship" speed="13.89" length="91.32" shape="136.43,159.28 137.22,155.30 137.69,144.31 135.53,134.60 130.54,125.22 127.35,121.30 124.15,117.35 116.27,109.97 106.74,102.99 87.01,91.28"/>
    </edge>
    <edge id="202755223" from="1280853195" to="17660703" priority="13" type="highway.trunk" spreadType="center">
        <lane id="202755223_0" index="0" disallow="pedestrian bicycle tram rail_urban rail rail_electric rail_fast ship" speed="8.94" length="3.79" shape="238.04,185.02 241.60,183.71"/>
        <lane id="202755223_1" index="1" disallow="pedestrian bicycle tram rail_urban rail rail_electric rail_fast ship" speed="8.94" length="3.79" shape="236.93,182.02 240.49,180.71"/>
        <param key="ref" value="A38"/>
    </edge>
    <edge id="202755224#0" from="17660738" to="644926923" priority="13" type="highway.trunk" spreadType="center">
        <lane id="202755224#0_0" index="0" disallow="pedestrian bicycle tram rail_urban rail rail_electric rail_fast ship" speed="8.94" length="16.29" shape="206.38,177.63 220.82,185.18"/>
        <lane id="202755224#0_1" index="1" disallow="pedestrian bicycle tram rail_urban rail rail_electric rail_fast ship" speed="8.94" length="16.29" shape="207.87,174.80 222.31,182.34"/>
        <param key="ref" value="A38"/>
    </edge>
    <edge id="202755224#1" from="644926923" to="1280853195" priority="13" type="highway.trunk" spreadType="center" shape="221.97,183.97 227.06,184.99 235.18,184.38">
        <lane id="202755224#1_0" index="0" disallow="pedestrian bicycle tram rail_urban rail rail_electric rail_fast ship" speed="8.94" length="4.45" shape="222.10,185.63 226.90,186.59"/>
        <lane id="202755224#1_1" index="1" disallow="pedestrian bicycle tram rail_urban rail rail_electric rail_fast ship" speed="8.94" length="4.45" shape="222.73,182.49 226.67,183.28"/>
        <param key="ref" value="A38"/>
    </edge>
    <edge id="203022643" from="1247839593" to="1247839596" priority="13" type="highway.trunk" spreadType="center" shape="273.20,161.13 290.03,146.68 298.29,141.98 306.91,139.09">
        <lane id="203022643_0" index="0" disallow="pedestrian bicycle tram rail_urban rail rail_electric rail_fast ship" speed="8.94" length="38.92" shape="275.21,161.51 290.95,148.00 298.94,143.45 306.87,140.79"/>
        <lane id="203022643_1" index="1" disallow="pedestrian bicycle tram rail_urban rail rail_electric rail_fast ship" speed="8.94" length="38.92" shape="273.13,159.09 289.10,145.37 297.63,140.51 305.85,137.76"/>
        <param key="ref" value="A4044"/>
    </edge>
    <edge id="203035036" from="17660736" to="17660738" priority="13" type="highway.trunk" spreadType="center">
        <lane id="203035036_0" index="0" disallow="pedestrian bicycle tram rail_urban rail rail_electric rail_fast ship" speed="8.94" length="0.20" shape="188.00,168.01 188.18,168.11"/>
        <lane id="203035036_1" index="1" disallow="pedestrian bicycle tram rail_urban rail rail_electric rail_fast ship" speed="8.94" length="0.20" shape="189.52,165.19 189.69,165.28"/>
        <param key="ref" value="A38"/>
    </edge>
    <edge id="326498368" from="644926968" to="1247835132" priority="12" type="highway.primary" spreadType="center" shape="209.16,190.79 210.48,197.80 209.80,206.09 207.51,216.80">
        <lane id="326498368_0" index="0" disallow="tram rail_urban rail rail_electric rail_fast ship" speed="8.94" length="25.95" shape="207.67,191.53 208.87,197.88 208.21,205.86 205.94,216.46"/>