<?xml version="1.0" encoding="UTF-8"?>

<!-- generated on 2025-08-01 13:22:22 by Eclipse SUMO netconvert Version v1_24_0+0105-e209ab84cb0
This data file and the accompanying materials
are made available under the terms of the Eclipse Public License v2.0
which accompanies this distribution, and is available at
http://www.eclipse.org/legal/epl-v20.html
This file may also be made available under the following Secondary
Licenses when the conditions for such availability set forth in the Eclipse
Public License 2.0 are satisfied: GNU General Public License, version 2
or later which is available at
https://www.gnu.org/licenses/old-licenses/gpl-2.0-standalone.html
SPDX-License-Identifier: EPL-2.0 OR GPL-2.0-or-later
<netconvertConfiguration xmlns:xsi="http://www.w3.org/2001/XMLSchema-instance" xsi:noNamespaceSchemaLocation="http://sumo.dlr.de/xsd/netconvertConfiguration.xsd">

    <input>
        <osm-files value="osm.xml"/>
    </input>

    <output>
        <write-license value="true"/>
    </output>

    <projection>
        <proj.utm value="true"/>
    </projection>

    <processing>
        <geometry.remove value="true"/>
        <lefthand value="true"/>
    </processing>

    <edge_removal>
        <keep-edges.by-vclass value="passenger"/>
    </edge_removal>

    <junctions>
        <junctions.join value="true"/>
    </junctions>

    <report>
        <xml-validation value="never"/>
    </report>

</netconvertConfiguration>
-->

<net version="1.20" junctionCornerDetail="5" lefthand="true" limitTurnSpeed="5.50" xmlns:xsi="http://www.w3.org/2001/XMLSchema-instance" xsi:noNamespaceSchemaLocation="http://sumo.dlr.de/xsd/net_file.xsd">

    <location netOffset="-528214.97,-5700855.89" convBoundary="0.00,-0.00,404.29,221.27" origBoundary="-2.593875,51.458003,-2.585151,51.460319" projParameter="+proj=utm +zone=30 +ellps=WGS84 +datum=WGS84 +units=m +no_defs"/>

    <type id="highway.primary" priority="12" numLanes="2" speed="27.78" disallow="tram rail_urban rail rail_electric rail_fast ship container cable_car subway aircraft wheelchair scooter drone" oneway="0"/>
    <type id="highway.secondary" priority="11" numLanes="1" speed="27.78" disallow="tram rail_urban rail rail_electric rail_fast ship container cable_car subway aircraft wheelchair scooter drone" oneway="0"/>
    <type id="highway.trunk" priority="13" numLanes="2" speed="27.78" disallow="pedestrian bicycle tram rail_urban rail rail_electric rail_fast ship container cable_car subway aircraft wheelchair scooter drone" oneway="0"/>
    <type id="highway.unclassified" priority="4" numLanes="1" speed="13.89" disallow="tram rail_urban rail rail_electric rail_fast ship container cable_car subway aircraft wheelchair scooter drone" oneway="0"/>

    <edge id=":1247839593_0" function="internal">
        <lane id=":1247839593_0_0" index="0" disallow="pedestrian bicycle tram rail_urban rail rail_electric rail_fast ship container cable_car subway aircraft wheelchair scooter drone" speed="8.94" length="2.86" shape="272.98,163.57 275.22,161.51"/>
        <lane id=":1247839593_0_1" index="1" disallow="pedestrian bicycle tram rail_urban rail rail_electric rail_fast ship container cable_car subway aircraft wheelchair scooter drone" speed="8.94" length="2.86" shape="271.16,160.89 273.13,159.08"/>
    </edge>
    <edge id=":1247839593_2" function="internal">
        <lane id=":1247839593_2_0" index="0" disallow="pedestrian bicycle tram rail_urban rail rail_electric rail_fast ship container cable_car subway aircraft wheelchair scooter drone" speed="8.94" length="2.83" shape="272.81,163.32 273.55,162.82 274.05,162.47 274.53,162.09 275.22,161.51"/>
        <lane id=":1247839593_2_1" index="1" disallow="pedestrian bicycle tram rail_urban rail rail_electric rail_fast ship container cable_car subway aircraft wheelchair scooter drone" speed="8.94" length="2.83" shape="271.01,160.68 271.67,160.24 272.11,159.92 272.53,159.59 273.13,159.08"/>
    </edge>
    <edge id=":1247839596_0" function="internal">
        <lane id=":1247839596_0_0" index="0" disallow="pedestrian bicycle tram rail_urban rail rail_electric rail_fast ship container cable_car subway aircraft wheelchair scooter drone" speed="11.18" length="1.14" shape="306.88,140.79 307.04,140.74 307.15,140.71 307.26,140.70 307.43,140.71"/>
        <lane id=":1247839596_0_1" index="1" disallow="pedestrian bicycle tram rail_urban rail rail_electric rail_fast ship container cable_car subway aircraft wheelchair scooter drone" speed="10.28" length="1.14" shape="305.86,137.76 306.34,137.60 306.68,137.52 307.03,137.50 307.53,137.51"/>
    </edge>
    <edge id=":1280853175_0" function="internal">
        <lane id=":1280853175_0_0" index="0" disallow="pedestrian bicycle tram rail_urban rail rail_electric rail_fast ship container cable_car subway aircraft wheelchair scooter drone" speed="8.94" length="0.25" shape="268.35,124.86 268.27,124.86"/>
        <lane id=":1280853175_0_1" index="1" disallow="pedestrian bicycle tram rail_urban rail rail_electric rail_fast ship container cable_car subway aircraft wheelchair scooter drone" speed="8.94" length="0.25" shape="268.30,128.06 268.06,128.05"/>
        <lane id=":1280853175_0_2" index="2" disallow="pedestrian bicycle tram rail_urban rail rail_electric rail_fast ship container cable_car subway aircraft wheelchair scooter drone" speed="8.94" length="0.25" shape="268.25,131.26 267.84,131.24"/>
    </edge>
    <edge id=":1280853193_0" function="internal">
        <lane id=":1280853193_0_0" index="0" disallow="tram rail_urban rail rail_electric rail_fast ship container cable_car subway aircraft wheelchair scooter drone" speed="8.94" length="0.96" shape="236.59,199.16 236.66,199.03 236.72,198.95 236.78,198.88 236.88,198.78"/>
        <lane id=":1280853193_0_1" index="1" disallow="tram rail_urban rail rail_electric rail_fast ship container cable_car subway aircraft wheelchair scooter drone" speed="8.94" length="0.96" shape="233.78,197.63 233.99,197.26 234.15,197.01 234.35,196.79 234.65,196.49"/>
    </edge>
    <edge id=":1280853195_0" function="internal">
        <lane id=":1280853195_0_0" index="0" disallow="pedestrian bicycle tram rail_urban rail rail_electric rail_fast ship container cable_car subway aircraft wheelchair scooter drone" speed="8.94" length="10.88" shape="231.51,192.13 233.09,189.61 234.15,187.74 235.52,186.29 238.05,185.02"/>
        <lane id=":1280853195_0_1" index="1" disallow="pedestrian bicycle tram rail_urban rail rail_electric rail_fast ship container cable_car subway aircraft wheelchair scooter drone" speed="8.94" length="10.88" shape="228.92,190.24 230.84,187.28 232.18,185.14 233.89,183.50 236.94,182.02"/>
    </edge>
    <edge id=":1280853195_2" function="internal">
        <lane id=":1280853195_2_0" index="0" disallow="pedestrian bicycle tram rail_urban rail rail_electric rail_fast ship container cable_car subway aircraft wheelchair scooter drone" speed="8.94" length="11.05" shape="226.90,186.59 230.23,187.09 232.57,186.95 234.86,186.25 238.05,185.02"/>
        <lane id=":1280853195_2_1" index="1" disallow="pedestrian bicycle tram rail_urban rail rail_electric rail_fast ship container cable_car subway aircraft wheelchair scooter drone" speed="8.94" length="11.05" shape="226.67,183.28 229.73,183.76 231.89,183.71 234.00,183.12 236.94,182.02"/>
    </edge>
    <edge id=":1281294877_0" function="internal">
        <lane id=":1281294877_0_0" index="0" disallow="tram rail_urban rail rail_electric rail_fast ship container cable_car subway aircraft wheelchair scooter drone" speed="8.94" length="0.31" shape="169.88,164.02 169.97,164.00 170.03,163.99 170.09,163.99 170.19,163.99"/>
    </edge>
    <edge id=":1381022312_0" function="internal">
        <lane id=":1381022312_0_0" index="0" disallow="tram rail_urban rail rail_electric rail_fast ship container cable_car subway aircraft wheelchair scooter drone" speed="3.65" length="4.67" shape="87.01,91.28 85.57,91.36 84.81,91.84 84.75,92.74 85.37,94.04"/>
    </edge>
    <edge id=":1381053362_0" function="internal">
        <lane id=":1381053362_0_0" index="0" disallow="tram rail_urban rail rail_electric rail_fast ship container cable_car subway aircraft wheelchair scooter drone" speed="8.80" length="12.58" shape="133.38,158.24 132.30,161.85 130.70,164.57 128.55,166.40 125.88,167.33"/>
    </edge>
    <edge id=":1381053362_1" function="internal">
        <lane id=":1381053362_1_0" index="0" disallow="tram rail_urban rail rail_electric rail_fast ship container cable_car subway aircraft wheelchair scooter drone" speed="3.66" length="4.71" shape="133.38,158.24 133.75,159.64 134.38,160.29 135.28,160.17 136.43,159.28"/>
    </edge>
    <edge id=":1381053362_2" function="internal">
        <lane id=":1381053362_2_0" index="0" disallow="tram rail_urban rail rail_electric rail_fast ship container cable_car subway aircraft wheelchair scooter drone" speed="5.60" length="8.78" shape="140.93,164.09 138.47,164.43 136.91,163.74 136.23,162.02 136.43,159.28"/>
    </edge>
    <edge id=":1381053362_3" function="internal">
        <lane id=":1381053362_3_0" index="0" disallow="tram rail_urban rail rail_electric rail_fast ship container cable_car subway aircraft wheelchair scooter drone" speed="8.94" length="15.40" shape="140.93,164.09 137.25,165.08 133.45,165.93 129.64,166.68 125.88,167.33"/>
    </edge>
    <edge id=":1382252934_0" function="internal">
        <lane id=":1382252934_0_0" index="0" disallow="tram rail_urban rail rail_electric rail_fast ship container cable_car subway aircraft wheelchair scooter drone" speed="8.94" length="0.37" shape="206.71,91.69 206.67,91.66 206.64,91.63 206.61,91.61 206.57,91.58"/>
        <lane id=":1382252934_0_1" index="1" disallow="tram rail_urban rail rail_electric rail_fast ship container cable_car subway aircraft wheelchair scooter drone" speed="8.94" length="0.37" shape="204.94,94.35 204.81,94.26 204.71,94.20 204.63,94.13 204.50,94.02"/>
    </edge>
    <edge id=":17660703_0" function="internal">
        <lane id=":17660703_0_0" index="0" disallow="pedestrian bicycle tram rail_urban rail rail_electric rail_fast ship container cable_car subway aircraft wheelchair scooter drone" speed="8.94" length="26.06" shape="241.60,183.71 247.79,180.85 252.88,177.51 257.77,173.78 263.34,169.72"/>
        <lane id=":17660703_0_1" index="1" disallow="pedestrian bicycle tram rail_urban rail rail_electric rail_fast ship container cable_car subway aircraft wheelchair scooter drone" speed="8.94" length="26.06" shape="241.60,183.71 247.51,180.43 251.99,176.19 256.26,171.54 261.55,167.07"/>
    </edge>
    <edge id=":17660703_2" function="internal">
        <lane id=":17660703_2_0" index="0" disallow="pedestrian bicycle tram rail_urban rail rail_electric rail_fast ship container cable_car subway aircraft wheelchair scooter drone" speed="8.94" length="26.08" shape="241.60,183.71 247.54,180.39 251.86,175.84 255.40,170.34 259.01,164.18"/>
        <lane id=":17660703_2_1" index="1" disallow="pedestrian bicycle tram rail_urban rail rail_electric rail_fast ship container cable_car subway aircraft wheelchair scooter drone" speed="8.94" length="26.08" shape="240.49,180.71 246.23,177.51 250.12,173.22 253.22,167.98 256.63,161.93"/>
    </edge>
    <edge id=":17660715_0" function="internal">
        <lane id=":17660715_0_0" index="0" disallow="pedestrian bicycle tram rail_urban rail rail_electric rail_fast ship container cable_car subway aircraft wheelchair scooter drone" speed="8.94" length="11.03" shape="263.68,124.55 259.75,124.13 256.72,123.47 254.61,122.56 253.40,121.40"/>
        <lane id=":17660715_0_1" index="1" disallow="pedestrian bicycle tram rail_urban rail rail_electric rail_fast ship container cable_car subway aircraft wheelchair scooter drone" speed="8.94" length="14.09" shape="263.47,127.74 258.74,127.19 255.03,126.21 252.33,124.83 250.65,123.03"/>
    </edge>
    <edge id=":17660715_2" function="internal">
        <lane id=":17660715_2_0" index="0" disallow="pedestrian bicycle tram rail_urban rail rail_electric rail_fast ship container cable_car subway aircraft wheelchair scooter drone" speed="8.94" length="15.22" shape="260.53,135.00 253.40,121.40"/>
        <lane id=":17660715_2_1" index="1" disallow="pedestrian bicycle tram rail_urban rail rail_electric rail_fast ship container cable_car subway aircraft wheelchair scooter drone" speed="8.94" length="15.22" shape="257.65,136.40 250.65,123.03"/>
    </edge>
    <edge id=":17660726_0" function="internal">
        <lane id=":17660726_0_0" index="0" disallow="pedestrian bicycle tram rail_urban rail rail_electric rail_fast ship container cable_car subway aircraft wheelchair scooter drone" speed="8.94" length="9.81" shape="219.70,103.83 217.52,102.13 216.59,100.28 215.73,98.33 213.71,96.34"/>
        <lane id=":17660726_0_1" index="1" disallow="pedestrian bicycle tram rail_urban rail rail_electric rail_fast ship container cable_car subway aircraft wheelchair scooter drone" speed="8.94" length="9.16" shape="219.70,103.83 217.30,102.57 215.71,101.60 214.18,100.54 211.94,99.00"/>
    </edge>
    <edge id=":17660726_2" function="internal">
        <lane id=":17660726_2_0" index="0" disallow="pedestrian bicycle tram rail_urban rail rail_electric rail_fast ship container cable_car subway aircraft wheelchair scooter drone" speed="8.94" length="8.31" shape="219.70,103.83 217.26,102.82 215.45,102.53 213.55,102.63 210.85,102.80"/>
        <lane id=":17660726_2_1" index="1" disallow="pedestrian bicycle tram rail_urban rail rail_electric rail_fast ship container cable_car subway aircraft wheelchair scooter drone" speed="8.94" length="8.31" shape="218.27,106.70 216.25,105.88 214.75,105.70 213.17,105.84 210.93,106.00"/>
    </edge>
    <edge id=":17660730_0" function="internal">
        <lane id=":17660730_0_0" index="0" disallow="pedestrian bicycle tram rail_urban rail rail_electric rail_fast ship container cable_car subway aircraft wheelchair scooter drone" speed="8.94" length="9.74" shape="185.68,109.15 182.86,110.43 180.95,111.48 179.40,112.93 177.67,115.43"/>
        <lane id=":17660730_0_1" index="1" disallow="pedestrian bicycle tram rail_urban rail rail_electric rail_fast ship container cable_car subway aircraft wheelchair scooter drone" speed="8.94" length="9.74" shape="187.44,111.85 184.98,112.94 183.29,113.79 181.91,114.98 180.38,117.12"/>
    </edge>
    <edge id=":17660730_2" function="internal">
        <lane id=":17660730_2_0" index="0" disallow="pedestrian bicycle tram rail_urban rail rail_electric rail_fast ship container cable_car subway aircraft wheelchair scooter drone" speed="8.94" length="9.64" shape="178.62,106.99 178.81,109.59 179.00,111.45 178.77,113.19 177.67,115.43"/>
        <lane id=":17660730_2_1" index="1" disallow="pedestrian bicycle tram rail_urban rail rail_electric rail_fast ship container cable_car subway aircraft wheelchair scooter drone" speed="8.94" length="9.64" shape="181.82,106.95 182.00,110.09 182.14,112.33 181.76,114.41 180.38,117.12"/>
    </edge>
    <edge id=":17660734_0" function="internal">
        <lane id=":17660734_0_0" index="0" disallow="pedestrian bicycle tram rail_urban rail rail_electric rail_fast ship container cable_car subway aircraft wheelchair scooter drone" speed="8.94" length="16.58" shape="173.08,125.00 171.60,130.17 170.26,134.09 168.83,137.31 167.13,140.41"/>
    </edge>
    <edge id=":17660734_1" function="internal">
        <lane id=":17660734_1_0" index="0" disallow="pedestrian bicycle tram rail_urban rail rail_electric rail_fast ship container cable_car subway aircraft wheelchair scooter drone" speed="8.94" length="16.40" shape="173.08,125.00 171.99,129.85 171.76,133.26 171.98,136.72 172.29,141.73"/>
        <lane id=":17660734_1_1" index="1" disallow="pedestrian bicycle tram rail_urban rail rail_electric rail_fast ship container cable_car subway aircraft wheelchair scooter drone" speed="8.94" length="16.40" shape="176.17,125.83 175.16,130.40 174.95,133.62 175.19,136.89 175.49,141.62"/>
    </edge>
    <edge id=":17660736_0" function="internal">
        <lane id=":17660736_0_0" index="0" disallow="pedestrian bicycle tram rail_urban rail rail_electric rail_fast ship container cable_car subway aircraft wheelchair scooter drone" speed="8.94" length="13.37" shape="175.51,163.85 178.75,164.00 181.45,164.71 184.30,166.03 188.00,168.01"/>
    </edge>
    <edge id=":17660736_1" function="internal">
        <lane id=":17660736_1_0" index="0" disallow="pedestrian bicycle tram rail_urban rail rail_electric rail_fast ship container cable_car subway aircraft wheelchair scooter drone" speed="8.94" length="12.99" shape="178.69,158.23 180.95,161.64 182.57,164.00 184.58,165.91 188.00,168.01"/>
        <lane id=":17660736_1_1" index="1" disallow="pedestrian bicycle tram rail_urban rail rail_electric rail_fast ship container cable_car subway aircraft wheelchair scooter drone" speed="8.94" length="12.99" shape="181.31,156.39 183.31,159.44 184.72,161.57 186.48,163.31 189.51,165.19"/>
    </edge>
    <edge id=":17660738_0" function="internal">
        <lane id=":17660738_0_0" index="0" disallow="pedestrian bicycle tram rail_urban rail rail_electric rail_fast ship container cable_car subway aircraft wheelchair scooter drone" speed="8.94" length="20.17" shape="188.18,168.10 193.06,171.32 195.76,174.37 198.05,177.94 201.74,182.68"/>
        <lane id=":17660738_0_1" index="1" disallow="pedestrian bicycle tram rail_urban rail rail_electric rail_fast ship container cable_car subway aircraft wheelchair scooter drone" speed="8.94" length="20.41" shape="188.18,168.10 193.45,170.99 196.95,173.30 200.05,176.12 204.12,180.54"/>
    </edge>
    <edge id=":17660738_2" function="internal">
        <lane id=":17660738_2_0" index="0" disallow="pedestrian bicycle tram rail_urban rail rail_electric rail_fast ship container cable_car subway aircraft wheelchair scooter drone" speed="8.94" length="20.53" shape="188.18,168.10 206.38,177.63"/>
        <lane id=":17660738_2_1" index="1" disallow="pedestrian bicycle tram rail_urban rail rail_electric rail_fast ship container cable_car subway aircraft wheelchair scooter drone" speed="8.94" length="20.53" shape="189.69,165.28 207.87,174.80"/>
    </edge>
    <edge id=":19999048_0" function="internal">
        <lane id=":19999048_0_0" index="0" disallow="tram rail_urban rail rail_electric rail_fast ship container cable_car subway aircraft wheelchair scooter drone" speed="8.94" length="0.55" shape="178.51,99.97 178.52,100.05 178.53,100.11 178.53,100.16 178.53,100.24"/>
        <lane id=":19999048_0_1" index="1" disallow="tram rail_urban rail rail_electric rail_fast ship container cable_car subway aircraft wheelchair scooter drone" speed="8.94" length="0.55" shape="181.65,99.39 181.70,99.63 181.72,99.79 181.73,99.96 181.73,100.20"/>
    </edge>
    <edge id=":3331523960_0" function="internal">
        <lane id=":3331523960_0_0" index="0" disallow="tram rail_urban rail rail_electric rail_fast ship container cable_car subway aircraft wheelchair scooter drone" speed="8.94" length="0.10" shape="12.66,185.86 12.66,185.86"/>
    </edge>
    <edge id=":3696173720_0" function="internal">
        <lane id=":3696173720_0_0" index="0" disallow="tram rail_urban rail rail_electric rail_fast ship container cable_car subway aircraft wheelchair scooter drone" speed="8.94" length="0.30" shape="228.17,196.71 228.34,196.47"/>
        <lane id=":3696173720_0_1" index="1" disallow="tram rail_urban rail rail_electric rail_fast ship container cable_car subway aircraft wheelchair scooter drone" speed="8.94" length="0.30" shape="225.58,194.83 225.76,194.59"/>
    </edge>
    <edge id=":5065034050_0" function="internal">
        <lane id=":5065034050_0_0" index="0" disallow="pedestrian bicycle tram rail_urban rail rail_electric rail_fast ship container cable_car subway aircraft wheelchair scooter drone" speed="8.94" length="0.46" shape="192.54,106.00 192.35,106.06 192.21,106.11 192.08,106.16 191.90,106.25"/>
        <lane id=":5065034050_0_1" index="1" disallow="pedestrian bicycle tram rail_urban rail rail_electric rail_fast ship container cable_car subway aircraft wheelchair scooter drone" speed="8.94" length="0.46" shape="193.46,109.07 193.40,109.09 193.35,109.10 193.31,109.12 193.25,109.15"/>
    </edge>
    <edge id=":5065034057_0" function="internal">
        <lane id=":5065034057_0_0" index="0" disallow="pedestrian bicycle tram rail_urban rail rail_electric rail_fast ship container cable_car subway aircraft wheelchair scooter drone" speed="8.94" length="4.81" shape="291.24,120.49 290.87,125.29"/>
        <lane id=":5065034057_0_1" index="1" disallow="pedestrian bicycle tram rail_urban rail rail_electric rail_fast ship container cable_car subway aircraft wheelchair scooter drone" speed="8.94" length="4.81" shape="291.19,123.69 290.80,128.49"/>
        <lane id=":5065034057_0_2" index="2" disallow="pedestrian bicycle tram rail_urban rail rail_electric rail_fast ship container cable_car subway aircraft wheelchair scooter drone" speed="8.94" length="4.81" shape="291.14,126.89 290.74,131.69"/>
    </edge>
    <edge id=":644926918_0" function="internal">
        <lane id=":644926918_0_0" index="0" disallow="pedestrian bicycle tram rail_urban rail rail_electric rail_fast ship container cable_car subway aircraft wheelchair scooter drone" speed="8.94" length="1.03" shape="175.06,152.64 175.20,153.07 175.31,153.37 175.47,153.64 175.73,154.01"/>
        <lane id=":644926918_0_1" index="1" disallow="pedestrian bicycle tram rail_urban rail rail_electric rail_fast ship container cable_car subway aircraft wheelchair scooter drone" speed="8.94" length="1.03" shape="178.12,151.71 178.17,151.86 178.21,151.96 178.26,152.05 178.35,152.17"/>
    </edge>
    <edge id=":644926923_0" function="internal">
        <lane id=":644926923_0_0" index="0" disallow="pedestrian bicycle tram rail_urban rail rail_electric rail_fast ship container cable_car subway aircraft wheelchair scooter drone" speed="8.94" length="0.91" shape="220.82,185.18 221.18,185.36 221.44,185.47 221.71,185.55 222.10,185.63"/>
        <lane id=":644926923_0_1" index="1" disallow="pedestrian bicycle tram rail_urban rail rail_electric rail_fast ship container cable_car subway aircraft wheelchair scooter drone" speed="8.94" length="0.91" shape="222.31,182.34 222.43,182.40 222.51,182.44 222.60,182.46 222.73,182.49"/>
    </edge>
    <edge id=":644926958_0" function="internal">
        <lane id=":644926958_0_0" index="0" disallow="pedestrian bicycle tram rail_urban rail rail_electric rail_fast ship container cable_car subway aircraft wheelchair scooter drone" speed="8.94" length="0.87" shape="261.52,137.43 261.45,137.06 261.38,136.80 261.28,136.55 261.12,136.21"/>
        <lane id=":644926958_0_1" index="1" disallow="pedestrian bicycle tram rail_urban rail rail_electric rail_fast ship container cable_car subway aircraft wheelchair scooter drone" speed="8.94" length="0.87" shape="258.38,138.02 258.35,137.89 258.33,137.81 258.30,137.73 258.24,137.61"/>
    </edge>
    <edge id=":644926968_0" function="internal">
        <lane id=":644926968_0_0" index="0" disallow="tram rail_urban rail rail_electric rail_fast ship container cable_car subway aircraft wheelchair scooter drone" speed="8.94" length="0.89" shape="207.53,191.11 207.59,191.22 207.62,191.31 207.64,191.39 207.67,191.52"/>
        <lane id=":644926968_0_1" index="1" disallow="tram rail_urban rail rail_electric rail_fast ship container cable_car subway aircraft wheelchair scooter drone" speed="8.94" length="0.89" shape="210.39,189.68 210.57,190.03 210.67,190.28 210.74,190.54 210.81,190.93"/>
    </edge>

    <edge id="-123981301#2" from="1381022312" to="1381053362" priority="4" type="highway.unclassified" shape="86.19,92.66 105.86,104.33 115.25,111.21 122.98,118.45 126.11,122.31 129.20,126.11 134.01,135.16 136.08,144.45 135.63,155.11 134.62,160.19 132.56,166.22">
        <lane id="-123981301#2_0" index="0" disallow="tram rail_urban rail rail_electric rail_fast ship container cable_car subway aircraft wheelchair scooter drone" speed="13.89" length="86.94" shape="85.37,94.04 104.98,105.67 114.23,112.44 121.81,119.54 124.87,123.32 127.86,127.00 132.50,135.72 134.47,144.59 134.04,154.92 133.38,158.24"/>
    </edge>
    <edge id="1041419770#0" from="5359925909" to="3331523960" priority="11" type="highway.secondary" spreadType="center">
        <lane id="1041419770#0_0" index="0" disallow="tram rail_urban rail rail_electric rail_fast ship container cable_car subway aircraft wheelchair scooter drone" speed="8.94" length="12.66" shape="0.00,185.70 12.66,185.86"/>
        <param key="ref" value="B4051"/>
    </edge>
    <edge id="1041419770#1" from="3331523960" to="1281294877" priority="11" type="highway.secondary" spreadType="center" shape="12.66,185.86 19.90,185.37 59.72,182.95 75.12,181.63 114.29,178.45 132.94,175.98 149.40,171.05 159.94,166.27 170.03,163.99">
        <lane id="1041419770#1_0" index="0" disallow="tram rail_urban rail rail_electric rail_fast ship container cable_car subway aircraft wheelchair scooter drone" speed="8.94" length="159.66" shape="12.66,185.86 19.90,185.37 59.72,182.95 75.12,181.63 114.29,178.45 132.94,175.98 149.40,171.05 159.94,166.27 169.88,164.02"/>
        <param key="ref" value="B4051"/>
    </edge>
    <edge id="1041419770#2" from="1281294877" to="17660736" priority="11" type="highway.secondary" spreadType="center" shape="170.03,163.99 177.63,163.79 185.19,164.69">
        <lane id="1041419770#2_0" index="0" disallow="tram rail_urban rail rail_electric rail_fast ship container cable_car subway aircraft wheelchair scooter drone" speed="8.94" length="5.32" shape="170.19,163.99 175.51,163.85"/>
        <param key="ref" value="B4051"/>
    </edge>
    <edge id="108842673" from="1247835167" to="1280853193" priority="12" type="highway.primary" spreadType="center" shape="224.15,221.27 228.44,212.11 232.37,203.57 235.42,197.97">
        <lane id="108842673_0" index="0" disallow="tram rail_urban rail rail_electric rail_fast ship container cable_car subway aircraft wheelchair scooter drone" speed="8.94" length="25.41" shape="225.60,221.95 229.89,212.78 233.80,204.29 236.59,199.16"/>
        <lane id="108842673_1" index="1" disallow="tram rail_urban rail rail_electric rail_fast ship container cable_car subway aircraft wheelchair scooter drone" speed="8.94" length="25.41" shape="222.70,220.59 226.99,211.44 230.94,202.85 233.78,197.63"/>
        <param key="ref" value="A38"/>
    </edge>
    <edge id="112748673" from="1280853185" to="3696173720" priority="12" type="highway.primary" spreadType="center" shape="216.31,219.24 223.29,200.70 226.96,195.65">
        <lane id="112748673_0" index="0" disallow="tram rail_urban rail rail_electric rail_fast ship container cable_car subway aircraft wheelchair scooter drone" speed="8.94" length="25.90" shape="217.81,219.80 224.71,201.47 228.17,196.71"/>
        <lane id="112748673_1" index="1" disallow="tram rail_urban rail rail_electric rail_fast ship container cable_car subway aircraft wheelchair scooter drone" speed="8.94" length="25.90" shape="214.81,218.68 221.87,199.93 225.58,194.83"/>
        <param key="ref" value="A38"/>
    </edge>
    <edge id="123981301#0" from="1381053362" to="1381022312" priority="4" type="highway.unclassified" shape="132.56,166.22 134.62,160.19 135.63,155.11 136.08,144.45 134.01,135.16 129.20,126.11 126.11,122.31 122.98,118.45 115.25,111.21 105.86,104.33 86.19,92.66">
        <lane id="123981301#0_0" index="0" disallow="tram rail_urban rail rail_electric rail_fast ship container cable_car subway aircraft wheelchair scooter drone" speed="13.89" length="91.32" shape="136.43,159.28 137.22,155.30 137.69,144.31 135.52,134.60 130.54,125.22 127.35,121.30 124.15,117.36 116.27,109.98 106.74,102.99 87.01,91.28"/>
    </edge>
    <edge id="202755223" from="1280853195" to="17660703" priority="13" type="highway.trunk" spreadType="center">
        <lane id="202755223_0" index="0" disallow="pedestrian bicycle tram rail_urban rail rail_electric rail_fast ship container cable_car subway aircraft wheelchair scooter drone" speed="8.94" length="3.79" shape="238.05,185.02 241.60,183.71"/>
        <lane id="202755223_1" index="1" disallow="pedestrian bicycle tram rail_urban rail rail_electric rail_fast ship container cable_car subway aircraft wheelchair scooter drone" speed="8.94" length="3.79" shape="236.94,182.02 240.49,180.71"/>
        <param key="ref" value="A38"/>
    </edge>
    <edge id="202755224#0" from="17660738" to="644926923" priority="13" type="highway.trunk" spreadType="center">
        <lane id="202755224#0_0" index="0" disallow="pedestrian bicycle tram rail_urban rail rail_electric rail_fast ship container cable_car subway aircraft wheelchair scooter drone" speed="8.94" length="16.29" shape="206.38,177.63 220.82,185.18"/>
        <lane id="202755224#0_1" index="1" disallow="pedestrian bicycle tram rail_urban rail rail_electric rail_fast ship container cable_car subway aircraft wheelchair scooter drone" speed="8.94" length="16.29" shape="207.87,174.80 222.31,182.34"/>
        <param key="ref" value="A38"/>
    </edge>
    <edge id="202755224#1" from="644926923" to="1280853195" priority="13" type="highway.trunk" spreadType="center" shape="221.97,183.97 227.06,184.99 235.18,184.38">
        <lane id="202755224#1_0" index="0" disallow="pedestrian bicycle tram rail_urban rail rail_electric rail_fast ship container cable_car subway aircraft wheelchair scooter drone" speed="8.94" length="4.45" shape="222.10,185.63 226.90,186.59"/>
        <lane id="202755224#1_1" index="1" disallow="pedestrian bicycle tram rail_urban rail rail_electric rail_fast ship container cable_car subway aircraft wheelchair scooter drone" speed="8.94" length="4.45" shape="222.73,182.49 226.67,183.28"/>
        <param key="ref" value="A38"/>
    </edge>