<?xml version="1.0" encoding="UTF-8"?>

<!-- generated on 2022-01-18 14:05:38 by Eclipse SUMO netedit Version v1_11_0+1211-1b1dce94384
-->

<additional xmlns:xsi="http://www.w3.org/2001/XMLSchema-instance" xsi:noNamespaceSchemaLocation="http://sumo.dlr.de/xsd/additional_file.xsd">
    <parkingArea id="parkingArea" lane="gneE1_0" startPos="25.00" endPos="35.00"/>
    <rerouter id="rerouter_0" edges="gneE0 gneE1" pos="0.00,10.00">
        <interval begin="0.00" end="3600.00">
            <parkingAreaReroute id="parkingArea"/>
            <parkingAreaReroute id="parkingArea" probability="50.00"/>
            <parkingAreaReroute id="parkingArea" probability="0.60"/>
        </interval>
    </rerouter>
</additional>
