<?xml version="1.0" encoding="UTF-8"?>

<!-- generated on Wed Jun  8 16:31:06 2016 by SUMO netconvert Version dev-SVN-r20924
<?xml version="1.0" encoding="UTF-8"?>

<configuration xmlns:xsi="http://www.w3.org/2001/XMLSchema-instance" xsi:noNamespaceSchemaLocation="http://sumo.dlr.de/xsd/netconvertConfiguration.xsd">

    <input>
        <node-files value="input_plain.nod.xml"/>
        <edge-files value="input_plain.edg.xml"/>
        <connection-files value="input_plain.con.xml"/>
    </input>

    <output>
        <plain-output-prefix value="plain"/>
    </output>

    <processing>
        <no-turnarounds value="true"/>
        <crossings.guess value="true"/>
    </processing>

    <report>
        <xml-validation value="never"/>
    </report>

</configuration>
-->

<tlLogics version="0.27" xmlns:xsi="http://www.w3.org/2001/XMLSchema-instance" xsi:noNamespaceSchemaLocation="http://sumo.dlr.de/xsd/tllogic_file.xsd">
    <tlLogic id="C" type="static" programID="0" offset="0">
        <phase duration="31" state="GGGgrrrrGGGgrrrr"/>
        <phase duration="4" state="yyygrrrryyygrrrr"/>
        <phase duration="6" state="rrrGrrrrrrrGrrrr"/>
        <phase duration="4" state="rrryrrrrrrryrrrr"/>
        <phase duration="31" state="rrrrGGGgrrrrGGGg"/>
        <phase duration="4" state="rrrryyygrrrryyyg"/>
        <phase duration="6" state="rrrrrrrGrrrrrrrG"/>
        <phase duration="4" state="rrrrrrryrrrrrrry"/>
    </tlLogic>

    <connection from="EC" to="CN" fromLane="2" toLane="2" tl="C" linkIndex="4"/>
    <connection from="EC" to="CW" fromLane="2" toLane="2" tl="C" linkIndex="5"/>
    <connection from="EC" to="CW" fromLane="3" toLane="3" tl="C" linkIndex="6"/>
    <connection from="EC" to="CS" fromLane="3" toLane="3" tl="C" linkIndex="7"/>
    <connection from="NC" to="CW" fromLane="2" toLane="2" tl="C" linkIndex="0"/>
    <connection from="NC" to="CS" fromLane="2" toLane="2" tl="C" linkIndex="1"/>
    <connection from="NC" to="CS" fromLane="3" toLane="3" tl="C" linkIndex="2"/>
    <connection from="NC" to="CE" fromLane="3" toLane="3" tl="C" linkIndex="3"/>
    <connection from="SC" to="CE" fromLane="2" toLane="2" tl="C" linkIndex="8"/>
    <connection from="SC" to="CN" fromLane="2" toLane="2" tl="C" linkIndex="9"/>
    <connection from="SC" to="CN" fromLane="3" toLane="3" tl="C" linkIndex="10"/>
    <connection from="SC" to="CW" fromLane="3" toLane="3" tl="C" linkIndex="11"/>
    <connection from="WC" to="CS" fromLane="2" toLane="2" tl="C" linkIndex="12"/>
    <connection from="WC" to="CE" fromLane="2" toLane="2" tl="C" linkIndex="13"/>
    <connection from="WC" to="CE" fromLane="3" toLane="3" tl="C" linkIndex="14"/>
    <connection from="WC" to="CN" fromLane="3" toLane="3" tl="C" linkIndex="15"/>
</tlLogics>
