<routes xmlns:xsi="http://www.w3.org/2001/XMLSchema-instance" xsi:noNamespaceSchemaLocation="http://sumo.dlr.de/xsd/routes_file.xsd">

    <person id="public" depart="4">
        <personTrip from="b" to="g" modes="public"/>
    </person>


</routes>
