<?xml version="1.0" encoding="UTF-8"?>

<!-- generated on 2025-12-17T12:20:32.780669+01:00 by Eclipse SUMO sumo v1_25_0+0576-bc250f73a58
-->

<sumoConfiguration xmlns:xsi="http://www.w3.org/2001/XMLSchema-instance" xsi:noNamespaceSchemaLocation="http://sumo.dlr.de/xsd/sumoConfiguration.xsd">

    <input>
        <net-file value="input_net_A.net.xml"/>
        <route-files value="input_routes_A.rou.xml"/>
        <additional-files value="input_additionals_A.add.xml,input_meandatas_A.add.xml"/>
        <junction-taz value="true"/>
    </input>

</sumoConfiguration>
