<additional xmlns:xsi="http://www.w3.org/2001/XMLSchema-instance" xsi:noNamespaceSchemaLocation="http://sumo.dlr.de/xsd/additional_file.xsd">

	<laneData id="dump_60" type="emissions" freq="60" file="aggregated_60.xml" excludeEmpty="true"/>

</additional>
