<?xml version="1.0" encoding="UTF-8"?>

<!-- generated on 2024-02-29 13:56:08 by Eclipse SUMO netconvert Version v1_19_0+1092-a49a04372af
This data file and the accompanying materials
are made available under the terms of the Eclipse Public License v2.0
which accompanies this distribution, and is available at
http://www.eclipse.org/legal/epl-v20.html
This file may also be made available under the following Secondary
Licenses when the conditions for such availability set forth in the Eclipse
Public License 2.0 are satisfied: GNU General Public License, version 2
or later which is available at
https://www.gnu.org/licenses/old-licenses/gpl-2.0-standalone.html
SPDX-License-Identifier: EPL-2.0 OR GPL-2.0-or-later
<configuration xmlns:xsi="http://www.w3.org/2001/XMLSchema-instance" xsi:noNamespaceSchemaLocation="http://sumo.dlr.de/xsd/netconvertConfiguration.xsd">

    <input>
        <node-files value="input_nodes.nod.xml"/>
        <edge-files value="input_edges.edg.xml"/>
    </input>

    <output>
        <write-license value="true"/>
        <output-file value="net.net.xml"/>
        <plain-output-prefix value="plain"/>
    </output>

    <tls_building>
        <tls.join value="true"/>
    </tls_building>

    <report>
        <xml-validation value="never"/>
    </report>

</configuration>
-->

<tlLogics version="1.20" xmlns:xsi="http://www.w3.org/2001/XMLSchema-instance" xsi:noNamespaceSchemaLocation="http://sumo.dlr.de/xsd/tllogic_file.xsd">
    <tlLogic id="joinedS_301292612_38919945_56231397_59993001" type="static" programID="0" offset="0">
        <phase duration="42" state="GGGGrrGGGGGGrrrrrGGG"/>
        <phase duration="3"  state="yyyyrrGGGyyyrrrrryyy"/>
        <phase duration="42" state="rrrrGGGGGrrrGGGGGrrr"/>
        <phase duration="3"  state="rrrryyGGGrrryyyyyrrr"/>
    </tlLogic>

    <connection from="27437972" to="27441189" fromLane="0" toLane="0" tl="joinedS_301292612_38919945_56231397_59993001" linkIndex="0"/>
    <connection from="27437972" to="27441189" fromLane="0" toLane="1" tl="joinedS_301292612_38919945_56231397_59993001" linkIndex="1"/>
    <connection from="27437972" to="27441189" fromLane="1" toLane="2" tl="joinedS_301292612_38919945_56231397_59993001" linkIndex="2"/>
    <connection from="27437972" to="27441189" fromLane="1" toLane="3" tl="joinedS_301292612_38919945_56231397_59993001" linkIndex="3"/>
    <connection from="27441168" to="27445015#0" fromLane="0" toLane="0" tl="joinedS_301292612_38919945_56231397_59993001" linkIndex="12"/>
    <connection from="27441168" to="27445015#0" fromLane="0" toLane="1" tl="joinedS_301292612_38919945_56231397_59993001" linkIndex="13"/>
    <connection from="27441168" to="27445003" fromLane="0" toLane="1" tl="joinedS_301292612_38919945_56231397_59993001" linkIndex="14"/>
    <connection from="27441189" to="27445000#0" fromLane="0" toLane="0" tl="joinedS_301292612_38919945_56231397_59993001" linkIndex="6"/>
    <connection from="27441189" to="6137245" fromLane="1" toLane="0" tl="joinedS_301292612_38919945_56231397_59993001" linkIndex="7"/>
    <connection from="27441189" to="6137245" fromLane="3" toLane="1" tl="joinedS_301292612_38919945_56231397_59993001" linkIndex="8"/>
    <connection from="27441289.95" to="27445015#0" fromLane="0" toLane="0" tl="joinedS_301292612_38919945_56231397_59993001" linkIndex="9"/>
    <connection from="27441289.95" to="27445003" fromLane="0" toLane="0" tl="joinedS_301292612_38919945_56231397_59993001" linkIndex="10"/>
    <connection from="27441289.95" to="27445003" fromLane="1" toLane="1" tl="joinedS_301292612_38919945_56231397_59993001" linkIndex="11"/>
    <connection from="27445003" to="27441189" fromLane="0" toLane="2" tl="joinedS_301292612_38919945_56231397_59993001" linkIndex="4"/>
    <connection from="27445003" to="27441189" fromLane="1" toLane="3" tl="joinedS_301292612_38919945_56231397_59993001" linkIndex="5"/>
    <connection from="46039050" to="27441289.0" fromLane="0" toLane="0" tl="joinedS_301292612_38919945_56231397_59993001" linkIndex="15"/>
    <connection from="46039050" to="27441168" fromLane="0" toLane="0" tl="joinedS_301292612_38919945_56231397_59993001" linkIndex="16"/>
    <connection from="6137245" to="27441289.0" fromLane="0" toLane="0" tl="joinedS_301292612_38919945_56231397_59993001" linkIndex="17"/>
    <connection from="6137245" to="27441289.0" fromLane="1" toLane="1" tl="joinedS_301292612_38919945_56231397_59993001" linkIndex="18"/>
    <connection from="6137245" to="27441168" fromLane="1" toLane="0" tl="joinedS_301292612_38919945_56231397_59993001" linkIndex="19"/>
</tlLogics>
