<?xml version="1.0" encoding="UTF-8"?>

<!-- generated on 2022-04-12 15:06:25 by Eclipse SUMO netedit Version v1_12_0+2097-a9d6d94fee1
-->

<routes xmlns:xsi="http://www.w3.org/2001/XMLSchema-instance" xsi:noNamespaceSchemaLocation="http://sumo.dlr.de/xsd/routes_file.xsd">
    <!-- Vehicles, persons and containers (sorted by depart) -->
    <flow id="flow_5" begin="20.00" fromJunction="gneJ4" toJunction="gneJ7" end="50.00" number="15"/>
</routes>
