<?xml version="1.0" encoding="UTF-8"?>

<!-- generated on 2023-08-08 15:08:40 by Eclipse SUMO netedit Version v1_18_0+0799-e3f13b8932a
-->

<additional xmlns:xsi="http://www.w3.org/2001/XMLSchema-instance" xsi:noNamespaceSchemaLocation="http://sumo.dlr.de/xsd/additional_file.xsd">
    <!-- Shapes -->
    <poi id="POI_0" color="red" layer="202.00" lane="center1_0" pos="20.00" width="0.00" height="0.00"/>
    <poi id="POI_1" color="red" layer="202.00" name="%%%%" lane="center1_0" pos="20.00" width="0.00" height="0.00"/>
    <poi id="POI_2" color="red" layer="202.00" name="customName" lane="center1_0" pos="20.00" width="0.00" height="0.00"/>
</additional>
