<?xml version="1.0" encoding="UTF-8"?>

<!-- generated on Tue Jul  5 11:10:01 2011 by SUMO netconvert Version dev-SVN-r10842

<configuration xmlns:xsi="http://www.w3.org/2001/XMLSchema-instance" xsi:noNamespaceSchemaLocation="http://sumo.sf.net/xsd/netconvertConfiguration.xsd">

    <input>
        <node-files value="input_nodes.nod.xml"/>
        <edge-files value="input_edges.edg.xml"/>
    </input>

    <output>
        <output-file value="net.net.xml"/>
    </output>

    <ramp_guessing>
        <ramps.set value="s2,s3"/>
    </ramp_guessing>

    <processing>
        <no-internal-links value="true"/>
    </processing>

</configuration>
-->

<net version="0.13" xmlns:xsi="http://www.w3.org/2001/XMLSchema-instance" xsi:noNamespaceSchemaLocation="http://sumo.sf.net/xsd/net_file.xsd">

    <location netOffset="1000.00,0.00" convBoundary="0.00,0.00,2000.00,200.00" origBoundary="-1000.00,0.00,1000.00,200.00" projParameter="!"/>

    <edge id="off" from="2" to="2a" priority="-1">
        <lane id="off_0" index="0" speed="30.00" length="774.22" shape="948.50,2.11 200.43,201.59"/>
    </edge>
    <edge id="on" from="4a" to="4" priority="-1">
        <lane id="on_0" index="0" speed="30.00" length="735.86" shape="1799.57,201.59 1088.56,11.99"/>
    </edge>
    <edge id="s1" from="5" to="4" priority="-1">
        <lane id="s1_0" index="0" speed="30.00" length="913.02" shape="2000.00,8.25 1088.18,8.25"/>
        <lane id="s1_1" index="1" speed="30.00" length="913.02" shape="2000.00,4.95 1086.98,4.95"/>
        <lane id="s1_2" index="2" speed="30.00" length="913.02" shape="2000.00,1.65 1085.78,1.65"/>
    </edge>
    <edge id="s2" from="4" to="3" priority="-1">
        <lane id="s2_0" index="0" speed="30.00" length="85.20" shape="1085.20,11.55 1000.00,11.55"/>
        <lane id="s2_1" index="1" speed="30.00" length="85.20" shape="1085.20,8.25 1000.00,8.25"/>
        <lane id="s2_2" index="2" speed="30.00" length="85.20" shape="1085.20,4.95 1000.00,4.95"/>
        <lane id="s2_3" index="3" speed="30.00" length="85.20" shape="1085.20,1.65 1000.00,1.65"/>
    </edge>
    <edge id="s3" from="3" to="2" priority="-1">
        <lane id="s3_0" index="0" speed="30.00" length="48.50" shape="1000.00,11.55 951.50,11.55"/>
        <lane id="s3_1" index="1" speed="30.00" length="48.50" shape="1000.00,8.25 951.50,8.25"/>
        <lane id="s3_2" index="2" speed="30.00" length="48.50" shape="1000.00,4.95 951.50,4.95"/>
        <lane id="s3_3" index="3" speed="30.00" length="48.50" shape="1000.00,1.65 951.50,1.65"/>
    </edge>
    <edge id="s4" from="2" to="1" priority="-1">
        <lane id="s4_0" index="0" speed="30.00" length="948.50" shape="948.50,8.25 0.00,8.25"/>
        <lane id="s4_1" index="1" speed="30.00" length="948.50" shape="948.50,4.95 0.00,4.95"/>
        <lane id="s4_2" index="2" speed="30.00" length="948.50" shape="948.50,1.65 0.00,1.65"/>
    </edge>

    <junction id="1" type="unregulated" x="0.00" y="0.00" incLanes="s4_0 s4_1 s4_2" intLanes="" shape="-0.00,9.85 -0.00,0.05">
    </junction>
    <junction id="2" type="priority" x="950.00" y="0.00" incLanes="s3_0 s3_1 s3_2 s3_3" intLanes="" shape="951.50,13.15 951.50,0.05 948.50,0.05 948.50,9.85">
        <request index="0" response="0000" foes="0000"/>
        <request index="1" response="0000" foes="0000"/>
        <request index="2" response="0000" foes="0000"/>
        <request index="3" response="0000" foes="0000"/>
    </junction>
    <junction id="2a" type="unregulated" x="200.00" y="200.00" incLanes="off_0" intLanes="" shape="200.84,203.14 200.01,200.05">
    </junction>
    <junction id="3" type="priority" x="1000.00" y="0.00" incLanes="s2_0 s2_1 s2_2 s2_3" intLanes="" shape="1000.00,13.15 1000.00,0.05 1000.00,13.15">
        <request index="0" response="0000" foes="0000"/>
        <request index="1" response="0000" foes="0000"/>
        <request index="2" response="0000" foes="0000"/>
        <request index="3" response="0000" foes="0000"/>
    </junction>
    <junction id="4" type="priority" x="1050.00" y="0.00" incLanes="on_0 s1_0 s1_1 s1_2" intLanes="" shape="1088.15,13.54 1088.97,10.44 1085.20,0.05 1085.20,13.15">
        <request index="0" response="0000" foes="1110"/>
        <request index="1" response="0000" foes="0001"/>
        <request index="2" response="0000" foes="0001"/>
        <request index="3" response="0000" foes="0001"/>
    </junction>
    <junction id="4a" type="unregulated" x="1800.00" y="200.00" incLanes="" intLanes="" shape="1799.99,200.05 1799.16,203.14">
    </junction>
    <junction id="5" type="unregulated" x="2000.00" y="0.00" incLanes="" intLanes="" shape="2000.00,0.05 2000.00,9.85">
    </junction>

    <connection from="on" to="s2" fromLane="0" toLane="0" dir="s" state="M"/>
    <connection from="s1" to="s2" fromLane="0" toLane="1" dir="s" state="M"/>
    <connection from="s1" to="s2" fromLane="1" toLane="2" dir="s" state="M"/>
    <connection from="s1" to="s2" fromLane="2" toLane="3" dir="s" state="M"/>
    <connection from="s2" to="s3" fromLane="0" toLane="0" dir="s" state="M"/>
    <connection from="s2" to="s3" fromLane="1" toLane="1" dir="s" state="M"/>
    <connection from="s2" to="s3" fromLane="2" toLane="2" dir="s" state="M"/>
    <connection from="s2" to="s3" fromLane="3" toLane="3" dir="s" state="M"/>
    <connection from="s3" to="off" fromLane="0" toLane="0" dir="s" state="M"/>
    <connection from="s3" to="s4" fromLane="1" toLane="0" dir="s" state="M"/>
    <connection from="s3" to="s4" fromLane="2" toLane="1" dir="s" state="M"/>
    <connection from="s3" to="s4" fromLane="3" toLane="2" dir="s" state="M"/>

</net>
