<additional>
    <rerouter id="rerouter" objectid="beg" pos="20" file="input_definition.def.xml"/>
</additional>