<additional xmlns:xsi="http://www.w3.org/2001/XMLSchema-instance" xsi:noNamespaceSchemaLocation="http://sumo.sf.net/xsd/additional_file.xsd">
    <rerouter id="rerouter" objectid="beg" pos="20" file="input_definition.def.xml"/>
</additional>