<?xml version="1.0" encoding="UTF-8"?>

<!-- generated on 2023-02-10 09:56:51 by Eclipse SUMO netedit Version v1_16_0+0110-c1da63f18a0
-->

<additional xmlns:xsi="http://www.w3.org/2001/XMLSchema-instance" xsi:noNamespaceSchemaLocation="http://sumo.dlr.de/xsd/additional_file.xsd">
    <!-- StoppingPlaces -->
    <trainStop id="trainStop_01" name="trainStop" lane="center1_1" startPos="25.00" endPos="35.00"/>
    <trainStop id="trainStop_02" name="trainStop" lane="center1_1" startPos="25.00" endPos="35.00" lines="line1, line2"/>
    <trainStop id="trainStop_03" name="trainStop" lane="center1_1" startPos="25.00" endPos="35.00" lines="lineA lineB"/>
</additional>
