<?xml version="1.0"?>

<!-- generated on 09/10/07 12:12:20 by SUMO duarouter Version 0.9.6
<configuration>

   <input>
      <net-file>net.net.xml</net-file>
      <trip-defs>input_trips.trips.xml</trip-defs>
   </input>

   <output>
      <output-file>routes.rou.xml</output-file>
   </output>

</configuration>
-->

<routes>
   <vehicle id="0" depart="0">
      <route edges="1 2"/>
   </vehicle>
</routes>
