<routes>

	<vehicle id="1" depart="0" route="1" departspeed="0"/>

</routes>
