<?xml version="1.0" encoding="UTF-8"?>

<!-- generated on 2022-01-10 14:58:54 by Eclipse SUMO sumo Version v1_11_0+0988-8b51211
This data file and the accompanying materials
are made available under the terms of the Eclipse Public License v2.0
which accompanies this distribution, and is available at
http://www.eclipse.org/legal/epl-v20.html
SPDX-License-Identifier: EPL-2.0
<configuration xmlns:xsi="http://www.w3.org/2001/XMLSchema-instance" xsi:noNamespaceSchemaLocation="http://sumo.dlr.de/xsd/sumoConfiguration.xsd">

    <input>
        <net-file value="net.net.xml"/>
        <route-files value="input_routes.rou.xml"/>
        <additional-files value="input_additional.add.xml"/>
    </input>

    <output>
        <write-license value="true"/>
    </output>

    <processing>
        <default.speeddev value="0"/>
    </processing>

    <report>
        <xml-validation value="never"/>
        <xml-validation.routes value="never"/>
        <duration-log.disable value="true"/>
        <no-step-log value="true"/>
    </report>

</configuration>
-->

<e3Detector xmlns:xsi="http://www.w3.org/2001/XMLSchema-instance" xsi:noNamespaceSchemaLocation="http://sumo.dlr.de/xsd/det_e3_file.xsd">
   <interval begin="0.00" end="300.00" id="e3_C" meanTravelTime="51.90" meanOverlapTravelTime="53.67" meanSpeed="6.11" meanHaltsPerVehicle="1.13" meanTimeLoss="35.60" vehicleSum="272" meanSpeedWithin="5.76" meanHaltsPerVehicleWithin="1.74" meanDurationWithin="55.60" vehicleSumWithin="95" meanIntervalSpeedWithin="5.76" meanIntervalHaltsPerVehicleWithin="1.74" meanIntervalDurationWithin="55.60" meanTimeLossWithin="41.43"/>
   <interval begin="300.00" end="600.00" id="e3_C" meanTravelTime="82.02" meanOverlapTravelTime="83.88" meanSpeed="4.79" meanHaltsPerVehicle="1.98" meanTimeLoss="65.89" vehicleSum="322" meanSpeedWithin="3.29" meanHaltsPerVehicleWithin="2.86" meanDurationWithin="98.47" vehicleSumWithin="126" meanIntervalSpeedWithin="3.29" meanIntervalHaltsPerVehicleWithin="2.86" meanIntervalDurationWithin="98.40" meanTimeLossWithin="86.20"/>
   <interval begin="600.00" end="900.00" id="e3_C" meanTravelTime="118.25" meanOverlapTravelTime="120.07" meanSpeed="4.43" meanHaltsPerVehicle="2.94" meanTimeLoss="102.08" vehicleSum="287" meanSpeedWithin="4.96" meanHaltsPerVehicleWithin="2.49" meanDurationWithin="88.94" vehicleSumWithin="77" meanIntervalSpeedWithin="4.96" meanIntervalHaltsPerVehicleWithin="2.47" meanIntervalDurationWithin="88.50" meanTimeLossWithin="73.44"/>
   <interval begin="900.00" end="1139.00" id="e3_C" meanTravelTime="110.99" meanOverlapTravelTime="112.61" meanSpeed="4.68" meanHaltsPerVehicle="2.92" meanTimeLoss="94.20" vehicleSum="119" meanSpeedWithin="-1.00" meanHaltsPerVehicleWithin="-1.00" meanDurationWithin="-1.00" vehicleSumWithin="0" meanIntervalSpeedWithin="-1.00" meanIntervalHaltsPerVehicleWithin="-1.00" meanIntervalDurationWithin="-1.00" meanTimeLossWithin="-1.00"/>
</e3Detector>
