<?xml version="1.0" encoding="UTF-8"?>

<!-- generated on 2023-06-29 15:04:06.720952 by routeSampler.py v1_17_0+1318-85f891f765f
<configuration>
    <route-files value="input_routes.rou.xml"/>
    <edgedata-files value="input_edgedata.xml"/>
    <od-files value="input_turns.xml"/>
    <taz-files value="input_districts.xml"/>
    <write-flows value="number"/>
</configuration>
-->

<routes xmlns:xsi="http://www.w3.org/2001/XMLSchema-instance" xsi:noNamespaceSchemaLocation="http://sumo.dlr.de/xsd/routes_file.xsd">
<!-- begin="0.0" end="99.0" -->
    <flow id="60" begin="4.71" end="99.00" number="3">
        <route edges="120 120.180.00 -109 -109.80.00 -11 -11.80.00 3 3.180.00 27 27.80.00 45"/>
    </flow>
    <flow id="59" begin="33.04" end="99.00" number="1">
        <route edges="120 120.180.00 -109 -109.80.00 -11 -11.80.00 3 3.180.00 27 27.80.00 43 68 -45"/>
    </flow>
    <flow id="58" begin="45.47" end="99.00" number="1">
        <route edges="120 120.180.00 -109 -109.80.00 -11 -11.80.00 3 3.180.00 -71 -55 -55.80.00"/>
    </flow>
</routes>
