<?xml version="1.0" encoding="UTF-8"?>

<!-- generated on Mo 04 Mai 2020 22:51:32 CEST by Eclipse SUMO netedit Version v1_6_0+0067-92d0854682
<configuration xmlns:xsi="http://www.w3.org/2001/XMLSchema-instance" xsi:noNamespaceSchemaLocation="http://sumo.dlr.de/xsd/netconvertConfiguration.xsd">

    <input>
        <sumo-net-file value="/home/kobo/dlr/sumo/tests/tools/net/netdiff/delete_dead_end_edge/source.net.xml"/>
    </input>

    <output>
        <output-file value="/home/kobo/dlr/sumo/tests/tools/net/netdiff/delete_dead_end_edge/dest.net.xml"/>
    </output>

    <processing>
        <geometry.min-radius.fix.railways value="false"/>
        <geometry.max-grade.fix value="false"/>
        <offset.disable-normalization value="true"/>
        <lefthand value="false"/>
    </processing>

    <junctions>
        <no-turnarounds value="true"/>
        <junctions.corner-detail value="0"/>
        <junctions.limit-turn-speed value="-1"/>
        <rectangular-lane-cut value="false"/>
    </junctions>

    <pedestrian>
        <walkingareas value="false"/>
    </pedestrian>

    <report>
        <aggregate-warnings value="5"/>
    </report>

</configuration>
-->

<net version="1.6" xmlns:xsi="http://www.w3.org/2001/XMLSchema-instance" xsi:noNamespaceSchemaLocation="http://sumo.dlr.de/xsd/net_file.xsd">

    <location netOffset="100.00,100.00" convBoundary="100.00,0.00,200.00,200.00" origBoundary="-10000000000.00,-10000000000.00,10000000000.00,10000000000.00" projParameter="!"/>

    <edge id=":C_0" function="internal">
        <lane id=":C_0_0" index="0" speed="13.89" length="20.80" shape="95.20,110.40 95.20,89.60"/>
        <lane id=":C_0_1" index="1" speed="13.89" length="20.80" shape="98.40,110.40 98.40,89.60">
            <neigh lane=":C_9_1"/>
        </lane>
    </edge>
    <edge id=":C_2" function="internal">
        <lane id=":C_2_0" index="0" speed="13.89" length="6.96" shape="98.40,110.40 99.15,105.15 100.00,103.73"/>
    </edge>
    <edge id=":C_3" function="internal">
        <lane id=":C_3_0" index="0" speed="13.89" length="2.34" shape="98.40,110.40 99.20,109.20 100.00,108.80"/>
    </edge>
    <edge id=":C_12" function="internal">
        <lane id=":C_12_0" index="0" speed="13.89" length="12.40" shape="100.00,103.73 101.40,101.40 105.15,99.15 110.40,98.40"/>
    </edge>
    <edge id=":C_13" function="internal">
        <lane id=":C_13_0" index="0" speed="13.89" length="2.34" shape="100.00,108.80 100.80,109.20 101.60,110.40"/>
    </edge>
    <edge id=":C_4" function="internal">
        <lane id=":C_4_0" index="0" speed="13.89" length="9.03" shape="110.40,104.80 107.95,105.15 106.20,106.20 105.15,107.95 104.80,110.40"/>
    </edge>
    <edge id=":C_5" function="internal">
        <lane id=":C_5_0" index="0" speed="13.89" length="14.19" shape="110.40,101.60 106.55,102.15 103.80,103.80 102.15,106.55 101.60,110.40"/>
    </edge>
    <edge id=":C_6" function="internal">
        <lane id=":C_6_0" index="0" speed="13.89" length="19.35" shape="110.40,101.60 105.15,100.85 101.40,98.60 99.15,94.85 98.40,89.60"/>
    </edge>
    <edge id=":C_7" function="internal">
        <lane id=":C_7_0" index="0" speed="13.89" length="2.34" shape="110.40,101.60 109.20,100.80 108.80,100.00"/>
    </edge>
    <edge id=":C_14" function="internal">
        <lane id=":C_14_0" index="0" speed="13.89" length="2.34" shape="108.80,100.00 109.20,99.20 110.40,98.40"/>
    </edge>
    <edge id=":C_8" function="internal">
        <lane id=":C_8_0" index="0" speed="13.89" length="9.03" shape="104.80,89.60 105.15,92.05 106.20,93.80 107.95,94.85 110.40,95.20"/>
    </edge>
    <edge id=":C_9" function="internal">
        <lane id=":C_9_0" index="0" speed="13.89" length="20.80" shape="104.80,89.60 104.80,110.40"/>
        <lane id=":C_9_1" index="1" speed="13.89" length="20.80" shape="101.60,89.60 101.60,110.40">
            <neigh lane=":C_0_1"/>
        </lane>
    </edge>
    <edge id=":C_11" function="internal">
        <lane id=":C_11_0" index="0" speed="13.89" length="2.34" shape="101.60,89.60 100.80,90.80 100.00,91.20"/>
    </edge>
    <edge id=":C_15" function="internal">
        <lane id=":C_15_0" index="0" speed="13.89" length="2.34" shape="100.00,91.20 99.20,90.80 98.40,89.60"/>
    </edge>
    <edge id=":E_0" function="internal">
        <lane id=":E_0_0" index="0" speed="13.89" length="4.67" shape="200.00,98.40 201.20,99.20 201.60,100.00 201.20,100.80 200.00,101.60"/>
    </edge>
    <edge id=":N_0" function="internal">
        <lane id=":N_0_0" index="0" speed="13.89" length="4.67" shape="101.60,200.00 100.80,201.20 100.00,201.60 99.20,201.20 98.40,200.00"/>
    </edge>
    <edge id=":S_0" function="internal">
        <lane id=":S_0_0" index="0" speed="13.89" length="4.67" shape="98.40,0.00 99.20,-1.20 100.00,-1.60 100.80,-1.20 101.60,0.00"/>
    </edge>

    <edge id="CE" from="C" to="E" priority="2">
        <lane id="CE_0" index="0" speed="13.89" length="89.60" shape="110.40,95.20 200.00,95.20"/>
        <lane id="CE_1" index="1" speed="13.89" length="89.60" shape="110.40,98.40 200.00,98.40">
            <neigh lane="EC_1"/>
        </lane>
    </edge>
    <edge id="CN" from="C" to="N" priority="2">
        <lane id="CN_0" index="0" speed="13.89" length="89.60" shape="104.80,110.40 104.80,200.00"/>
        <lane id="CN_1" index="1" speed="13.89" length="89.60" shape="101.60,110.40 101.60,200.00">
            <neigh lane="NC_1"/>
        </lane>
    </edge>
    <edge id="CS" from="C" to="S" priority="2">
        <lane id="CS_0" index="0" speed="13.89" length="89.60" shape="95.20,89.60 95.20,0.00"/>
        <lane id="CS_1" index="1" speed="13.89" length="89.60" shape="98.40,89.60 98.40,0.00">
            <neigh lane="SC_1"/>
        </lane>
    </edge>
    <edge id="EC" from="E" to="C" priority="2">
        <lane id="EC_0" index="0" speed="13.89" length="89.60" shape="200.00,104.80 110.40,104.80"/>
        <lane id="EC_1" index="1" speed="13.89" length="89.60" shape="200.00,101.60 110.40,101.60">
            <neigh lane="CE_1"/>
        </lane>
    </edge>
    <edge id="NC" from="N" to="C" priority="2">
        <lane id="NC_0" index="0" speed="13.89" length="89.60" shape="95.20,200.00 95.20,110.40"/>
        <lane id="NC_1" index="1" speed="13.89" length="89.60" shape="98.40,200.00 98.40,110.40">
            <neigh lane="CN_1"/>
        </lane>
    </edge>
    <edge id="SC" from="S" to="C" priority="2">
        <lane id="SC_0" index="0" speed="13.89" length="89.60" shape="104.80,0.00 104.80,89.60"/>
        <lane id="SC_1" index="1" speed="13.89" length="89.60" shape="101.60,0.00 101.60,89.60">
            <neigh lane="CS_1"/>
        </lane>
    </edge>

    <tlLogic id="C" type="static" programID="0" offset="0">
        <phase duration="42" state="GGggrrrrGGGg"/>
        <phase duration="3"  state="yyyyrrrryyyy"/>
        <phase duration="42" state="rrrrGGGgGrrr"/>
        <phase duration="3"  state="rrrryyyyyrrr"/>
    </tlLogic>

    <junction id="C" type="traffic_light" x="100.00" y="100.00" incLanes="NC_0 NC_1 EC_0 EC_1 SC_0 SC_1" intLanes=":C_0_0 :C_0_1 :C_12_0 :C_13_0 :C_4_0 :C_5_0 :C_6_0 :C_14_0 :C_8_0 :C_9_0 :C_9_1 :C_15_0" shape="93.60,110.40 106.40,110.40 110.40,106.40 110.40,93.60 106.40,89.60 93.60,89.60">
        <request index="0"  response="000000000000" foes="100001000000" cont="0"/>
        <request index="1"  response="000000000000" foes="100001000000" cont="0"/>
        <request index="2"  response="011000000000" foes="011011000000" cont="1"/>
        <request index="3"  response="011000110000" foes="011000110000" cont="1"/>
        <request index="4"  response="011000000000" foes="011000001000" cont="0"/>
        <request index="5"  response="011000000000" foes="011000001000" cont="0"/>
        <request index="6"  response="011000000111" foes="111000000111" cont="0"/>
        <request index="7"  response="000000000100" foes="000000000100" cont="1"/>
        <request index="8"  response="000000000000" foes="000000000000" cont="0"/>
        <request index="9"  response="000000000000" foes="000001111100" cont="0"/>
        <request index="10" response="000000000000" foes="000001111100" cont="0"/>
        <request index="11" response="000001000011" foes="000001000011" cont="1"/>
    </junction>
    <junction id="E" type="priority" x="200.00" y="100.00" incLanes="CE_0 CE_1" intLanes=":E_0_0" shape="200.00,100.00 200.00,93.60 200.00,100.00">
        <request index="0" response="0" foes="0" cont="0"/>
    </junction>
    <junction id="N" type="priority" x="100.00" y="200.00" incLanes="CN_0 CN_1" intLanes=":N_0_0" shape="100.00,200.00 106.40,200.00 100.00,200.00">
        <request index="0" response="0" foes="0" cont="0"/>
    </junction>
    <junction id="S" type="priority" x="100.00" y="0.00" incLanes="CS_0 CS_1" intLanes=":S_0_0" shape="100.00,0.00 93.60,0.00 100.00,0.00">
        <request index="0" response="0" foes="0" cont="0"/>
    </junction>

    <junction id=":C_12_0" type="internal" x="100.00" y="103.73" incLanes=":C_2_0 SC_0 SC_1" intLanes=":C_6_0 :C_7_0 :C_8_0 :C_9_0 :C_9_1"/>
    <junction id=":C_13_0" type="internal" x="100.00" y="108.80" incLanes=":C_3_0 EC_0 EC_1 SC_0 SC_1" intLanes=":C_4_0 :C_5_0 :C_9_0 :C_9_1"/>
    <junction id=":C_14_0" type="internal" x="108.80" y="100.00" incLanes=":C_7_0 NC_1 SC_0" intLanes=":C_2_0 :C_8_0"/>
    <junction id=":C_15_0" type="internal" x="100.00" y="91.20" incLanes=":C_11_0 EC_1 NC_0 NC_1" intLanes=":C_0_0 :C_0_1 :C_6_0"/>

    <connection from="CE" to="EC" fromLane="1" toLane="1" via=":E_0_0" dir="t" state="M"/>
    <connection from="CN" to="NC" fromLane="1" toLane="1" via=":N_0_0" dir="t" state="M"/>
    <connection from="CS" to="SC" fromLane="1" toLane="1" via=":S_0_0" dir="t" state="M"/>
    <connection from="EC" to="CN" fromLane="0" toLane="0" via=":C_4_0" tl="C" linkIndex="4" dir="r" state="o"/>
    <connection from="EC" to="CN" fromLane="1" toLane="1" via=":C_5_0" tl="C" linkIndex="5" dir="r" state="o"/>
    <connection from="EC" to="CS" fromLane="1" toLane="1" via=":C_6_0" tl="C" linkIndex="6" dir="l" state="o"/>
    <connection from="EC" to="CE" fromLane="1" toLane="1" via=":C_7_0" tl="C" linkIndex="7" dir="t" state="o"/>
    <connection from="NC" to="CS" fromLane="0" toLane="0" via=":C_0_0" tl="C" linkIndex="0" dir="s" state="O"/>
    <connection from="NC" to="CS" fromLane="1" toLane="1" via=":C_0_1" tl="C" linkIndex="1" dir="s" state="O"/>
    <connection from="NC" to="CE" fromLane="1" toLane="1" via=":C_2_0" tl="C" linkIndex="2" dir="l" state="o"/>
    <connection from="NC" to="CN" fromLane="1" toLane="1" via=":C_3_0" tl="C" linkIndex="3" dir="t" state="o"/>
    <connection from="SC" to="CE" fromLane="0" toLane="0" via=":C_8_0" tl="C" linkIndex="8" dir="r" state="O"/>
    <connection from="SC" to="CN" fromLane="0" toLane="0" via=":C_9_0" tl="C" linkIndex="9" dir="s" state="O"/>
    <connection from="SC" to="CN" fromLane="1" toLane="1" via=":C_9_1" tl="C" linkIndex="10" dir="s" state="O"/>
    <connection from="SC" to="CS" fromLane="1" toLane="1" via=":C_11_0" tl="C" linkIndex="11" dir="t" state="o"/>

    <connection from=":C_0" to="CS" fromLane="0" toLane="0" dir="s" state="M"/>
    <connection from=":C_0" to="CS" fromLane="1" toLane="1" dir="s" state="M"/>
    <connection from=":C_2" to="CE" fromLane="0" toLane="1" via=":C_12_0" dir="l" state="m"/>
    <connection from=":C_12" to="CE" fromLane="0" toLane="1" dir="l" state="M"/>
    <connection from=":C_3" to="CN" fromLane="0" toLane="1" via=":C_13_0" dir="t" state="m"/>
    <connection from=":C_13" to="CN" fromLane="0" toLane="1" dir="t" state="M"/>
    <connection from=":C_4" to="CN" fromLane="0" toLane="0" dir="r" state="M"/>
    <connection from=":C_5" to="CN" fromLane="0" toLane="1" dir="r" state="M"/>
    <connection from=":C_6" to="CS" fromLane="0" toLane="1" dir="l" state="M"/>
    <connection from=":C_7" to="CE" fromLane="0" toLane="1" via=":C_14_0" dir="t" state="m"/>
    <connection from=":C_14" to="CE" fromLane="0" toLane="1" dir="t" state="M"/>
    <connection from=":C_8" to="CE" fromLane="0" toLane="0" dir="r" state="M"/>
    <connection from=":C_9" to="CN" fromLane="0" toLane="0" dir="s" state="M"/>
    <connection from=":C_9" to="CN" fromLane="1" toLane="1" dir="s" state="M"/>
    <connection from=":C_11" to="CS" fromLane="0" toLane="1" via=":C_15_0" dir="t" state="m"/>
    <connection from=":C_15" to="CS" fromLane="0" toLane="1" dir="t" state="M"/>
    <connection from=":E_0" to="EC" fromLane="0" toLane="1" dir="t" state="M"/>
    <connection from=":N_0" to="NC" fromLane="0" toLane="1" dir="t" state="M"/>
    <connection from=":S_0" to="SC" fromLane="0" toLane="1" dir="t" state="M"/>

</net>
