<?xml version="1.0" encoding="UTF-8"?>
<!-- generated on 2021-06-09 01:05:28.068483 by gtfs2pt.py v1_9_2+0412-04f89b33e3
  options: -n net.net.xml <doubleminus>gtfs gtfs.zip <doubleminus>date 20201111 <doubleminus>vtype-output vehtypes.xml <doubleminus>modes bus <doubleminus>begin 72000 <doubleminus>end 259200
-->
<routes xmlns:xsi="http://www.w3.org/2001/XMLSchema-instance" xsi:noNamespaceSchemaLocation="http://sumo.dlr.de/xsd/routes_file.xsd">
    <vehicle id="132244163.1" route="132244163" type="bus" depart="121070" line="620_132244163"/>
    <vehicle id="132244163.2" route="132244163" type="bus" depart="207470" line="620_132244163"/>
    <vehicle id="132244168.1" route="132244163" type="bus" depart="139070" line="620_132244163"/>
    <vehicle id="132244168.2" route="132244163" type="bus" depart="225470" line="620_132244163"/>
    <vehicle id="132244169.1" route="132244163" type="bus" depart="142670" line="620_132244163"/>
    <vehicle id="132244169.2" route="132244163" type="bus" depart="229070" line="620_132244163"/>
    <vehicle id="132244170.1" route="132244163" type="bus" depart="146270" line="620_132244163"/>
    <vehicle id="132244170.2" route="132244163" type="bus" depart="232670" line="620_132244163"/>
    <vehicle id="132244171.1" route="132244163" type="bus" depart="149870" line="620_132244163"/>
    <vehicle id="132244171.2" route="132244163" type="bus" depart="236270" line="620_132244163"/>
    <vehicle id="132244174.1" route="132244163" type="bus" depart="157070" line="620_132244163"/>
    <vehicle id="132244174.2" route="132244163" type="bus" depart="243470" line="620_132244163"/>
    <vehicle id="132244175.1" route="132244163" type="bus" depart="153470" line="620_132244163"/>
    <vehicle id="132244175.2" route="132244163" type="bus" depart="239870" line="620_132244163"/>
    <vehicle id="132244180.1" route="132244163" type="bus" depart="135470" line="620_132244163"/>
    <vehicle id="132244180.2" route="132244163" type="bus" depart="221870" line="620_132244163"/>
    <vehicle id="132244181.1" route="132244163" type="bus" depart="131870" line="620_132244163"/>
    <vehicle id="132244181.2" route="132244163" type="bus" depart="218270" line="620_132244163"/>
    <vehicle id="132244182.1" route="132244163" type="bus" depart="128270" line="620_132244163"/>
    <vehicle id="132244182.2" route="132244163" type="bus" depart="214670" line="620_132244163"/>
    <vehicle id="132244183.1" route="132244163" type="bus" depart="124670" line="620_132244163"/>
    <vehicle id="132244183.2" route="132244163" type="bus" depart="211070" line="620_132244163"/>
    <vehicle id="132244185.1" route="132244163" type="bus" depart="117470" line="620_132244163"/>
    <vehicle id="132244185.2" route="132244163" type="bus" depart="203870" line="620_132244163"/>
    <vehicle id="132244186.1" route="132244163" type="bus" depart="113870" line="620_132244163"/>
    <vehicle id="132244186.2" route="132244163" type="bus" depart="200270" line="620_132244163"/>
    <vehicle id="132244187.1" route="132244163" type="bus" depart="110270" line="620_132244163"/>
    <vehicle id="132244187.2" route="132244163" type="bus" depart="196670" line="620_132244163"/>
    <vehicle id="132244302.1" route="132244163" type="bus" depart="115670" line="620_132244163"/>
    <vehicle id="132244302.2" route="132244163" type="bus" depart="202070" line="620_132244163"/>
    <vehicle id="132244303.1" route="132244163" type="bus" depart="119270" line="620_132244163"/>
    <vehicle id="132244303.2" route="132244163" type="bus" depart="205670" line="620_132244163"/>
    <vehicle id="132244304.1" route="132244163" type="bus" depart="122870" line="620_132244163"/>
    <vehicle id="132244304.2" route="132244163" type="bus" depart="209270" line="620_132244163"/>
    <vehicle id="132244306.1" route="132244163" type="bus" depart="130070" line="620_132244163"/>
    <vehicle id="132244306.2" route="132244163" type="bus" depart="216470" line="620_132244163"/>
    <vehicle id="132244307.1" route="132244163" type="bus" depart="133670" line="620_132244163"/>
    <vehicle id="132244307.2" route="132244163" type="bus" depart="220070" line="620_132244163"/>
    <vehicle id="132244308.1" route="132244163" type="bus" depart="137270" line="620_132244163"/>
    <vehicle id="132244308.2" route="132244163" type="bus" depart="223670" line="620_132244163"/>
    <vehicle id="132244309.1" route="132244163" type="bus" depart="140870" line="620_132244163"/>
    <vehicle id="132244309.2" route="132244163" type="bus" depart="227270" line="620_132244163"/>
    <vehicle id="132244311.1" route="132244163" type="bus" depart="148070" line="620_132244163"/>
    <vehicle id="132244311.2" route="132244163" type="bus" depart="234470" line="620_132244163"/>
    <vehicle id="132244312.1" route="132244163" type="bus" depart="151670" line="620_132244163"/>
    <vehicle id="132244312.2" route="132244163" type="bus" depart="238070" line="620_132244163"/>
    <vehicle id="132244314.0" route="132244163" type="bus" depart="72890" line="620_132244163"/>
    <vehicle id="132244314.1" route="132244163" type="bus" depart="159290" line="620_132244163"/>
    <vehicle id="132244314.2" route="132244163" type="bus" depart="245690" line="620_132244163"/>
    <vehicle id="132244315.0" route="132244163" type="bus" depart="76490" line="620_132244163"/>
    <vehicle id="132244315.1" route="132244163" type="bus" depart="162890" line="620_132244163"/>
    <vehicle id="132244315.2" route="132244163" type="bus" depart="249290" line="620_132244163"/>
    <vehicle id="132244316.0" route="132244163" type="bus" depart="80090" line="620_132244163"/>
    <vehicle id="132244316.1" route="132244163" type="bus" depart="166490" line="620_132244163"/>
    <vehicle id="132244316.2" route="132244163" type="bus" depart="252890" line="620_132244163"/>
    <vehicle id="132244331.0" route="132244163" type="bus" depart="83690" line="620_132244163"/>
    <vehicle id="132244331.1" route="132244163" type="bus" depart="170090" line="620_132244163"/>
    <vehicle id="132244331.2" route="132244163" type="bus" depart="256490" line="620_132244163"/>
    <vehicle id="132244334.1" route="132244163" type="bus" depart="113270" line="620_132244163"/>
    <vehicle id="132244334.2" route="132244163" type="bus" depart="199670" line="620_132244163"/>
    <vehicle id="132244357.1" route="132244163" type="bus" depart="155270" line="620_132244163"/>
    <vehicle id="132244357.2" route="132244163" type="bus" depart="241670" line="620_132244163"/>
    <vehicle id="132244360.1" route="132244163" type="bus" depart="144470" line="620_132244163"/>
    <vehicle id="132244360.2" route="132244163" type="bus" depart="230870" line="620_132244163"/>
    <vehicle id="132244365.1" route="132244163" type="bus" depart="126470" line="620_132244163"/>
    <vehicle id="132244365.2" route="132244163" type="bus" depart="212870" line="620_132244163"/>
    <vehicle id="132244369.1" route="132244163" type="bus" depart="112070" line="620_132244163"/>
    <vehicle id="132244369.2" route="132244163" type="bus" depart="198470" line="620_132244163"/>
    <vehicle id="132244370.1" route="132244163" type="bus" depart="108470" line="620_132244163"/>
    <vehicle id="132244370.2" route="132244163" type="bus" depart="194870" line="620_132244163"/>
    <vehicle id="132244371.1" route="132244163" type="bus" depart="106370" line="620_132244163"/>
    <vehicle id="132244371.2" route="132244163" type="bus" depart="192770" line="620_132244163"/>
    <vehicle id="132244374.1" route="132244374" type="bus" depart="111890" line="620_132244374"/>
    <vehicle id="132244374.2" route="132244374" type="bus" depart="198290" line="620_132244374"/>
    <vehicle id="132244392.1" route="132244392" type="bus" depart="119690" line="620_132244392"/>
    <vehicle id="132244392.2" route="132244392" type="bus" depart="206090" line="620_132244392"/>
    <vehicle id="132244397.1" route="132244392" type="bus" depart="137690" line="620_132244392"/>
    <vehicle id="132244397.2" route="132244392" type="bus" depart="224090" line="620_132244392"/>
    <vehicle id="132244398.1" route="132244392" type="bus" depart="141290" line="620_132244392"/>
    <vehicle id="132244398.2" route="132244392" type="bus" depart="227690" line="620_132244392"/>
    <vehicle id="132244399.1" route="132244392" type="bus" depart="144890" line="620_132244392"/>
    <vehicle id="132244399.2" route="132244392" type="bus" depart="231290" line="620_132244392"/>
    <vehicle id="132244400.1" route="132244392" type="bus" depart="148490" line="620_132244392"/>
    <vehicle id="132244400.2" route="132244392" type="bus" depart="234890" line="620_132244392"/>
    <vehicle id="132244403.1" route="132244392" type="bus" depart="155690" line="620_132244392"/>
    <vehicle id="132244403.2" route="132244392" type="bus" depart="242090" line="620_132244392"/>
    <vehicle id="132244404.1" route="132244392" type="bus" depart="152090" line="620_132244392"/>
    <vehicle id="132244404.2" route="132244392" type="bus" depart="238490" line="620_132244392"/>
    <vehicle id="132244409.1" route="132244392" type="bus" depart="134090" line="620_132244392"/>
    <vehicle id="132244409.2" route="132244392" type="bus" depart="220490" line="620_132244392"/>
    <vehicle id="132244410.1" route="132244392" type="bus" depart="130490" line="620_132244392"/>
    <vehicle id="132244410.2" route="132244392" type="bus" depart="216890" line="620_132244392"/>
    <vehicle id="132244411.1" route="132244392" type="bus" depart="126890" line="620_132244392"/>
    <vehicle id="132244411.2" route="132244392" type="bus" depart="213290" line="620_132244392"/>
    <vehicle id="132244412.1" route="132244392" type="bus" depart="123290" line="620_132244392"/>
    <vehicle id="132244412.2" route="132244392" type="bus" depart="209690" line="620_132244392"/>
    <vehicle id="132244414.1" route="132244392" type="bus" depart="116090" line="620_132244392"/>
    <vehicle id="132244414.2" route="132244392" type="bus" depart="202490" line="620_132244392"/>
    <vehicle id="132244415.1" route="132244392" type="bus" depart="112490" line="620_132244392"/>
    <vehicle id="132244415.2" route="132244392" type="bus" depart="198890" line="620_132244392"/>
    <vehicle id="132244416.1" route="132244392" type="bus" depart="108890" line="620_132244392"/>
    <vehicle id="132244416.2" route="132244392" type="bus" depart="195290" line="620_132244392"/>
    <vehicle id="132244498.1" route="132244392" type="bus" depart="107090" line="620_132244392"/>
    <vehicle id="132244498.2" route="132244392" type="bus" depart="193490" line="620_132244392"/>
    <vehicle id="132244499.1" route="132244392" type="bus" depart="110690" line="620_132244392"/>
    <vehicle id="132244499.2" route="132244392" type="bus" depart="197090" line="620_132244392"/>
    <vehicle id="132244500.1" route="132244392" type="bus" depart="114290" line="620_132244392"/>
    <vehicle id="132244500.2" route="132244392" type="bus" depart="200690" line="620_132244392"/>
    <vehicle id="132244503.1" route="132244392" type="bus" depart="125090" line="620_132244392"/>
    <vehicle id="132244503.2" route="132244392" type="bus" depart="211490" line="620_132244392"/>
    <vehicle id="132244505.1" route="132244392" type="bus" depart="132290" line="620_132244392"/>
    <vehicle id="132244505.2" route="132244392" type="bus" depart="218690" line="620_132244392"/>
    <vehicle id="132244506.1" route="132244392" type="bus" depart="135890" line="620_132244392"/>
    <vehicle id="132244506.2" route="132244392" type="bus" depart="222290" line="620_132244392"/>
    <vehicle id="132244508.1" route="132244392" type="bus" depart="143090" line="620_132244392"/>
    <vehicle id="132244508.2" route="132244392" type="bus" depart="229490" line="620_132244392"/>
    <vehicle id="132244509.1" route="132244392" type="bus" depart="146690" line="620_132244392"/>
    <vehicle id="132244509.2" route="132244392" type="bus" depart="233090" line="620_132244392"/>
    <vehicle id="132244511.1" route="132244392" type="bus" depart="153890" line="620_132244392"/>
    <vehicle id="132244511.2" route="132244392" type="bus" depart="240290" line="620_132244392"/>
    <vehicle id="132244512.1" route="132244392" type="bus" depart="157490" line="620_132244392"/>
    <vehicle id="132244512.2" route="132244392" type="bus" depart="243890" line="620_132244392"/>
    <vehicle id="132244530.1" route="132244392" type="bus" depart="150290" line="620_132244392"/>
    <vehicle id="132244530.2" route="132244392" type="bus" depart="236690" line="620_132244392"/>
    <vehicle id="132244533.1" route="132244392" type="bus" depart="139490" line="620_132244392"/>
    <vehicle id="132244533.2" route="132244392" type="bus" depart="225890" line="620_132244392"/>
    <vehicle id="132244536.1" route="132244392" type="bus" depart="128690" line="620_132244392"/>
    <vehicle id="132244536.2" route="132244392" type="bus" depart="215090" line="620_132244392"/>
    <vehicle id="132244538.1" route="132244392" type="bus" depart="121490" line="620_132244392"/>
    <vehicle id="132244538.2" route="132244392" type="bus" depart="207890" line="620_132244392"/>
    <vehicle id="132244539.1" route="132244392" type="bus" depart="117890" line="620_132244392"/>
    <vehicle id="132244539.2" route="132244392" type="bus" depart="204290" line="620_132244392"/>
    <vehicle id="132244578.0" route="132244578" type="bus" depart="74690" line="620_132244578"/>
    <vehicle id="132244578.1" route="132244578" type="bus" depart="161090" line="620_132244578"/>
    <vehicle id="132244578.2" route="132244578" type="bus" depart="247490" line="620_132244578"/>
    <vehicle id="132244579.0" route="132244578" type="bus" depart="78290" line="620_132244578"/>
    <vehicle id="132244579.1" route="132244578" type="bus" depart="164690" line="620_132244578"/>
    <vehicle id="132244579.2" route="132244578" type="bus" depart="251090" line="620_132244578"/>
    <vehicle id="132244580.0" route="132244578" type="bus" depart="81890" line="620_132244578"/>
    <vehicle id="132244580.1" route="132244578" type="bus" depart="168290" line="620_132244578"/>
    <vehicle id="132244580.2" route="132244578" type="bus" depart="254690" line="620_132244578"/>
    <vehicle id="132185501.0" route="132185501" type="bus" depart="86390" line="418_132185501"/>
    <vehicle id="132185501.1" route="132185501" type="bus" depart="172790" line="418_132185501"/>
    <vehicle id="132185501.2" route="132185501" type="bus" depart="259190" line="418_132185501"/>
    <vehicle id="132185521.1" route="132185521" type="bus" depart="111590" line="418_132185521"/>
    <vehicle id="132185521.2" route="132185521" type="bus" depart="197990" line="418_132185521"/>
    <vehicle id="132185522.1" route="132185521" type="bus" depart="113390" line="418_132185521"/>
    <vehicle id="132185522.2" route="132185521" type="bus" depart="199790" line="418_132185521"/>
    <vehicle id="132185525.1" route="132185521" type="bus" depart="118790" line="418_132185521"/>
    <vehicle id="132185525.2" route="132185521" type="bus" depart="205190" line="418_132185521"/>
    <vehicle id="132185526.1" route="132185521" type="bus" depart="122390" line="418_132185521"/>
    <vehicle id="132185526.2" route="132185521" type="bus" depart="208790" line="418_132185521"/>
    <vehicle id="132185527.1" route="132185521" type="bus" depart="125990" line="418_132185521"/>
    <vehicle id="132185527.2" route="132185521" type="bus" depart="212390" line="418_132185521"/>
    <vehicle id="132185555.1" route="132185521" type="bus" depart="115190" line="418_132185521"/>
    <vehicle id="132185555.2" route="132185521" type="bus" depart="201590" line="418_132185521"/>
    <vehicle id="132185560.1" route="132185521" type="bus" depart="129590" line="418_132185521"/>
    <vehicle id="132185560.2" route="132185521" type="bus" depart="215990" line="418_132185521"/>
    <vehicle id="132185562.1" route="132185521" type="bus" depart="136790" line="418_132185521"/>
    <vehicle id="132185562.2" route="132185521" type="bus" depart="223190" line="418_132185521"/>
    <vehicle id="132185563.1" route="132185521" type="bus" depart="140390" line="418_132185521"/>
    <vehicle id="132185563.2" route="132185521" type="bus" depart="226790" line="418_132185521"/>
    <vehicle id="132185564.1" route="132185521" type="bus" depart="147590" line="418_132185521"/>
    <vehicle id="132185564.2" route="132185521" type="bus" depart="233990" line="418_132185521"/>
    <vehicle id="132185565.1" route="132185521" type="bus" depart="151190" line="418_132185521"/>
    <vehicle id="132185565.2" route="132185521" type="bus" depart="237590" line="418_132185521"/>
    <vehicle id="132185593.1" route="132185521" type="bus" depart="133190" line="418_132185521"/>
    <vehicle id="132185593.2" route="132185521" type="bus" depart="219590" line="418_132185521"/>
    <vehicle id="132185598.1" route="132185521" type="bus" depart="116990" line="418_132185521"/>
    <vehicle id="132185598.2" route="132185521" type="bus" depart="203390" line="418_132185521"/>
    <vehicle id="132185612.1" route="132185612" type="bus" depart="120470" line="418_132185612"/>
    <vehicle id="132185612.2" route="132185612" type="bus" depart="206870" line="418_132185612"/>
    <vehicle id="132185613.1" route="132185612" type="bus" depart="124070" line="418_132185612"/>
    <vehicle id="132185613.2" route="132185612" type="bus" depart="210470" line="418_132185612"/>
    <vehicle id="132185616.1" route="132185612" type="bus" depart="134870" line="418_132185612"/>
    <vehicle id="132185616.2" route="132185612" type="bus" depart="221270" line="418_132185612"/>
    <vehicle id="132185620.1" route="132185612" type="bus" depart="149270" line="418_132185612"/>
    <vehicle id="132185620.2" route="132185612" type="bus" depart="235670" line="418_132185612"/>
    <vehicle id="132185676.1" route="132185612" type="bus" depart="152870" line="418_132185612"/>
    <vehicle id="132185676.2" route="132185612" type="bus" depart="239270" line="418_132185612"/>
    <vehicle id="132185678.1" route="132185612" type="bus" depart="145670" line="418_132185612"/>
    <vehicle id="132185678.2" route="132185612" type="bus" depart="232070" line="418_132185612"/>
    <vehicle id="132185679.1" route="132185612" type="bus" depart="142070" line="418_132185612"/>
    <vehicle id="132185679.2" route="132185612" type="bus" depart="228470" line="418_132185612"/>
    <vehicle id="132185680.1" route="132185612" type="bus" depart="138470" line="418_132185612"/>
    <vehicle id="132185680.2" route="132185612" type="bus" depart="224870" line="418_132185612"/>
    <vehicle id="132185682.1" route="132185612" type="bus" depart="131270" line="418_132185612"/>
    <vehicle id="132185682.2" route="132185612" type="bus" depart="217670" line="418_132185612"/>
    <vehicle id="132185683.1" route="132185612" type="bus" depart="127670" line="418_132185612"/>
    <vehicle id="132185683.2" route="132185612" type="bus" depart="214070" line="418_132185612"/>
    <vehicle id="132185783.1" route="132185783" type="bus" depart="105290" line="418_132185783"/>
    <vehicle id="132185783.2" route="132185783" type="bus" depart="191690" line="418_132185783"/>
    <vehicle id="132185786.1" route="132185783" type="bus" depart="158390" line="418_132185783"/>
    <vehicle id="132185786.2" route="132185783" type="bus" depart="244790" line="418_132185783"/>
    <vehicle id="132185789.0" route="132185783" type="bus" depart="76490" line="418_132185783"/>
    <vehicle id="132185789.1" route="132185783" type="bus" depart="162890" line="418_132185783"/>
    <vehicle id="132185789.2" route="132185783" type="bus" depart="249290" line="418_132185783"/>
    <vehicle id="132185791.0" route="132185783" type="bus" depart="80090" line="418_132185783"/>
    <vehicle id="132185791.1" route="132185783" type="bus" depart="166490" line="418_132185783"/>
    <vehicle id="132185791.2" route="132185783" type="bus" depart="252890" line="418_132185783"/>
    <vehicle id="132185792.0" route="132185783" type="bus" depart="81890" line="418_132185783"/>
    <vehicle id="132185792.1" route="132185783" type="bus" depart="168290" line="418_132185783"/>
    <vehicle id="132185792.2" route="132185783" type="bus" depart="254690" line="418_132185783"/>
    <vehicle id="132185895.1" route="132185783" type="bus" depart="109790" line="418_132185783"/>
    <vehicle id="132185895.2" route="132185783" type="bus" depart="196190" line="418_132185783"/>
    <vehicle id="132185900.0" route="132185783" type="bus" depart="78290" line="418_132185783"/>
    <vehicle id="132185900.1" route="132185783" type="bus" depart="164690" line="418_132185783"/>
    <vehicle id="132185900.2" route="132185783" type="bus" depart="251090" line="418_132185783"/>
    <vehicle id="132185971.0" route="132185783" type="bus" depart="84590" line="418_132185783"/>
    <vehicle id="132185971.1" route="132185783" type="bus" depart="170990" line="418_132185783"/>
    <vehicle id="132185971.2" route="132185783" type="bus" depart="257390" line="418_132185783"/>
    <vehicle id="132185972.0" route="132185783" type="bus" depart="82790" line="418_132185783"/>
    <vehicle id="132185972.1" route="132185783" type="bus" depart="169190" line="418_132185783"/>
    <vehicle id="132185972.2" route="132185783" type="bus" depart="255590" line="418_132185783"/>
    <vehicle id="132185977.0" route="132185783" type="bus" depart="74690" line="418_132185783"/>
    <vehicle id="132185977.1" route="132185783" type="bus" depart="161090" line="418_132185783"/>
    <vehicle id="132185977.2" route="132185783" type="bus" depart="247490" line="418_132185783"/>
    <vehicle id="132185978.0" route="132185783" type="bus" depart="73190" line="418_132185783"/>
    <vehicle id="132185978.1" route="132185783" type="bus" depart="159590" line="418_132185783"/>
    <vehicle id="132185978.2" route="132185783" type="bus" depart="245990" line="418_132185783"/>
    <vehicle id="132185981.1" route="132185783" type="bus" depart="107090" line="418_132185783"/>
    <vehicle id="132185981.2" route="132185783" type="bus" depart="193490" line="418_132185783"/>
    <vehicle id="132185998.1" route="132185998" type="bus" depart="143870" line="418_132185998"/>
    <vehicle id="132185998.2" route="132185998" type="bus" depart="230270" line="418_132185998"/>
    <vehicle id="132185999.1" route="132185998" type="bus" depart="134270" line="418_132185998"/>
    <vehicle id="132185999.2" route="132185998" type="bus" depart="220670" line="418_132185998"/>
    <vehicle id="132186032.1" route="132185612" type="bus" depart="156470" line="418_132185612"/>
    <vehicle id="132186032.2" route="132185612" type="bus" depart="242870" line="418_132185612"/>
    <vehicle id="132186037.1" route="132185521" type="bus" depart="154790" line="418_132185521"/>
    <vehicle id="132186037.2" route="132185521" type="bus" depart="241190" line="418_132185521"/>
    <vehicle id="132186113.1" route="132186113" type="bus" depart="155630" line="418_132186113"/>
    <vehicle id="132186113.2" route="132186113" type="bus" depart="242030" line="418_132186113"/>
    <vehicle id="132186118.1" route="132186113" type="bus" depart="157430" line="418_132186113"/>
    <vehicle id="132186118.2" route="132186113" type="bus" depart="243830" line="418_132186113"/>
    <vehicle id="132186119.0" route="132186113" type="bus" depart="72830" line="418_132186113"/>
    <vehicle id="132186119.1" route="132186113" type="bus" depart="159230" line="418_132186113"/>
    <vehicle id="132186119.2" route="132186113" type="bus" depart="245630" line="418_132186113"/>
    <vehicle id="132186203.1" route="132186203" type="bus" depart="110570" line="418_132186203"/>
    <vehicle id="132186203.2" route="132186203" type="bus" depart="196970" line="418_132186203"/>
    <vehicle id="132186206.1" route="132186203" type="bus" depart="108770" line="418_132186203"/>
    <vehicle id="132186206.2" route="132186203" type="bus" depart="195170" line="418_132186203"/>
    <vehicle id="132186207.1" route="132186203" type="bus" depart="107570" line="418_132186203"/>
    <vehicle id="132186207.2" route="132186203" type="bus" depart="193970" line="418_132186203"/>
    <vehicle id="132186298.0" route="132186203" type="bus" depart="74030" line="418_132186203"/>
    <vehicle id="132186298.1" route="132186203" type="bus" depart="160430" line="418_132186203"/>
    <vehicle id="132186298.2" route="132186203" type="bus" depart="246830" line="418_132186203"/>
    <vehicle id="132186299.0" route="132186203" type="bus" depart="75830" line="418_132186203"/>
    <vehicle id="132186299.1" route="132186203" type="bus" depart="162230" line="418_132186203"/>
    <vehicle id="132186299.2" route="132186203" type="bus" depart="248630" line="418_132186203"/>
    <vehicle id="132186372.1" route="132186203" type="bus" depart="104630" line="418_132186203"/>
    <vehicle id="132186372.2" route="132186203" type="bus" depart="191030" line="418_132186203"/>
    <vehicle id="132186373.1" route="132186203" type="bus" depart="106430" line="418_132186203"/>
    <vehicle id="132186373.2" route="132186203" type="bus" depart="192830" line="418_132186203"/>
    <vehicle id="132186376.0" route="132186203" type="bus" depart="77630" line="418_132186203"/>
    <vehicle id="132186376.1" route="132186203" type="bus" depart="164030" line="418_132186203"/>
    <vehicle id="132186376.2" route="132186203" type="bus" depart="250430" line="418_132186203"/>
    <vehicle id="132186379.0" route="132186203" type="bus" depart="82130" line="418_132186203"/>
    <vehicle id="132186379.1" route="132186203" type="bus" depart="168530" line="418_132186203"/>
    <vehicle id="132186379.2" route="132186203" type="bus" depart="254930" line="418_132186203"/>
    <vehicle id="132186380.0" route="132186203" type="bus" depart="83930" line="418_132186203"/>
    <vehicle id="132186380.1" route="132186203" type="bus" depart="170330" line="418_132186203"/>
    <vehicle id="132186380.2" route="132186203" type="bus" depart="256730" line="418_132186203"/>
    <vehicle id="132186412.0" route="132186203" type="bus" depart="85730" line="418_132186203"/>
    <vehicle id="132186412.1" route="132186203" type="bus" depart="172130" line="418_132186203"/>
    <vehicle id="132186412.2" route="132186203" type="bus" depart="258530" line="418_132186203"/>
    <vehicle id="132186415.0" route="132186203" type="bus" depart="81230" line="418_132186203"/>
    <vehicle id="132186415.1" route="132186203" type="bus" depart="167630" line="418_132186203"/>
    <vehicle id="132186415.2" route="132186203" type="bus" depart="254030" line="418_132186203"/>
    <vehicle id="132186416.0" route="132186203" type="bus" depart="79430" line="418_132186203"/>
    <vehicle id="132186416.1" route="132186203" type="bus" depart="165830" line="418_132186203"/>
    <vehicle id="132186416.2" route="132186203" type="bus" depart="252230" line="418_132186203"/>
    <vehicle id="132186471.1" route="132186471" type="bus" depart="121370" line="418_132186471"/>
    <vehicle id="132186471.2" route="132186471" type="bus" depart="207770" line="418_132186471"/>
    <vehicle id="132186472.1" route="132186471" type="bus" depart="124970" line="418_132186471"/>
    <vehicle id="132186472.2" route="132186471" type="bus" depart="211370" line="418_132186471"/>
    <vehicle id="132186475.1" route="132186471" type="bus" depart="135770" line="418_132186471"/>
    <vehicle id="132186475.2" route="132186471" type="bus" depart="222170" line="418_132186471"/>
    <vehicle id="132186477.1" route="132186471" type="bus" depart="142970" line="418_132186471"/>
    <vehicle id="132186477.2" route="132186471" type="bus" depart="229370" line="418_132186471"/>
    <vehicle id="132186478.1" route="132186471" type="bus" depart="146570" line="418_132186471"/>
    <vehicle id="132186478.2" route="132186471" type="bus" depart="232970" line="418_132186471"/>
    <vehicle id="132186480.1" route="132186471" type="bus" depart="153770" line="418_132186471"/>
    <vehicle id="132186480.2" route="132186471" type="bus" depart="240170" line="418_132186471"/>
    <vehicle id="132186493.1" route="132186471" type="bus" depart="150170" line="418_132186471"/>
    <vehicle id="132186493.2" route="132186471" type="bus" depart="236570" line="418_132186471"/>
    <vehicle id="132186496.1" route="132186471" type="bus" depart="139370" line="418_132186471"/>
    <vehicle id="132186496.2" route="132186471" type="bus" depart="225770" line="418_132186471"/>
    <vehicle id="132186498.1" route="132186471" type="bus" depart="132170" line="418_132186471"/>
    <vehicle id="132186498.2" route="132186471" type="bus" depart="218570" line="418_132186471"/>
    <vehicle id="132186499.1" route="132186471" type="bus" depart="128570" line="418_132186471"/>
    <vehicle id="132186499.2" route="132186471" type="bus" depart="214970" line="418_132186471"/>
    <vehicle id="132186502.1" route="132186471" type="bus" depart="117770" line="418_132186471"/>
    <vehicle id="132186502.2" route="132186471" type="bus" depart="204170" line="418_132186471"/>
    <vehicle id="132186567.1" route="132186113" type="bus" depart="115970" line="418_132186113"/>
    <vehicle id="132186567.2" route="132186113" type="bus" depart="202370" line="418_132186113"/>
    <vehicle id="132186568.1" route="132186113" type="bus" depart="119570" line="418_132186113"/>
    <vehicle id="132186568.2" route="132186113" type="bus" depart="205970" line="418_132186113"/>
    <vehicle id="132186569.1" route="132186113" type="bus" depart="123170" line="418_132186113"/>
    <vehicle id="132186569.2" route="132186113" type="bus" depart="209570" line="418_132186113"/>
    <vehicle id="132186570.1" route="132186113" type="bus" depart="126770" line="418_132186113"/>
    <vehicle id="132186570.2" route="132186113" type="bus" depart="213170" line="418_132186113"/>