<?xml version="1.0" encoding="UTF-8"?>

<!-- generated on 2023-07-06 14:39:34 by Eclipse SUMO netedit Version v1_18_0+0154-2cecf1f1665
-->

<routes xmlns:xsi="http://www.w3.org/2001/XMLSchema-instance" xsi:noNamespaceSchemaLocation="http://sumo.dlr.de/xsd/routes_file.xsd">
    <!-- Vehicles, persons and containers (sorted by depart) -->
    <flow id="flow" begin="0.00" from="gneE0" to="gneE1" end="36.00" number="18">
        <stop chargingStation="chargingStation" duration="60.00" line=";;;;;;;;;;" speed="13.89"/>
        <stop chargingStation="chargingStation" duration="60.00" line=";;;;;;;;;;" speed="13.89"/>
        <stop chargingStation="chargingStation" duration="60.00" line="customLine" speed="13.89"/>
    </flow>
</routes>
