<?xml version="1.0" encoding="UTF-8"?>

<!-- generated on Fri Jul  1 11:17:53 2016 by SUMO Version dev-SVN-r21075
<?xml version="1.0" encoding="UTF-8"?>

<configuration xmlns:xsi="http://www.w3.org/2001/XMLSchema-instance" xsi:noNamespaceSchemaLocation="http://sumo.dlr.de/xsd/sumoConfiguration.xsd">

    <input>
        <net-file value="net.net.xml"/>
        <route-files value="input_routes.rou.xml"/>
    </input>

    <output>
        <tripinfo-output value="tripinfos.xml"/>
        <lanechange-output value="lanechanges.xml"/>
    </output>

    <processing>
        <lateral-resolution value="0.64"/>
    </processing>

    <report>
        <xml-validation value="never"/>
        <no-step-log value="true"/>
    </report>

</configuration>
-->

<lanechanges>
    <change id="cars.1" time="4.00" from="beg_1" to="beg_0" reason="sublane"/>
    <change id="cars.4" time="11.00" from="beg_1" to="beg_0" reason="sublane"/>
    <change id="cars.5" time="15.00" from="beg_1" to="beg_0" reason="sublane"/>
    <change id="cars.2" time="18.00" from="beg_1" to="beg_0" reason="sublane"/>
    <change id="cars.9" time="24.00" from="beg_1" to="beg_0" reason="sublane"/>
    <change id="cars.7" time="29.00" from="beg_1" to="beg_0" reason="sublane"/>
    <change id="cars.3" time="33.00" from="beg_0" to="beg_1" reason="speedGain"/>
    <change id="cars.14" time="33.00" from="beg_1" to="beg_0" reason="sublane"/>
    <change id="cars.10" time="34.00" from="beg_0" to="beg_1" reason="speedGain"/>
    <change id="cars.13" time="34.00" from="beg_1" to="beg_0" reason="sublane"/>
    <change id="cars.15" time="38.00" from="beg_1" to="beg_0" reason="sublane"/>
    <change id="cars.13" time="39.00" from="beg_0" to="beg_1" reason="speedGain"/>
    <change id="cars.11" time="42.00" from="beg_1" to="beg_0" reason="sublane"/>
    <change id="cars.18" time="42.00" from="beg_1" to="beg_0" reason="sublane"/>
    <change id="cars.17" time="46.00" from="beg_1" to="beg_0" reason="sublane"/>
    <change id="cars.11" time="55.00" from="beg_0" to="beg_1" reason="speedGain"/>
    <change id="cars.12" time="56.00" from="beg_0" to="beg_1" reason="speedGain"/>
    <change id="cars.15" time="68.00" from="beg_0" to="beg_1" reason="speedGain"/>
    <change id="cars.13" time="71.00" from="beg_1" to="beg_0" reason="sublane"/>
    <change id="cars.19" time="80.00" from="beg_0" to="beg_1" reason="speedGain"/>
    <change id="cars.16" time="208.00" from="beg_0" to="beg_1" reason="speedGain"/>
    <change id="cars.3" time="214.00" from="end_1" to="end_0" reason="sublane"/>
    <change id="cars.16" time="219.00" from="end_1" to="end_0" reason="sublane"/>
    <change id="cars.12" time="221.00" from="end_1" to="end_0" reason="sublane"/>
    <change id="cars.16" time="231.00" from="end_0" to="end_1" reason="speedGain"/>
    <change id="cars.14" time="231.00" from="end_0" to="end_1" reason="speedGain"/>
    <change id="cars.16" time="233.00" from="end_1" to="end_0" reason="sublane"/>
</lanechanges>
