<?xml version="1.0" encoding="UTF-8"?>

<!-- generated on Wed Mar  8 15:52:24 2017 by SUMO Version dev-SVN-r23260
<?xml version="1.0" encoding="UTF-8"?>

<configuration xmlns:xsi="http://www.w3.org/2001/XMLSchema-instance" xsi:noNamespaceSchemaLocation="http://sumo.dlr.de/xsd/sumoConfiguration.xsd">

    <input>
        <net-file value="net.net.xml"/>
        <route-files value="input_routes.rou.xml"/>
    </input>

    <output>
        <tripinfo-output value="tripinfos.xml"/>
        <lanechange-output value="lanechanges.xml"/>
    </output>

    <processing>
        <lateral-resolution value="0.64"/>
    </processing>

    <report>
        <xml-validation value="never"/>
        <no-step-log value="true"/>
    </report>

</configuration>
-->

<lanechanges>
    <change id="cars.1" time="4.00" from="beg_1" to="beg_0" dir="-1" speed="3.52" reason="sublane"/>
    <change id="cars.4" time="11.00" from="beg_1" to="beg_0" dir="-1" speed="4.55" reason="sublane"/>
    <change id="cars.5" time="15.00" from="beg_1" to="beg_0" dir="-1" speed="6.39" reason="sublane"/>
    <change id="cars.3" time="23.00" from="beg_0" to="beg_1" dir="1" speed="13.56" reason="speedGain"/>
    <change id="cars.10" time="23.00" from="beg_1" to="beg_0" dir="-1" speed="4.09" reason="sublane"/>
    <change id="cars.10" time="31.00" from="beg_0" to="beg_1" dir="1" speed="13.41" reason="sublane"/>
    <change id="cars.12" time="33.00" from="beg_0" to="beg_1" dir="1" speed="14.53" reason="sublane"/>
    <change id="cars.15" time="34.00" from="beg_1" to="beg_0" dir="-1" speed="5.52" reason="sublane"/>
    <change id="cars.7" time="35.00" from="beg_1" to="beg_0" dir="-1" speed="10.05" reason="sublane"/>
    <change id="cars.13" time="38.00" from="beg_1" to="beg_0" dir="-1" speed="16.05" reason="sublane"/>
    <change id="cars.17" time="40.00" from="beg_1" to="beg_0" dir="-1" speed="6.94" reason="sublane"/>
    <change id="cars.13" time="41.00" from="beg_0" to="beg_1" dir="1" speed="12.98" reason="speedGain"/>
    <change id="cars.18" time="43.00" from="beg_0" to="beg_1" dir="1" speed="3.51" reason="speedGain"/>
    <change id="cars.19" time="44.00" from="beg_0" to="beg_1" dir="1" speed="10.17" reason="speedGain"/>
    <change id="cars.18" time="47.00" from="beg_1" to="beg_0" dir="-1" speed="10.31" reason="sublane"/>
    <change id="cars.17" time="58.00" from="beg_0" to="beg_1" dir="1" speed="11.71" reason="sublane"/>
    <change id="cars.12" time="71.00" from="beg_1" to="beg_0" dir="-1" speed="0.00" reason="sublane"/>
    <change id="cars.18" time="71.00" from="beg_0" to="beg_1" dir="1" speed="0.00" reason="speedGain"/>
    <change id="cars.4" time="205.00" from="end_0" to="end_1" dir="1" speed="8.20" reason="speedGain"/>
    <change id="cars.4" time="206.00" from="end_1" to="end_0" dir="-1" speed="10.48" reason="sublane"/>
    <change id="cars.16" time="208.00" from="beg_0" to="beg_1" dir="1" speed="1.96" reason="speedGain"/>
    <change id="cars.2" time="210.00" from="end_1" to="end_0" dir="-1" speed="14.08" reason="sublane"/>
    <change id="cars.12" time="215.00" from="end_0" to="end_1" dir="1" speed="11.62" reason="sublane"/>
    <change id="cars.16" time="220.00" from="end_1" to="end_0" dir="-1" speed="10.00" reason="sublane"/>
    <change id="cars.19" time="224.00" from="end_1" to="end_0" dir="-1" speed="12.64" reason="sublane"/>
    <change id="cars.19" time="226.00" from="end_0" to="end_1" dir="1" speed="13.05" reason="sublane"/>
    <change id="cars.8" time="229.00" from="end_0" to="end_1" dir="1" speed="11.13" reason="sublane"/>
    <change id="cars.15" time="234.00" from="end_0" to="end_1" dir="1" speed="9.54" reason="speedGain"/>
    <change id="cars.15" time="236.00" from="end_1" to="end_0" dir="-1" speed="11.04" reason="sublane"/>
</lanechanges>
