<?xml version="1.0" encoding="UTF-8"?>

<!-- generated on Tue Mar 14 13:18:56 2017 by SUMO Version dev-SVN-r23369
<?xml version="1.0" encoding="UTF-8"?>

<configuration xmlns:xsi="http://www.w3.org/2001/XMLSchema-instance" xsi:noNamespaceSchemaLocation="http://sumo.dlr.de/xsd/sumoConfiguration.xsd">

    <input>
        <net-file value="net.net.xml"/>
        <route-files value="input_routes.rou.xml"/>
    </input>

    <output>
        <tripinfo-output value="tripinfos.xml"/>
        <lanechange-output value="lanechanges.xml"/>
    </output>

    <processing>
        <lateral-resolution value="0.64"/>
    </processing>

    <report>
        <xml-validation value="never"/>
        <no-step-log value="true"/>
    </report>

</configuration>
-->

<lanechanges>
    <change id="cars.1" time="4.00" from="beg_1" to="beg_0" dir="-1" speed="3.52" reason="sublane" latGap="None"/>
    <change id="cars.4" time="11.00" from="beg_1" to="beg_0" dir="-1" speed="4.55" reason="sublane" latGap="None"/>
    <change id="cars.5" time="17.00" from="beg_1" to="beg_0" dir="-1" speed="9.31" reason="sublane" latGap="None"/>
    <change id="cars.2" time="22.00" from="beg_1" to="beg_0" dir="-1" speed="16.60" reason="sublane" latGap="None"/>
    <change id="cars.10" time="23.00" from="beg_1" to="beg_0" dir="-1" speed="4.58" reason="sublane" latGap="0.83"/>
    <change id="cars.10" time="24.00" from="beg_0" to="beg_1" dir="1" speed="6.77" reason="sublane" latGap="None"/>
    <change id="cars.2" time="27.00" from="beg_0" to="beg_1" dir="1" speed="2.04" reason="sublane" latGap="None"/>
    <change id="cars.2" time="28.00" from="beg_1" to="beg_0" dir="-1" speed="0.22" reason="sublane" latGap="0.41"/>
    <change id="cars.7" time="29.00" from="beg_1" to="beg_0" dir="-1" speed="12.65" reason="sublane" latGap="None"/>
    <change id="cars.12" time="29.00" from="beg_1" to="beg_0" dir="-1" speed="6.83" reason="sublane" latGap="None"/>
    <change id="cars.8" time="34.00" from="beg_0" to="beg_1" dir="1" speed="14.28" reason="sublane" latGap="None"/>
    <change id="cars.12" time="35.00" from="beg_0" to="beg_1" dir="1" speed="16.80" reason="sublane" latGap="None"/>
    <change id="cars.12" time="38.00" from="beg_1" to="beg_0" dir="-1" speed="16.30" reason="sublane" latGap="None"/>
    <change id="cars.8" time="39.00" from="beg_1" to="beg_0" dir="-1" speed="13.91" reason="sublane" latGap="None"/>
    <change id="cars.18" time="43.00" from="beg_1" to="beg_0" dir="-1" speed="11.69" reason="sublane" latGap="None"/>
    <change id="cars.1" time="48.00" from="beg_0" to="beg_1" dir="1" speed="0.00" reason="speedGain" latGap="None"/>
    <change id="cars.17" time="51.00" from="beg_0" to="beg_1" dir="1" speed="14.03" reason="speedGain" latGap="None"/>
    <change id="cars.5" time="52.00" from="beg_0" to="beg_1" dir="1" speed="1.52" reason="speedGain" latGap="None"/>
    <change id="cars.10" time="53.00" from="beg_1" to="beg_0" dir="-1" speed="0.93" reason="sublane" latGap="0.87"/>
    <change id="cars.12" time="54.00" from="beg_0" to="beg_1" dir="1" speed="0.85" reason="speedGain" latGap="None"/>
    <change id="cars.19" time="55.00" from="beg_0" to="beg_1" dir="1" speed="13.91" reason="sublane" latGap="None"/>
    <change id="cars.14" time="68.00" from="beg_1" to="beg_0" dir="-1" speed="0.00" reason="sublane" latGap="0.64"/>
    <change id="cars.13" time="76.00" from="beg_0" to="beg_1" dir="1" speed="1.72" reason="speedGain" latGap="None"/>
    <change id="cars.17" time="84.00" from="beg_1" to="beg_0" dir="-1" speed="0.00" reason="sublane" latGap="0.64"/>
    <change id="cars.8" time="204.00" from="end_0" to="end_1" dir="1" speed="6.51" reason="sublane" latGap="0.70"/>
    <change id="cars.14" time="213.00" from="end_0" to="end_1" dir="1" speed="12.00" reason="sublane" latGap="0.70"/>
    <change id="cars.18" time="218.00" from="end_0" to="end_1" dir="1" speed="11.66" reason="sublane" latGap="None"/>
    <change id="cars.15" time="221.00" from="end_0" to="end_1" dir="1" speed="8.83" reason="speedGain" latGap="None"/>
</lanechanges>
