<?xml version="1.0" encoding="UTF-8"?>

<!-- generated on 11/05/13 13:28:39 by SUMO sumo Version dev-SVN-rUNKNOWN
<?xml version="1.0" encoding="UTF-8"?>

<configuration xmlns:xsi="http://www.w3.org/2001/XMLSchema-instance" xsi:noNamespaceSchemaLocation="http://sumo-sim.org/xsd/sumoConfiguration.xsd">

    <input>
        <net-file value="three_split.net.xml"/>
        <additional-files value="input_routes.rou.xml"/>
    </input>

    <output>
        <tripinfo-output value="tripinfos.xml"/>
        <bt-output value="bt.xml"/>
    </output>

    <time>
        <begin value="0"/>
    </time>

    <report>
        <no-duration-log value="true"/>
        <no-step-log value="true"/>
    </report>

    <communication>
        <device.btreceiver.explicit value="right"/>
        <device.btreceiver.range value="50"/>
        <device.btsender.explicit value="left"/>
    </communication>

</configuration>
-->

<bt-output>
    <bt id="right">
        <seen id="left" tBeg="180.11" observerPosBeg="1502.68,495.60" observerSpeedBeg="6.26" observerLaneIDBeg="end_0" observerLanePosBeg="2488.72" seenPosBeg="1498.35,545.42" seenSpeedBeg="13.89" seenLaneIDBeg="left2end_0" seenLanePosBeg="2447.74" tEnd="185.58" observerPosEnd="1563.70,498.35" observerSpeedEnd="13.89" observerLaneIDEnd="end_0" observerLanePosEnd="2550.71" seenPosEnd="1513.71,499.08" seenSpeedEnd="10.52" seenLaneIDEnd="end_0" seenLanePosEnd="2492.64">
            <recognitionPoint t="182.00" observerPos="1516.38,498.35" observerSpeed="8.86" observerLaneID="end_0" observerLanePos="2497.58" seenPos="1498.35,520.63" seenSpeed="12.43" seenLaneID="left2end_0" seenLanePos="2460.17"/>
        </seen>
    </bt>
</bt-output>
