<?xml version="1.0" encoding="UTF-8"?>
<!-- generated on 2021-08-11 14:41:28.504495 by $Id$ v1_9_2+1030-ae8a229
  options: -n net.net.xml -a input_additional.add.xml -r input_routes.rou.xml -o out.add.xml
-->
<additional xmlns:xsi="http://www.w3.org/2001/XMLSchema-instance" xsi:noNamespaceSchemaLocation="http://sumo.dlr.de/xsd/additional_file.xsd">
</additional>
