<?xml version="1.0" encoding="UTF-8"?>

<!-- generated on 05/02/13 14:08:38 by SUMO od2trips Version 0.17.0
<?xml version="1.0" encoding="UTF-8"?>

<configuration xmlns:xsi="http://www.w3.org/2001/XMLSchema-instance" xsi:noNamespaceSchemaLocation="http://sumo-sim.org/xsd/od2tripsConfiguration.xsd">

    <input>
        <net-file value="input_taz.taz.xml"/>
        <od-matrix-files value="input_od_om.fma"/>
    </input>

    <output>
        <output-file value="trips.trips.xml"/>
    </output>

    <processing>
        <no-step-log value="true"/>
    </processing>

</configuration>
-->

<routes xmlns:xsi="http://www.w3.org/2001/XMLSchema-instance" xsi:noNamespaceSchemaLocation="http://sumo-sim.org/xsd/routes_file.xsd">
    <trip id="5" depart="2507.60" from="a1" to="b2" type="4" fromTaz="1" toTaz="2" departLane="free" departSpeed="max"/>
    <trip id="88" depart="2546.34" from="a1" to="b2" type="4" fromTaz="1" toTaz="2" departLane="free" departSpeed="max"/>
    <trip id="35" depart="3463.84" from="a1" to="b2" type="4" fromTaz="1" toTaz="2" departLane="free" departSpeed="max"/>
    <trip id="19" depart="5845.72" from="a1" to="b2" type="4" fromTaz="1" toTaz="2" departLane="free" departSpeed="max"/>
    <trip id="49" depart="5863.86" from="a1" to="b2" type="4" fromTaz="1" toTaz="2" departLane="free" departSpeed="max"/>
    <trip id="42" depart="6597.24" from="a1" to="b2" type="4" fromTaz="1" toTaz="2" departLane="free" departSpeed="max"/>
    <trip id="99" depart="8894.75" from="a1" to="b2" type="4" fromTaz="1" toTaz="2" departLane="free" departSpeed="max"/>
    <trip id="91" depart="9792.05" from="a1" to="b2" type="4" fromTaz="1" toTaz="2" departLane="free" departSpeed="max"/>
    <trip id="43" depart="10210.68" from="a1" to="b2" type="4" fromTaz="1" toTaz="2" departLane="free" departSpeed="max"/>
    <trip id="29" depart="11752.06" from="a1" to="b2" type="4" fromTaz="1" toTaz="2" departLane="free" departSpeed="max"/>
    <trip id="65" depart="12768.92" from="a1" to="b2" type="4" fromTaz="1" toTaz="2" departLane="free" departSpeed="max"/>
    <trip id="60" depart="13284.93" from="a1" to="b2" type="4" fromTaz="1" toTaz="2" departLane="free" departSpeed="max"/>
    <trip id="70" depart="15023.71" from="a1" to="b2" type="4" fromTaz="1" toTaz="2" departLane="free" departSpeed="max"/>
    <trip id="4" depart="16216.20" from="a1" to="b2" type="4" fromTaz="1" toTaz="2" departLane="free" departSpeed="max"/>
    <trip id="15" depart="17646.82" from="a1" to="b2" type="4" fromTaz="1" toTaz="2" departLane="free" departSpeed="max"/>
    <trip id="13" depart="18817.18" from="a1" to="b2" type="4" fromTaz="1" toTaz="2" departLane="free" departSpeed="max"/>
    <trip id="36" depart="19136.46" from="a1" to="b2" type="4" fromTaz="1" toTaz="2" departLane="free" departSpeed="max"/>
    <trip id="63" depart="19630.83" from="a1" to="b2" type="4" fromTaz="1" toTaz="2" departLane="free" departSpeed="max"/>
    <trip id="20" depart="19958.81" from="a1" to="b2" type="4" fromTaz="1" toTaz="2" departLane="free" departSpeed="max"/>
    <trip id="12" depart="21883.54" from="a1" to="b2" type="4" fromTaz="1" toTaz="2" departLane="free" departSpeed="max"/>
    <trip id="31" depart="23914.09" from="a1" to="b2" type="4" fromTaz="1" toTaz="2" departLane="free" departSpeed="max"/>
    <trip id="92" depart="24225.88" from="a1" to="b2" type="4" fromTaz="1" toTaz="2" departLane="free" departSpeed="max"/>
    <trip id="81" depart="27052.68" from="a1" to="b2" type="4" fromTaz="1" toTaz="2" departLane="free" departSpeed="max"/>
    <trip id="96" depart="27582.43" from="a1" to="b2" type="4" fromTaz="1" toTaz="2" departLane="free" departSpeed="max"/>
    <trip id="75" depart="28245.39" from="a1" to="b2" type="4" fromTaz="1" toTaz="2" departLane="free" departSpeed="max"/>
    <trip id="53" depart="30143.11" from="a1" to="b2" type="4" fromTaz="1" toTaz="2" departLane="free" departSpeed="max"/>
    <trip id="56" depart="30415.07" from="a1" to="b2" type="4" fromTaz="1" toTaz="2" departLane="free" departSpeed="max"/>
    <trip id="51" depart="31044.33" from="a1" to="b2" type="4" fromTaz="1" toTaz="2" departLane="free" departSpeed="max"/>
    <trip id="58" depart="31497.52" from="a1" to="b2" type="4" fromTaz="1" toTaz="2" departLane="free" departSpeed="max"/>
    <trip id="72" depart="32223.95" from="a1" to="b2" type="4" fromTaz="1" toTaz="2" departLane="free" departSpeed="max"/>
    <trip id="45" depart="32407.33" from="a1" to="b2" type="4" fromTaz="1" toTaz="2" departLane="free" departSpeed="max"/>
    <trip id="22" depart="34771.78" from="a1" to="b2" type="4" fromTaz="1" toTaz="2" departLane="free" departSpeed="max"/>
    <trip id="50" depart="35527.38" from="a1" to="b2" type="4" fromTaz="1" toTaz="2" departLane="free" departSpeed="max"/>
    <trip id="7" depart="36406.97" from="a1" to="b2" type="4" fromTaz="1" toTaz="2" departLane="free" departSpeed="max"/>
    <trip id="86" depart="36990.17" from="a1" to="b2" type="4" fromTaz="1" toTaz="2" departLane="free" departSpeed="max"/>
    <trip id="84" depart="37527.57" from="a1" to="b2" type="4" fromTaz="1" toTaz="2" departLane="free" departSpeed="max"/>
    <trip id="89" depart="39160.90" from="a1" to="b2" type="4" fromTaz="1" toTaz="2" departLane="free" departSpeed="max"/>
    <trip id="64" depart="40286.24" from="a1" to="b2" type="4" fromTaz="1" toTaz="2" departLane="free" departSpeed="max"/>
    <trip id="57" depart="42329.21" from="a1" to="b2" type="4" fromTaz="1" toTaz="2" departLane="free" departSpeed="max"/>
    <trip id="73" depart="44028.51" from="a1" to="b2" type="4" fromTaz="1" toTaz="2" departLane="free" departSpeed="max"/>
    <trip id="77" depart="45399.02" from="a1" to="b2" type="4" fromTaz="1" toTaz="2" departLane="free" departSpeed="max"/>
    <trip id="37" depart="46548.02" from="a1" to="b2" type="4" fromTaz="1" toTaz="2" departLane="free" departSpeed="max"/>
    <trip id="25" depart="46922.61" from="a1" to="b2" type="4" fromTaz="1" toTaz="2" departLane="free" departSpeed="max"/>
    <trip id="48" depart="46928.24" from="a1" to="b2" type="4" fromTaz="1" toTaz="2" departLane="free" departSpeed="max"/>
    <trip id="26" depart="47109.37" from="a1" to="b2" type="4" fromTaz="1" toTaz="2" departLane="free" departSpeed="max"/>
    <trip id="66" depart="47292.73" from="a1" to="b2" type="4" fromTaz="1" toTaz="2" departLane="free" departSpeed="max"/>
    <trip id="41" depart="48336.16" from="a1" to="b2" type="4" fromTaz="1" toTaz="2" departLane="free" departSpeed="max"/>
    <trip id="33" depart="48414.23" from="a1" to="b2" type="4" fromTaz="1" toTaz="2" departLane="free" departSpeed="max"/>
    <trip id="59" depart="49794.68" from="a1" to="b2" type="4" fromTaz="1" toTaz="2" departLane="free" departSpeed="max"/>
    <trip id="55" depart="50539.37" from="a1" to="b2" type="4" fromTaz="1" toTaz="2" departLane="free" departSpeed="max"/>
    <trip id="14" depart="51006.07" from="a1" to="b2" type="4" fromTaz="1" toTaz="2" departLane="free" departSpeed="max"/>
    <trip id="30" depart="51463.83" from="a1" to="b2" type="4" fromTaz="1" toTaz="2" departLane="free" departSpeed="max"/>
    <trip id="69" depart="51668.07" from="a1" to="b2" type="4" fromTaz="1" toTaz="2" departLane="free" departSpeed="max"/>
    <trip id="40" depart="52436.18" from="a1" to="b2" type="4" fromTaz="1" toTaz="2" departLane="free" departSpeed="max"/>
    <trip id="1" depart="53093.67" from="a1" to="b2" type="4" fromTaz="1" toTaz="2" departLane="free" departSpeed="max"/>
    <trip id="93" depart="53987.04" from="a1" to="b2" type="4" fromTaz="1" toTaz="2" departLane="free" departSpeed="max"/>
    <trip id="8" depart="54224.58" from="a1" to="b2" type="4" fromTaz="1" toTaz="2" departLane="free" departSpeed="max"/>
    <trip id="74" depart="54894.73" from="a1" to="b2" type="4" fromTaz="1" toTaz="2" departLane="free" departSpeed="max"/>
    <trip id="24" depart="55068.25" from="a1" to="b2" type="4" fromTaz="1" toTaz="2" departLane="free" departSpeed="max"/>
    <trip id="78" depart="57061.53" from="a1" to="b2" type="4" fromTaz="1" toTaz="2" departLane="free" departSpeed="max"/>
    <trip id="67" depart="57107.53" from="a1" to="b2" type="4" fromTaz="1" toTaz="2" departLane="free" departSpeed="max"/>
    <trip id="52" depart="57149.99" from="a1" to="b2" type="4" fromTaz="1" toTaz="2" departLane="free" departSpeed="max"/>
    <trip id="71" depart="57598.59" from="a1" to="b2" type="4" fromTaz="1" toTaz="2" departLane="free" departSpeed="max"/>
    <trip id="2" depart="60237.90" from="a1" to="b2" type="4" fromTaz="1" toTaz="2" departLane="free" departSpeed="max"/>
    <trip id="0" depart="61114.90" from="a1" to="b2" type="4" fromTaz="1" toTaz="2" departLane="free" departSpeed="max"/>
    <trip id="10" depart="62286.05" from="a1" to="b2" type="4" fromTaz="1" toTaz="2" departLane="free" departSpeed="max"/>
    <trip id="6" depart="64198.38" from="a1" to="b2" type="4" fromTaz="1" toTaz="2" departLane="free" departSpeed="max"/>
    <trip id="83" depart="64566.17" from="a1" to="b2" type="4" fromTaz="1" toTaz="2" departLane="free" departSpeed="max"/>
    <trip id="97" depart="65005.97" from="a1" to="b2" type="4" fromTaz="1" toTaz="2" departLane="free" departSpeed="max"/>
    <trip id="18" depart="66654.06" from="a1" to="b2" type="4" fromTaz="1" toTaz="2" departLane="free" departSpeed="max"/>
    <trip id="21" depart="66976.67" from="a1" to="b2" type="4" fromTaz="1" toTaz="2" departLane="free" departSpeed="max"/>
    <trip id="85" depart="67431.68" from="a1" to="b2" type="4" fromTaz="1" toTaz="2" departLane="free" departSpeed="max"/>
    <trip id="61" depart="68364.99" from="a1" to="b2" type="4" fromTaz="1" toTaz="2" departLane="free" departSpeed="max"/>
    <trip id="38" depart="69247.57" from="a1" to="b2" type="4" fromTaz="1" toTaz="2" departLane="free" departSpeed="max"/>
    <trip id="32" depart="69388.60" from="a1" to="b2" type="4" fromTaz="1" toTaz="2" departLane="free" departSpeed="max"/>
    <trip id="95" depart="71284.26" from="a1" to="b2" type="4" fromTaz="1" toTaz="2" departLane="free" departSpeed="max"/>
    <trip id="82" depart="71403.80" from="a1" to="b2" type="4" fromTaz="1" toTaz="2" departLane="free" departSpeed="max"/>
    <trip id="17" depart="71466.19" from="a1" to="b2" type="4" fromTaz="1" toTaz="2" departLane="free" departSpeed="max"/>
    <trip id="62" depart="71628.86" from="a1" to="b2" type="4" fromTaz="1" toTaz="2" departLane="free" departSpeed="max"/>
    <trip id="3" depart="71957.46" from="a1" to="b2" type="4" fromTaz="1" toTaz="2" departLane="free" departSpeed="max"/>
    <trip id="79" depart="72615.63" from="a1" to="b2" type="4" fromTaz="1" toTaz="2" departLane="free" departSpeed="max"/>
    <trip id="23" depart="72886.34" from="a1" to="b2" type="4" fromTaz="1" toTaz="2" departLane="free" departSpeed="max"/>
    <trip id="90" depart="74566.17" from="a1" to="b2" type="4" fromTaz="1" toTaz="2" departLane="free" departSpeed="max"/>
    <trip id="16" depart="75455.22" from="a1" to="b2" type="4" fromTaz="1" toTaz="2" departLane="free" departSpeed="max"/>
    <trip id="44" depart="75850.57" from="a1" to="b2" type="4" fromTaz="1" toTaz="2" departLane="free" departSpeed="max"/>
    <trip id="68" depart="76115.04" from="a1" to="b2" type="4" fromTaz="1" toTaz="2" departLane="free" departSpeed="max"/>
    <trip id="9" depart="77169.98" from="a1" to="b2" type="4" fromTaz="1" toTaz="2" departLane="free" departSpeed="max"/>
    <trip id="39" depart="77260.29" from="a1" to="b2" type="4" fromTaz="1" toTaz="2" departLane="free" departSpeed="max"/>
    <trip id="28" depart="78498.84" from="a1" to="b2" type="4" fromTaz="1" toTaz="2" departLane="free" departSpeed="max"/>
    <trip id="98" depart="78801.53" from="a1" to="b2" type="4" fromTaz="1" toTaz="2" departLane="free" departSpeed="max"/>
    <trip id="76" depart="79901.28" from="a1" to="b2" type="4" fromTaz="1" toTaz="2" departLane="free" departSpeed="max"/>
    <trip id="27" depart="80125.65" from="a1" to="b2" type="4" fromTaz="1" toTaz="2" departLane="free" departSpeed="max"/>
    <trip id="46" depart="80289.73" from="a1" to="b2" type="4" fromTaz="1" toTaz="2" departLane="free" departSpeed="max"/>
    <trip id="11" depart="80778.05" from="a1" to="b2" type="4" fromTaz="1" toTaz="2" departLane="free" departSpeed="max"/>
    <trip id="34" depart="81956.17" from="a1" to="b2" type="4" fromTaz="1" toTaz="2" departLane="free" departSpeed="max"/>
    <trip id="80" depart="84055.83" from="a1" to="b2" type="4" fromTaz="1" toTaz="2" departLane="free" departSpeed="max"/>
    <trip id="54" depart="84473.99" from="a1" to="b2" type="4" fromTaz="1" toTaz="2" departLane="free" departSpeed="max"/>
    <trip id="94" depart="84513.56" from="a1" to="b2" type="4" fromTaz="1" toTaz="2" departLane="free" departSpeed="max"/>
    <trip id="47" depart="85924.45" from="a1" to="b2" type="4" fromTaz="1" toTaz="2" departLane="free" departSpeed="max"/>
    <trip id="87" depart="86139.29" from="a1" to="b2" type="4" fromTaz="1" toTaz="2" departLane="free" departSpeed="max"/>
</routes>
