<?xml version="1.0" encoding="UTF-8"?>

<!-- generated on 2021-08-17 14:31:38 by Eclipse SUMO netconvert Version v1_10_0+0016-baa94b5
This data file and the accompanying materials
are made available under the terms of the Eclipse Public License v2.0
which accompanies this distribution, and is available at
http://www.eclipse.org/legal/epl-v20.html
SPDX-License-Identifier: EPL-2.0
<configuration xmlns:xsi="http://www.w3.org/2001/XMLSchema-instance" xsi:noNamespaceSchemaLocation="http://sumo.dlr.de/xsd/netconvertConfiguration.xsd">

    <input>
        <node-files value="input_plain.nod.xml"/>
        <edge-files value="input_plain.edg.xml"/>
        <connection-files value="input_plain.con.xml"/>
    </input>

    <output>
        <write-license value="true"/>
        <output-file value="net.net.xml"/>
        <plain-output-prefix value="plain"/>
    </output>

    <report>
        <xml-validation value="never"/>
        <aggregate-warnings value="5"/>
    </report>

</configuration>
-->

<net version="1.9" junctionCornerDetail="5" limitTurnSpeed="5.50" xmlns:xsi="http://www.w3.org/2001/XMLSchema-instance" xsi:noNamespaceSchemaLocation="http://sumo.dlr.de/xsd/net_file.xsd">

    <location netOffset="100.00,100.00" convBoundary="0.00,0.00,200.00,200.00" origBoundary="-10000000000.00,-10000000000.00,10000000000.00,10000000000.00" projParameter="!"/>

    <edge id=":C_0" function="internal">
        <lane id=":C_0_0" index="0" speed="6.51" length="9.03" shape="95.20,110.40 94.85,107.95 93.80,106.20 92.05,105.15 89.60,104.80"/>
    </edge>
    <edge id=":C_1" function="internal">
        <lane id=":C_1_0" index="0" speed="13.89" length="20.80" shape="95.20,110.40 95.20,89.60"/>
        <lane id=":C_1_1" index="1" speed="13.89" length="20.80" shape="98.40,110.40 98.40,89.60"/>
    </edge>
    <edge id=":C_3" function="internal">
        <lane id=":C_3_0" index="0" speed="9.26" length="6.96" shape="98.40,110.40 99.15,105.15 100.00,103.73"/>
    </edge>
    <edge id=":C_16" function="internal">
        <lane id=":C_16_0" index="0" speed="9.26" length="12.40" shape="100.00,103.73 101.40,101.40 105.15,99.15 110.40,98.40"/>
    </edge>
    <edge id=":C_4" function="internal">
        <lane id=":C_4_0" index="0" speed="6.51" length="9.03" shape="110.40,104.80 107.95,105.15 106.20,106.20 105.15,107.95 104.80,110.40"/>
    </edge>
    <edge id=":C_5" function="internal">
        <lane id=":C_5_0" index="0" speed="13.89" length="20.80" shape="110.40,104.80 89.60,104.80"/>
        <lane id=":C_5_1" index="1" speed="13.89" length="20.80" shape="110.40,101.60 89.60,101.60"/>
    </edge>
    <edge id=":C_7" function="internal">
        <lane id=":C_7_0" index="0" speed="9.26" length="19.35" shape="110.40,101.60 105.15,100.85 101.40,98.60 99.15,94.85 98.40,89.60"/>
    </edge>
    <edge id=":C_8" function="internal">
        <lane id=":C_8_0" index="0" speed="6.51" length="9.03" shape="104.80,89.60 105.15,92.05 106.20,93.80 107.95,94.85 110.40,95.20"/>
    </edge>
    <edge id=":C_9" function="internal">
        <lane id=":C_9_0" index="0" speed="13.89" length="20.80" shape="104.80,89.60 104.80,110.40"/>
        <lane id=":C_9_1" index="1" speed="13.89" length="20.80" shape="101.60,89.60 101.60,110.40"/>
    </edge>
    <edge id=":C_11" function="internal">
        <lane id=":C_11_0" index="0" speed="9.26" length="6.96" shape="101.60,89.60 100.85,94.85 100.00,96.27"/>
    </edge>
    <edge id=":C_17" function="internal">
        <lane id=":C_17_0" index="0" speed="9.26" length="12.40" shape="100.00,96.27 98.60,98.60 94.85,100.85 89.60,101.60"/>
    </edge>
    <edge id=":C_12" function="internal">
        <lane id=":C_12_0" index="0" speed="6.51" length="9.03" shape="89.60,95.20 92.05,94.85 93.80,93.80 94.85,92.05 95.20,89.60"/>
    </edge>
    <edge id=":C_13" function="internal">
        <lane id=":C_13_0" index="0" speed="13.89" length="20.80" shape="89.60,95.20 110.40,95.20"/>
        <lane id=":C_13_1" index="1" speed="13.89" length="20.80" shape="89.60,98.40 110.40,98.40"/>
    </edge>
    <edge id=":C_15" function="internal">
        <lane id=":C_15_0" index="0" speed="9.26" length="19.35" shape="89.60,98.40 94.85,99.15 98.60,101.40 100.85,105.15 101.60,110.40"/>
    </edge>
    <edge id=":E_0" function="internal">
        <lane id=":E_0_0" index="0" speed="3.65" length="4.67" shape="200.00,98.40 201.20,99.20 201.60,100.00 201.20,100.80 200.00,101.60"/>
    </edge>
    <edge id=":N_0" function="internal">
        <lane id=":N_0_0" index="0" speed="3.65" length="4.67" shape="101.60,200.00 100.80,201.20 100.00,201.60 99.20,201.20 98.40,200.00"/>
    </edge>
    <edge id=":S_0" function="internal">
        <lane id=":S_0_0" index="0" speed="3.65" length="4.67" shape="98.40,0.00 99.20,-1.20 100.00,-1.60 100.80,-1.20 101.60,0.00"/>
    </edge>
    <edge id=":W_0" function="internal">
        <lane id=":W_0_0" index="0" speed="3.65" length="4.67" shape="0.00,101.60 -1.20,100.80 -1.60,100.00 -1.20,99.20 0.00,98.40"/>
    </edge>

    <edge id="CE" from="C" to="E" priority="2">
        <lane id="CE_0" index="0" speed="13.89" length="89.60" shape="110.40,95.20 200.00,95.20"/>
        <lane id="CE_1" index="1" speed="13.89" length="89.60" shape="110.40,98.40 200.00,98.40"/>
    </edge>
    <edge id="CN" from="C" to="N" priority="2">
        <lane id="CN_0" index="0" speed="13.89" length="89.60" shape="104.80,110.40 104.80,200.00"/>
        <lane id="CN_1" index="1" speed="13.89" length="89.60" shape="101.60,110.40 101.60,200.00"/>
    </edge>
    <edge id="CS" from="C" to="S" priority="2">
        <lane id="CS_0" index="0" speed="13.89" length="89.60" shape="95.20,89.60 95.20,0.00"/>
        <lane id="CS_1" index="1" speed="13.89" length="89.60" shape="98.40,89.60 98.40,0.00"/>
    </edge>
    <edge id="CW" from="C" to="W" priority="2">
        <lane id="CW_0" index="0" speed="13.89" length="89.60" shape="89.60,104.80 0.00,104.80"/>
        <lane id="CW_1" index="1" speed="13.89" length="89.60" shape="89.60,101.60 0.00,101.60"/>
    </edge>
    <edge id="EC" from="E" to="C" priority="2">
        <lane id="EC_0" index="0" speed="13.89" length="89.60" shape="200.00,104.80 110.40,104.80"/>
        <lane id="EC_1" index="1" speed="13.89" length="89.60" shape="200.00,101.60 110.40,101.60"/>
    </edge>
    <edge id="NC" from="N" to="C" priority="2">
        <lane id="NC_0" index="0" speed="13.89" length="89.60" shape="95.20,200.00 95.20,110.40"/>
        <lane id="NC_1" index="1" speed="13.89" length="89.60" shape="98.40,200.00 98.40,110.40"/>
    </edge>
    <edge id="SC" from="S" to="C" priority="2">
        <lane id="SC_0" index="0" speed="13.89" length="89.60" shape="104.80,0.00 104.80,89.60"/>
        <lane id="SC_1" index="1" speed="13.89" length="89.60" shape="101.60,0.00 101.60,89.60"/>
    </edge>
    <edge id="WC" from="W" to="C" priority="2">
        <lane id="WC_0" index="0" speed="13.89" length="89.60" shape="0.00,95.20 89.60,95.20"/>
        <lane id="WC_1" index="1" speed="13.89" length="89.60" shape="0.00,98.40 89.60,98.40"/>
    </edge>

    <junction id="C" type="priority" x="100.00" y="100.00" incLanes="NC_0 NC_1 EC_0 EC_1 SC_0 SC_1 WC_0 WC_1" intLanes=":C_0_0 :C_1_0 :C_1_1 :C_16_0 :C_4_0 :C_5_0 :C_5_1 :C_7_0 :C_8_0 :C_9_0 :C_9_1 :C_17_0 :C_12_0 :C_13_0 :C_13_1 :C_15_0" shape="93.60,110.40 106.40,110.40 106.84,108.18 107.40,107.40 108.18,106.84 109.18,106.51 110.40,106.40 110.40,93.60 108.18,93.16 107.40,92.60 106.84,91.82 106.51,90.82 106.40,89.60 93.60,89.60 93.16,91.82 92.60,92.60 91.82,93.16 90.82,93.49 89.60,93.60 89.60,106.40 91.82,106.84 92.60,107.40 93.16,108.18 93.49,109.18">
        <request index="0"  response="0000000000000000" foes="0000000001100000" cont="0"/>
        <request index="1"  response="0000000000000000" foes="1111100011100000" cont="0"/>
        <request index="2"  response="0000000000000000" foes="1111100011100000" cont="0"/>
        <request index="3"  response="0000011000000000" foes="1110011011100000" cont="1"/>
        <request index="4"  response="0000011000000000" foes="0000011000000000" cont="0"/>
        <request index="5"  response="0000111000001111" foes="1000111000001111" cont="0"/>
        <request index="6"  response="0000111000001111" foes="1000111000001111" cont="0"/>
        <request index="7"  response="0110111000001110" foes="0110111000001110" cont="0"/>
        <request index="8"  response="0000000000000000" foes="0110000000000000" cont="0"/>
        <request index="9"  response="0000000000000000" foes="1110000011111000" cont="0"/>
        <request index="10" response="0000000000000000" foes="1110000011111000" cont="0"/>
        <request index="11" response="0000000000000110" foes="1110000011100110" cont="1"/>
        <request index="12" response="0000000000000110" foes="0000000000000110" cont="0"/>
        <request index="13" response="0000111100001110" foes="0000111110001110" cont="0"/>
        <request index="14" response="0000111100001110" foes="0000111110001110" cont="0"/>
        <request index="15" response="0000111001101110" foes="0000111001101110" cont="0"/>
    </junction>
    <junction id="E" type="priority" x="200.00" y="100.00" incLanes="CE_0 CE_1" intLanes=":E_0_0" shape="200.00,100.00 200.00,93.60 200.00,100.00">
        <request index="0" response="0" foes="0" cont="0"/>
    </junction>
    <junction id="N" type="priority" x="100.00" y="200.00" incLanes="CN_0 CN_1" intLanes=":N_0_0" shape="100.00,200.00 106.40,200.00 100.00,200.00">
        <request index="0" response="0" foes="0" cont="0"/>
    </junction>
    <junction id="S" type="priority" x="100.00" y="0.00" incLanes="CS_0 CS_1" intLanes=":S_0_0" shape="100.00,0.00 93.60,0.00 100.00,0.00">
        <request index="0" response="0" foes="0" cont="0"/>
    </junction>
    <junction id="W" type="priority" x="0.00" y="100.00" incLanes="CW_0 CW_1" intLanes=":W_0_0" shape="0.00,100.00 0.00,106.40 0.00,100.00">
        <request index="0" response="0" foes="0" cont="0"/>
    </junction>

    <junction id=":C_16_0" type="internal" x="100.00" y="103.73" incLanes=":C_3_0 SC_0 SC_1" intLanes=":C_5_0 :C_5_1 :C_7_0 :C_8_0 :C_9_0 :C_9_1 :C_13_0 :C_13_1 :C_15_0"/>
    <junction id=":C_17_0" type="internal" x="100.00" y="96.27" incLanes=":C_11_0 NC_0 NC_1" intLanes=":C_0_0 :C_1_0 :C_1_1 :C_5_0 :C_5_1 :C_7_0 :C_13_0 :C_13_1 :C_15_0"/>

    <connection from="CE" to="EC" fromLane="1" toLane="1" via=":E_0_0" dir="t" state="M"/>
    <connection from="CN" to="NC" fromLane="1" toLane="1" via=":N_0_0" dir="t" state="M"/>
    <connection from="CS" to="SC" fromLane="1" toLane="1" via=":S_0_0" dir="t" state="M"/>
    <connection from="CW" to="WC" fromLane="1" toLane="1" via=":W_0_0" dir="t" state="M"/>
    <connection from="EC" to="CN" fromLane="0" toLane="0" via=":C_4_0" dir="r" state="m"/>
    <connection from="EC" to="CW" fromLane="0" toLane="0" via=":C_5_0" dir="s" state="m"/>
    <connection from="EC" to="CW" fromLane="1" toLane="1" via=":C_5_1" dir="s" state="m"/>
    <connection from="EC" to="CS" fromLane="1" toLane="1" via=":C_7_0" dir="l" state="m"/>
    <connection from="NC" to="CW" fromLane="0" toLane="0" via=":C_0_0" dir="r" state="M"/>
    <connection from="NC" to="CS" fromLane="0" toLane="0" via=":C_1_0" dir="s" state="M"/>
    <connection from="NC" to="CS" fromLane="1" toLane="1" via=":C_1_1" dir="s" state="M"/>
    <connection from="NC" to="CE" fromLane="1" toLane="1" via=":C_3_0" dir="l" state="m"/>
    <connection from="SC" to="CE" fromLane="0" toLane="0" via=":C_8_0" dir="r" state="M"/>
    <connection from="SC" to="CN" fromLane="0" toLane="0" via=":C_9_0" dir="s" state="M"/>
    <connection from="SC" to="CN" fromLane="1" toLane="1" via=":C_9_1" dir="s" state="M"/>
    <connection from="SC" to="CW" fromLane="1" toLane="1" via=":C_11_0" dir="l" state="m" visibility="40.00"/>
    <connection from="WC" to="CS" fromLane="0" toLane="0" via=":C_12_0" dir="r" state="m"/>
    <connection from="WC" to="CE" fromLane="0" toLane="0" via=":C_13_0" dir="s" state="m" visibility="50.00"/>
    <connection from="WC" to="CE" fromLane="1" toLane="1" via=":C_13_1" dir="s" state="m" visibility="51.00"/>
    <connection from="WC" to="CN" fromLane="1" toLane="1" via=":C_15_0" dir="l" state="m"/>

    <connection from=":C_0" to="CW" fromLane="0" toLane="0" dir="r" state="M"/>
    <connection from=":C_1" to="CS" fromLane="0" toLane="0" dir="s" state="M"/>
    <connection from=":C_1" to="CS" fromLane="1" toLane="1" dir="s" state="M"/>
    <connection from=":C_3" to="CE" fromLane="0" toLane="1" via=":C_16_0" dir="l" state="m"/>
    <connection from=":C_16" to="CE" fromLane="0" toLane="1" dir="l" state="M"/>
    <connection from=":C_4" to="CN" fromLane="0" toLane="0" dir="r" state="M"/>
    <connection from=":C_5" to="CW" fromLane="0" toLane="0" dir="s" state="M"/>
    <connection from=":C_5" to="CW" fromLane="1" toLane="1" dir="s" state="M"/>
    <connection from=":C_7" to="CS" fromLane="0" toLane="1" dir="l" state="M"/>
    <connection from=":C_8" to="CE" fromLane="0" toLane="0" dir="r" state="M"/>
    <connection from=":C_9" to="CN" fromLane="0" toLane="0" dir="s" state="M"/>
    <connection from=":C_9" to="CN" fromLane="1" toLane="1" dir="s" state="M"/>
    <connection from=":C_11" to="CW" fromLane="0" toLane="1" via=":C_17_0" dir="l" state="m" visibility="40.00"/>
    <connection from=":C_17" to="CW" fromLane="0" toLane="1" dir="l" state="M"/>
    <connection from=":C_12" to="CS" fromLane="0" toLane="0" dir="r" state="M"/>
    <connection from=":C_13" to="CE" fromLane="0" toLane="0" dir="s" state="M"/>
    <connection from=":C_13" to="CE" fromLane="1" toLane="1" dir="s" state="M"/>
    <connection from=":C_15" to="CN" fromLane="0" toLane="1" dir="l" state="M"/>
    <connection from=":E_0" to="EC" fromLane="0" toLane="1" dir="t" state="M"/>
    <connection from=":N_0" to="NC" fromLane="0" toLane="1" dir="t" state="M"/>
    <connection from=":S_0" to="SC" fromLane="0" toLane="1" dir="t" state="M"/>
    <connection from=":W_0" to="WC" fromLane="0" toLane="1" dir="t" state="M"/>

</net>
