<?xml version="1.0" encoding="UTF-8"?>

<!-- generated on Thu Mar  2 11:11:39 2017 by SUMO netconvert Version dev-SVN-r23174
<?xml version="1.0" encoding="UTF-8"?>

<configuration xmlns:xsi="http://www.w3.org/2001/XMLSchema-instance" xsi:noNamespaceSchemaLocation="http://sumo.dlr.de/xsd/netconvertConfiguration.xsd">

    <input>
        <vissim-file value="vissim.inp"/>
    </input>

    <output>
        <output-file value="net.net.xml"/>
        <output.street-names value="true"/>
    </output>

    <processing>
        <vissim.report-unset-speeds value="true"/>
        <no-internal-links value="true"/>
        <geometry.junction-mismatch-threshold value="100"/>
        <edges.join value="true"/>
    </processing>

    <report>
        <verbose value="true"/>
        <xml-validation value="never"/>
    </report>

</configuration>
-->

<net version="0.27" xmlns:xsi="http://www.w3.org/2001/XMLSchema-instance" xsi:noNamespaceSchemaLocation="http://sumo.dlr.de/xsd/net_file.xsd">

    <location netOffset="-4437088.42,-5472770.75" convBoundary="0.00,0.00,3287.61,4145.70" origBoundary="4437087.79,5472770.75,4440376.83,5476917.69" projParameter="!"/>

    <edge id="1" from="605000010" to="605000011" name="Breslauer Strasse/ (53091482)" priority="-1" type="83" spreadType="center" shape="3.17,1826.13 26.84,1838.15">
        <lane id="1_0" index="0" speed="13.89" length="44.17" shape="3.91,1824.66 27.59,1836.68"/>
        <lane id="1_1" index="1" speed="13.89" length="44.17" shape="2.51,1827.65 26.09,1839.62"/>
    </edge>
    <edge id="10" from="605000019" to="605000020" name="VISUM Strecke 53091655" priority="-1" type="83" spreadType="center" shape="1162.99,2902.98 1081.94,2826.13">
        <lane id="10_0" index="0" speed="13.89" length="123.57" shape="1161.86,2904.18 1081.84,2828.30"/>
        <lane id="10_1" index="1" speed="13.89" length="123.57" shape="1164.13,2901.78 1084.11,2825.91"/>
    </edge>
    <edge id="1000700" from="605000045" to="605000036" priority="-1" type="200" spreadType="center" shape="932.06,2649.22 968.03,2614.06">
        <lane id="1000700_0" index="0" speed="13.89" length="69.63" shape="930.91,2648.04 966.88,2612.88"/>
        <lane id="1000700_1" index="1" speed="13.89" length="69.63" shape="933.22,2650.40 969.19,2615.24"/>
    </edge>
    <edge id="1000702[0]" from="605000035" to="605000046" priority="-1" type="200" spreadType="center" shape="980.67,2614.02 979.50,2619.09">
        <lane id="1000702[0]_0" index="0" speed="13.89" length="8.65" shape="981.71,2616.83 981.67,2617.03"/>
        <lane id="1000702[0]_1" index="1" speed="13.89" length="8.65" shape="979.06,2613.65 979.04,2613.75"/>
    </edge>
    <edge id="1000702[1]+1000701" from="605000046" to="605000045" priority="0" spreadType="center" shape="979.50,2619.09 924.55,2669.26">
        <lane id="1000702[1]+1000701_0" index="0" speed="13.89" length="74.70" shape="981.63,2621.61 941.18,2658.54"/>
        <lane id="1000702[1]+1000701_1" index="1" speed="13.89" length="74.70" shape="979.41,2619.18 938.87,2656.18"/>
        <lane id="1000702[1]+1000701_2" index="2" speed="13.89" length="74.70" shape="977.18,2616.74 936.56,2653.82"/>
    </edge>
    <edge id="1000703" from="605000045" to="605000018" priority="-1" type="200" spreadType="center" shape="937.54,2677.14 1082.88,2814.96 1083.62,2815.74 1084.13,2816.45 1084.47,2817.09 1084.71,2817.71 1084.93,2818.31 1085.17,2818.92 1085.52,2819.57 1086.02,2820.27 1086.76,2821.05">
        <lane id="1000703_0" index="0" speed="13.89" length="227.51" shape="938.67,2675.95 1084.02,2813.77 1084.89,2814.69 1085.52,2815.57 1085.96,2816.39 1086.26,2817.12 1086.47,2817.73 1086.67,2818.22 1086.92,2818.69 1087.30,2819.22 1087.96,2819.92"/>
        <lane id="1000703_1" index="1" speed="13.89" length="227.51" shape="936.40,2678.34 1081.75,2816.16 1082.35,2816.80 1082.73,2817.33 1082.98,2817.79 1083.17,2818.29 1083.38,2818.89 1083.68,2819.62 1084.11,2820.44 1084.75,2821.32 1085.56,2822.18"/>
    </edge>
    <edge id="1000704" from="605000020" to="605000045" priority="-1" type="200" spreadType="center" shape="1083.15,2824.86 1082.41,2824.08 1081.90,2823.38 1081.56,2822.73 1081.31,2822.12 1081.10,2821.52 1080.86,2820.90 1080.51,2820.26 1080.01,2819.55 1079.27,2818.77 933.92,2680.95">
        <lane id="1000704_0" index="0" speed="13.89" length="228.54" shape="1082.24,2823.84 1081.90,2823.38 1081.56,2822.73 1081.31,2822.12 1081.10,2821.52 1080.86,2820.90 1080.51,2820.26 1080.01,2819.55 1079.27,2818.77 933.92,2680.95"/>
    </edge>
    <edge id="1000705[0]" from="605000020" to="605000047" priority="-1" type="200" spreadType="center" shape="1080.74,2827.40 1080.26,2826.89">
        <lane id="1000705[0]_0" index="0" speed="13.89" length="2.27" shape="1080.27,2826.90 1080.13,2826.76"/>
    </edge>
    <edge id="1000705[1]" from="605000047" to="605000045" priority="-1" type="200" spreadType="center" shape="1080.26,2826.89 1080.00,2826.62 1079.50,2825.92 1079.15,2825.27 1078.91,2824.66 1078.69,2824.05 1078.45,2823.44 1078.11,2822.80 1077.60,2822.09 1076.86,2821.31 931.52,2683.49">
        <lane id="1000705[1]_0" index="0" speed="13.89" length="227.55" shape="1077.22,2821.69 1076.86,2821.31 931.52,2683.49"/>
    </edge>
    <edge id="1000706" from="605000047" to="605000045" priority="-1" type="200" spreadType="center" shape="1073.95,2823.37 929.11,2686.03">
        <lane id="1000706_0" index="0" speed="13.89" length="228.84" shape="1073.95,2823.37 929.11,2686.03"/>
    </edge>
    <edge id="1000707" from="605000045" to="605000033" priority="-1" type="200" spreadType="center" shape="916.69,2688.61 859.58,2771.03 852.71,2774.79">
        <lane id="1000707_0" index="0" speed="13.89" length="142.36" shape="918.05,2689.55 860.71,2772.29 853.51,2776.24"/>
        <lane id="1000707_1" index="1" speed="13.89" length="142.36" shape="915.33,2687.67 858.44,2769.77 851.92,2773.34"/>
    </edge>
    <edge id="1000708" from="605000048" to="605000045" priority="-1" type="200" spreadType="center" shape="854.22,2766.47 910.93,2684.62">
        <lane id="1000708_0" index="0" speed="13.89" length="125.37" shape="852.87,2765.53 909.58,2683.68"/>
        <lane id="1000708_1" index="1" speed="13.89" length="125.37" shape="855.58,2767.41 912.29,2685.56"/>
    </edge>
    <edge id="1000709" from="605000034" to="605000048" priority="-1" type="200" spreadType="center" shape="843.92,2772.63 850.80,2768.26">
        <lane id="1000709_0" index="0" speed="13.89" length="16.63" shape="843.92,2772.63 849.58,2769.03"/>
    </edge>
    <edge id="1000710" from="605000049" to="605000045" priority="-1" type="200" spreadType="center" shape="848.47,2762.48 905.18,2680.63">
        <lane id="1000710_0" index="0" speed="13.89" length="125.59" shape="847.11,2761.54 903.83,2679.69"/>
        <lane id="1000710_1" index="1" speed="13.89" length="125.59" shape="849.83,2763.42 906.54,2681.57"/>
    </edge>
    <edge id="1000711" from="605000034" to="605000049" priority="-1" type="200" spreadType="center" shape="839.31,2768.96 845.67,2764.82">
        <lane id="1000711_0" index="0" speed="13.89" length="15.75" shape="839.31,2768.96 842.65,2766.78"/>
    </edge>
    <edge id="1000712" from="605000045" to="605000037" priority="-1" type="200" spreadType="center" shape="908.42,2654.66 878.93,2623.99">
        <lane id="1000712_0" index="0" speed="13.89" length="61.55" shape="907.23,2655.80 877.74,2625.14"/>
        <lane id="1000712_1" index="1" speed="13.89" length="61.55" shape="909.61,2653.51 880.12,2622.85"/>
    </edge>
    <edge id="1000714+1000713" from="605000038" to="605000045" priority="0" spreadType="center" shape="883.74,2616.51 925.38,2662.36">
        <lane id="1000714+1000713_0" index="0" speed="13.89" length="62.25" shape="886.30,2614.42 916.12,2647.25"/>
        <lane id="1000714+1000713_1" index="1" speed="13.89" length="62.25" shape="883.86,2616.64 913.74,2649.54"/>
        <lane id="1000714+1000713_2" index="2" speed="13.89" length="62.25" shape="881.42,2618.86 911.36,2651.83"/>
    </edge>
    <edge id="11" from="605000021" to="605000022" name="Gleiwitzer Strasse/ (59394061)" priority="-1" type="82" spreadType="center" shape="2699.27,342.86 2899.14,85.00">
        <lane id="11_0" index="0" speed="13.89" length="346.50" shape="2699.27,342.86 2899.14,85.00"/>
    </edge>
    <edge id="12" from="605000022" to="605000021" name="Gleiwitzer Strasse/ (59394061)" priority="-1" type="82" spreadType="center" shape="2901.90,87.15 2702.03,345.00">
        <lane id="12_0" index="0" speed="13.89" length="346.02" shape="2901.90,87.15 2702.03,345.00"/>
    </edge>
    <edge id="13" from="605000022" to="605000023" name="VISUM Strecke 59394070" priority="-1" type="85" spreadType="center" shape="2913.45,70.91 2933.61,55.79">
        <lane id="13_0" index="0" speed="13.89" length="45.56" shape="2913.45,70.91 2933.61,55.79"/>
    </edge>
    <edge id="14" from="605000023" to="605000022" name="VISUM Strecke 59394070" priority="-1" type="85" spreadType="center" shape="2935.71,58.59 2915.55,73.71">
        <lane id="14_0" index="0" speed="13.89" length="44.80" shape="2935.71,58.59 2915.55,73.71"/>
    </edge>
    <edge id="15" from="605000024" to="605000025" name="Am Tower/ (83535600)" priority="-1" type="85" spreadType="center" shape="3287.56,5.00 3186.27,3.51 3130.62,16.25">
        <lane id="15_0" index="0" speed="13.89" length="168.97" shape="3287.56,5.00 3186.27,3.51 3130.62,16.25"/>
    </edge>
    <edge id="16" from="605000025" to="605000024" name="Am Tower/ (83535600)" priority="-1" type="85" spreadType="center" shape="3129.84,12.84 3185.90,0.00 3287.61,1.50">
        <lane id="16_0" index="0" speed="13.89" length="168.36" shape="3129.84,12.84 3185.90,0.00 3287.61,1.50"/>
    </edge>
    <edge id="17" from="605000025" to="605000026" name="VISUM Strecke 83535603" priority="-1" type="86" spreadType="center" shape="3121.54,26.76 3121.19,31.17 3101.19,29.17">
        <lane id="17_0" index="0" speed="13.89" length="38.94" shape="3121.54,26.76 3121.19,31.17 3104.87,29.54"/>
    </edge>
    <edge id="18" from="605000026" to="605000025" name="VISUM Strecke 83535603" priority="-1" type="100" spreadType="center" shape="3105.21,26.06 3117.98,27.33 3118.05,26.48">
        <lane id="18_0" index="0" speed="13.89" length="33.18" shape="3105.21,26.06 3117.98,27.33 3118.05,26.48"/>
    </edge>
    <edge id="19" from="605000023" to="605000026" name="VISUM Strecke 545279717" priority="-1" type="85" spreadType="center" shape="2950.62,45.21 2971.49,34.59 3034.38,20.50 3086.67,20.08">
        <lane id="19_0" index="0" speed="13.89" length="158.80" shape="2950.62,45.21 2971.49,34.59 3034.38,20.50 3048.27,20.39"/>
    </edge>
    <edge id="2" from="605000011" to="605000010" name="Breslauer Strasse/ (53091482)" priority="-1" type="83" spreadType="center" shape="23.67,1844.39 0.00,1832.37">
        <lane id="2_0" index="0" speed="13.89" length="36.77" shape="22.93,1845.86 -0.75,1833.85"/>
        <lane id="2_1" index="1" speed="13.89" length="36.77" shape="24.42,1842.92 0.75,1830.90"/>
    </edge>
    <edge id="20" from="605000026" to="605000023" name="VISUM Strecke 545279717" priority="-1" type="85" spreadType="center" shape="3086.70,23.58 3034.79,24.00 2972.68,37.91 2952.20,48.33">
        <lane id="20_0" index="0" speed="13.89" length="156.65" shape="3048.30,23.89 3034.79,24.00 2972.68,37.91 2952.20,48.33"/>
    </edge>
    <edge id="21" from="605000027" to="605000028" name="VISUM Strecke 545285123" priority="-1" type="84" spreadType="center" shape="1555.01,3050.00 1563.09,3031.80 1615.35,2972.01 1667.41,2926.96 1755.42,2842.44 1778.87,2823.07 1911.38,2807.51">
        <lane id="21_0" index="0" speed="13.89" length="460.31" shape="1555.01,3050.00 1563.09,3031.80 1615.35,2972.01 1667.41,2926.96 1755.42,2842.44 1778.87,2823.07 1911.28,2807.53"/>
    </edge>
    <edge id="22" from="605000028" to="605000027" name="VISUM Strecke 545285123" priority="-1" type="84" spreadType="center" shape="1911.79,2810.99 1780.30,2826.43 1757.75,2845.06 1669.76,2929.55 1617.82,2974.50 1566.08,3033.70 1558.20,3051.42">
        <lane id="22_0" index="0" speed="13.89" length="460.06" shape="1911.69,2811.00 1780.30,2826.43 1757.75,2845.06 1669.76,2929.55 1617.82,2974.50 1566.08,3033.70 1558.20,3051.42"/>
    </edge>
    <edge id="23" from="605000015" to="605000016" name="VISUM Strecke 545285124" priority="-1" type="83" spreadType="center" shape="1645.31,1748.64 1537.92,1885.30 1439.97,2032.94">
        <lane id="23_0" index="0" speed="13.89" length="372.20" shape="1646.61,1749.66 1539.26,1886.27 1441.35,2033.85"/>
        <lane id="23_1" index="1" speed="13.89" length="372.20" shape="1644.01,1747.63 1536.58,1884.34 1438.60,2032.03"/>
    </edge>
    <edge id="24" from="605000016" to="605000015" name="VISUM Strecke 545285124" priority="-1" type="83" spreadType="center" shape="1434.14,2029.07 1532.25,1881.20 1639.81,1744.32">
        <lane id="24_0" index="0" speed="13.89" length="372.25" shape="1432.77,2028.16 1530.91,1880.23 1638.51,1743.30"/>
        <lane id="24_1" index="1" speed="13.89" length="372.25" shape="1435.52,2029.98 1533.58,1882.17 1641.10,1745.34"/>
    </edge>
    <edge id="25" from="605000029" to="605000030" name="Gleiwitzer Strasse/ (905001099)" priority="-1" type="83" spreadType="center" shape="332.02,3240.75 300.70,3327.65 79.86,3567.83">
        <lane id="25_0" index="0" speed="13.89" length="438.54" shape="333.57,3241.31 302.14,3328.52 81.08,3568.95"/>
        <lane id="25_1" index="1" speed="13.89" length="438.54" shape="330.47,3240.19 299.26,3326.78 78.65,3566.72"/>
    </edge>
    <edge id="26" from="605000030" to="605000029" name="Gleiwitzer Strasse/ (905001099)" priority="-1" type="83" spreadType="center" shape="74.71,3563.10 294.59,3323.95 325.43,3238.38">
        <lane id="26_0" index="0" speed="13.89" length="437.54" shape="73.49,3561.98 293.16,3323.08 323.88,3237.82"/>
        <lane id="26_1" index="1" speed="13.89" length="437.54" shape="75.92,3564.21 296.03,3324.82 326.99,3238.94"/>
    </edge>
    <edge id="27" from="605000031" to="605000032" name="VISUM Strecke 905001109" priority="-1" type="81" spreadType="center" shape="561.28,2951.39 480.50,2886.12 411.52,2832.64 302.53,2750.65">
        <lane id="27_0" index="0" speed="13.89" length="334.36" shape="561.28,2951.39 480.50,2886.12 411.52,2832.64 302.53,2750.65"/>
    </edge>
    <edge id="28" from="605000032" to="605000031" name="VISUM Strecke 905001109" priority="-1" type="81" spreadType="center" shape="304.64,2747.85 413.65,2829.86 482.67,2883.38 563.48,2948.67">
        <lane id="28_0" index="0" speed="13.89" length="338.28" shape="304.64,2747.85 413.65,2829.86 482.67,2883.38 563.48,2948.67"/>
    </edge>
    <edge id="29" from="605000012" to="605000011" name="VISUM Strecke 905002541" priority="-1" type="83" spreadType="center" shape="460.56,2219.84 357.63,2119.24 227.31,1989.43 96.54,1894.59 67.05,1873.60 40.11,1854.35">
        <lane id="29_0" index="0" speed="13.89" length="579.43" shape="459.40,2221.02 356.47,2120.42 226.23,1990.69 95.58,1895.94 66.09,1874.95 39.15,1855.70"/>
        <lane id="29_1" index="1" speed="13.89" length="579.43" shape="461.71,2218.66 358.78,2118.07 228.38,1988.17 97.50,1893.25 68.01,1872.26 41.06,1853.01"/>
    </edge>
    <edge id="3" from="605000012" to="605000013" name="VISUM Strecke 53091559" priority="-1" type="83" spreadType="center" shape="479.61,2228.67 720.95,2464.33">
        <lane id="3_0" index="0" speed="13.89" length="358.28" shape="480.76,2227.49 722.10,2463.15"/>
        <lane id="3_1" index="1" speed="13.89" length="358.28" shape="478.46,2229.85 719.79,2465.51"/>
    </edge>
    <edge id="30" from="605000011" to="605000012" name="VISUM Strecke 905002541" priority="-1" type="83" spreadType="center" shape="44.17,1848.66 71.12,1867.90 100.63,1888.91 231.86,1984.08 362.54,2114.26 465.45,2214.83">
        <lane id="30_0" index="0" speed="13.89" length="581.01" shape="45.13,1847.32 72.07,1866.56 101.59,1887.57 232.93,1982.82 363.70,2113.09 466.60,2213.65"/>
        <lane id="30_1" index="1" speed="13.89" length="581.01" shape="43.21,1850.00 70.16,1869.25 99.66,1890.25 230.79,1985.34 361.38,2115.44 464.30,2216.01"/>
    </edge>
    <edge id="31" from="605000033" to="605000031" name="VISUM Strecke 905002548" priority="-1" type="83" spreadType="center" shape="842.58,2776.01 771.15,2854.13 726.65,2901.67 660.83,2930.53 580.58,2956.53">
        <lane id="31_0" index="0" speed="13.89" length="338.90" shape="835.50,2786.20 772.36,2855.25 727.62,2903.05 661.42,2932.07 581.09,2958.10"/>
        <lane id="31_1" index="1" speed="13.89" length="338.90" shape="833.06,2783.97 769.94,2853.01 725.68,2900.29 660.24,2928.98 580.07,2954.96"/>
    </edge>
    <edge id="32" from="605000031" to="605000034" name="VISUM Strecke 905002548" priority="-1" type="83" spreadType="center" shape="578.42,2949.87 658.34,2923.98 722.52,2895.84 766.02,2849.38 835.93,2773.21">
        <lane id="32_0" index="0" speed="13.89" length="331.56" shape="577.91,2948.30 657.75,2922.43 721.55,2894.46 764.81,2848.25 827.81,2779.61"/>
        <lane id="32_1" index="1" speed="13.89" length="331.56" shape="578.93,2951.44 658.93,2925.52 723.49,2897.21 767.23,2850.50 830.25,2781.84"/>
    </edge>
    <edge id="33" from="605000017" to="605000035" name="VISUM Strecke 905002550" priority="-1" type="83" spreadType="center" shape="1190.76,2309.72 1158.60,2382.07 1075.38,2487.86 1056.89,2513.35 981.52,2610.68">
        <lane id="33_0" index="0" speed="13.89" length="378.18" shape="1192.27,2310.39 1160.03,2382.93 1076.69,2488.86 1058.21,2514.34 983.14,2611.29"/>
        <lane id="33_1" index="1" speed="13.89" length="378.18" shape="1189.25,2309.05 1157.18,2381.22 1074.06,2486.87 1055.57,2512.36 980.53,2609.27"/>
    </edge>
    <edge id="34" from="605000036" to="605000017" name="VISUM Strecke 905002550" priority="-1" type="83" spreadType="center" shape="973.60,2610.22 1051.28,2509.16 1069.79,2483.64 1152.56,2378.43 1184.37,2306.88">
        <lane id="34_0" index="0" speed="13.89" length="388.64" shape="977.42,2602.56 1049.96,2508.17 1068.47,2482.65 1151.14,2377.57 1182.86,2306.21"/>
        <lane id="34_1" index="1" speed="13.89" length="388.64" shape="980.03,2604.57 1052.60,2510.15 1071.11,2484.64 1153.99,2379.29 1185.87,2307.55"/>
    </edge>
    <edge id="35" from="605000037" to="605000013" name="VISUM Strecke 905002551" priority="-1" type="83" spreadType="center" shape="875.85,2621.08 801.67,2550.29 730.39,2483.09">
        <lane id="35_0" index="0" speed="13.89" length="213.15" shape="874.71,2622.27 800.54,2551.49 729.26,2484.29"/>
        <lane id="35_1" index="1" speed="13.89" length="213.15" shape="876.99,2619.88 802.81,2549.09 731.52,2481.89"/>
    </edge>
    <edge id="36" from="605000013" to="605000038" name="VISUM Strecke 905002551" priority="-1" type="83" spreadType="center" shape="736.39,2476.72 807.70,2543.94 884.45,2617.19">
        <lane id="36_0" index="0" speed="13.89" length="214.27" shape="738.65,2474.32 809.97,2541.55 885.89,2614.00"/>
        <lane id="36_1" index="1" speed="13.89" length="214.27" shape="736.39,2476.72 807.70,2543.94 883.61,2616.39"/>
        <lane id="36_2" index="2" speed="13.89" length="214.27" shape="734.13,2479.13 805.43,2546.34 881.34,2618.78"/>
    </edge>
    <edge id="37" from="605000021" to="605000039" name="VISUM Strecke 905002586" priority="-1" type="82" spreadType="center" shape="2689.98,360.69 2414.47,722.93">
        <lane id="37_0" index="0" speed="13.89" length="474.49" shape="2689.98,360.69 2414.47,722.93"/>
    </edge>
    <edge id="38" from="605000039" to="605000021" name="VISUM Strecke 905002586" priority="-1" type="82" spreadType="center" shape="2411.68,720.81 2687.20,358.57">
        <lane id="38_0" index="0" speed="13.89" length="474.51" shape="2411.68,720.81 2687.20,358.57"/>
    </edge>
    <edge id="39" from="605000040" to="605000030" name="VISUM Strecke 905005134" priority="-1" type="100" spreadType="center" shape="17.23,3638.62 35.98,3627.24 62.69,3579.67">
        <lane id="39_0" index="0" speed="13.89" length="97.04" shape="16.37,3637.21 34.76,3626.05 61.25,3578.86"/>
        <lane id="39_1" index="1" speed="13.89" length="97.04" shape="18.09,3640.03 37.21,3628.42 64.12,3580.48"/>
    </edge>
    <edge id="4" from="605000013" to="605000012" name="VISUM Strecke 53091559" priority="-1" type="83" spreadType="center" shape="716.06,2469.34 474.72,2233.67">
        <lane id="4_0" index="0" speed="13.89" length="358.34" shape="714.90,2470.52 473.57,2234.85"/>
        <lane id="4_1" index="1" speed="13.89" length="358.34" shape="717.21,2468.16 475.87,2232.49"/>
    </edge>
    <edge id="40" from="605000030" to="605000040" name="VISUM Strecke 905005134" priority="-1" type="83" spreadType="center" shape="68.79,3583.10 41.19,3632.27 20.86,3644.61">
        <lane id="40_0" index="0" speed="13.89" length="95.21" shape="70.23,3583.91 42.41,3633.45 21.72,3646.02"/>
        <lane id="40_1" index="1" speed="13.89" length="95.21" shape="67.35,3582.29 39.96,3631.08 20.01,3643.20"/>
    </edge>
    <edge id="41" from="605000041" to="605000040" name="VISUM Strecke 905005137" priority="-1" type="83" spreadType="center" shape="102.61,4144.80 118.58,4021.04 118.09,3954.02 107.66,3882.00 79.80,3787.49 36.51,3693.44 13.00,3656.97">
        <lane id="41_0" index="0" speed="13.89" length="526.78" shape="100.98,4144.59 116.93,4020.94 116.44,3954.14 106.04,3882.36 78.25,3788.07 35.06,3694.24 11.62,3657.86"/>
        <lane id="41_1" index="1" speed="13.89" length="526.78" shape="104.25,4145.02 120.23,4021.14 119.74,3953.89 109.27,3881.65 81.35,3786.90 37.96,3692.65 14.39,3656.08"/>
    </edge>
    <edge id="42" from="605000040" to="605000041" name="VISUM Strecke 905005137" priority="-1" type="83" spreadType="center" shape="18.89,3653.18 42.66,3690.06 86.37,3785.02 114.51,3880.50 125.08,3953.49 125.59,4021.46 109.55,4145.70">
        <lane id="42_0" index="0" speed="13.89" length="519.95" shape="20.28,3652.29 44.11,3689.27 87.92,3784.44 116.13,3880.15 126.73,3953.36 127.24,4021.56 111.19,4145.91"/>
        <lane id="42_1" index="1" speed="13.89" length="519.95" shape="17.50,3654.07 41.21,3690.86 84.82,3785.60 112.90,3880.86 123.43,3953.61 123.94,4021.37 107.92,4145.49"/>
    </edge>
    <edge id="43" from="605000027" to="605000042" name="VISUM Strecke 905005456" priority="-1" type="84" spreadType="center" shape="1563.07,3059.13 1742.80,3110.96 1800.89,3137.23 1852.02,3176.21 1897.53,3230.82 1952.74,3340.73 2050.74,3553.24 2056.71,3565.19">
        <lane id="43_0" index="0" speed="13.89" length="765.75" shape="1563.52,3057.55 1743.37,3109.41 1801.74,3135.80 1853.17,3175.01 1898.92,3229.91 1954.22,3340.02 2052.23,3552.52 2058.15,3564.36"/>
        <lane id="43_1" index="1" speed="13.89" length="765.75" shape="1562.61,3060.72 1742.22,3112.51 1800.04,3138.65 1850.87,3177.41 1896.14,3231.73 1951.25,3341.45 2049.25,3553.95 2055.19,3565.84"/>
    </edge>
    <edge id="44" from="605000042" to="605000027" name="VISUM Strecke 905005456" priority="-1" type="84" spreadType="center" shape="2050.45,3568.32 2044.43,3556.27 1946.43,3343.77 1891.64,3234.68 1847.15,3181.30 1797.28,3143.28 1740.37,3117.55 1561.13,3065.86">
        <lane id="44_0" index="0" speed="13.89" length="769.43" shape="2048.98,3569.06 2042.94,3556.98 1944.94,3344.49 1890.25,3235.59 1846.00,3182.50 1796.43,3144.70 1739.80,3119.10 1560.67,3067.44"/>
        <lane id="44_1" index="1" speed="13.89" length="769.43" shape="2051.88,3567.49 2045.92,3555.55 1947.92,3343.06 1893.03,3233.77 1848.30,3180.10 1798.13,3141.85 1740.94,3115.99 1561.58,3064.27"/>
    </edge>
    <edge id="45" from="605000043" to="605000039" name="VISUM Strecke 905005617" priority="-1" type="83" spreadType="center" shape="2154.74,1059.24 2398.33,735.56">
        <lane id="45_0" index="0" speed="13.89" length="426.81" shape="2153.42,1058.25 2397.02,734.57"/>
        <lane id="45_1" index="1" speed="13.89" length="426.81" shape="2156.06,1060.23 2399.65,736.55"/>
    </edge>
    <edge id="46" from="605000039" to="605000043" name="VISUM Strecke 905005617" priority="-1" type="83" spreadType="center" shape="2403.93,739.77 2160.33,1063.45">
        <lane id="46_0" index="0" speed="13.89" length="426.77" shape="2405.25,740.76 2161.65,1064.44"/>
        <lane id="46_1" index="1" speed="13.89" length="426.77" shape="2402.61,738.78 2159.02,1062.46"/>
    </edge>
    <edge id="47" from="605000027" to="605000019" name="VISUM Strecke 905005626" priority="-1" type="83" spreadType="center" shape="1542.10,3060.36 1288.94,2987.06 1228.70,2962.77 1177.58,2916.49">
        <lane id="47_0" index="0" speed="13.89" length="422.83" shape="1541.64,3061.95 1288.40,2988.63 1227.81,2964.19 1176.47,2917.71"/>
        <lane id="47_1" index="1" speed="13.89" length="422.83" shape="1542.56,3058.78 1289.48,2985.50 1229.59,2961.35 1178.68,2915.27"/>
    </edge>
    <edge id="48" from="605000019" to="605000027" name="VISUM Strecke 905005626" priority="-1" type="83" spreadType="center" shape="1182.27,2911.30 1232.47,2956.74 1291.23,2980.44 1544.05,3053.64">
        <lane id="48_0" index="0" speed="13.89" length="415.03" shape="1183.38,2910.08 1233.36,2955.32 1291.77,2978.88 1544.51,3052.05"/>
        <lane id="48_1" index="1" speed="13.89" length="415.03" shape="1181.16,2912.53 1231.58,2958.16 1290.69,2982.00 1543.59,3055.22"/>
    </edge>
    <edge id="49" from="605000031" to="605000029" name="VISUM Strecke 905006034" priority="-1" type="83" spreadType="center" shape="564.02,2964.82 518.04,2997.30 494.35,3028.39 340.94,3224.61">
        <lane id="49_0" index="0" speed="13.89" length="364.90" shape="564.97,2966.17 519.20,2998.50 495.66,3029.40 342.24,3225.63"/>
        <lane id="49_1" index="1" speed="13.89" length="364.90" shape="563.07,2963.48 516.88,2996.10 493.05,3027.38 339.64,3223.59"/>
    </edge>
    <edge id="5" from="605000014" to="605000015" name="VISUM Strecke 53091615" priority="-1" type="83" spreadType="center" shape="1748.16,1619.18 1657.58,1733.13">
        <lane id="5_0" index="0" speed="13.89" length="166.61" shape="1749.45,1620.21 1658.87,1734.15"/>
        <lane id="5_1" index="1" speed="13.89" length="166.61" shape="1746.87,1618.15 1656.29,1732.10"/>
    </edge>
    <edge id="50" from="605000029" to="605000031" name="VISUM Strecke 905006034" priority="-1" type="83" spreadType="center" shape="335.42,3220.30 488.81,3024.11 513.13,2992.20 559.98,2959.11">
        <lane id="50_0" index="0" speed="13.89" length="365.90" shape="334.13,3219.28 487.51,3023.11 511.97,2991.00 559.03,2957.76"/>
        <lane id="50_1" index="1" speed="13.89" length="365.90" shape="336.72,3221.31 490.12,3025.12 514.28,2993.41 560.93,2960.45"/>
    </edge>
    <edge id="51" from="605000014" to="605000043" name="VISUM Strecke 905006042" priority="-1" type="83" spreadType="center" shape="1754.66,1599.21 2142.88,1075.12">
        <lane id="51_0" index="0" speed="13.89" length="673.17" shape="1753.34,1598.23 2141.55,1074.14"/>
        <lane id="51_1" index="1" speed="13.89" length="673.17" shape="1755.99,1600.20 2144.20,1076.11"/>
    </edge>
    <edge id="52" from="605000043" to="605000014" name="VISUM Strecke 905006042" priority="-1" type="83" spreadType="center" shape="2148.50,1079.29 1760.29,1603.38">
        <lane id="52_0" index="0" speed="13.89" length="673.26" shape="2149.83,1080.27 1761.61,1604.36"/>
        <lane id="52_1" index="1" speed="13.89" length="673.26" shape="2147.18,1078.31 1758.96,1602.40"/>
    </edge>
    <edge id="53" from="605000044" to="605000019" name="VISUM Strecke 905006352" priority="-1" type="100" spreadType="center" shape="1238.96,2825.33 1180.07,2900.54">
        <lane id="53_0" index="0" speed="13.89" length="105.25" shape="1238.90,2825.41 1180.07,2900.54"/>
    </edge>
    <edge id="54" from="605000019" to="605000044" name="VISUM Strecke 905006352" priority="-1" type="100" spreadType="center" shape="1177.31,2898.38 1236.21,2823.17">
        <lane id="54_0" index="0" speed="13.89" length="101.71" shape="1177.31,2898.38 1236.14,2823.25"/>
    </edge>
    <edge id="6" from="605000015" to="605000014" name="VISUM Strecke 53091615" priority="-1" type="83" spreadType="center" shape="1652.10,1728.77 1742.68,1614.82">
        <lane id="6_0" index="0" speed="13.89" length="166.52" shape="1650.81,1727.74 1741.39,1613.80"/>
        <lane id="6_1" index="1" speed="13.89" length="166.52" shape="1653.39,1729.80 1743.97,1615.85"/>
    </edge>
    <edge id="7" from="605000016" to="605000017" name="VISUM Strecke 53091628" priority="-1" type="83" spreadType="center" shape="1427.44,2048.90 1200.87,2294.35">
        <lane id="7_0" index="0" speed="13.89" length="354.59" shape="1428.65,2050.02 1202.08,2295.47"/>
        <lane id="7_1" index="1" speed="13.89" length="354.59" shape="1426.23,2047.78 1199.66,2293.23"/>
    </edge>
    <edge id="8" from="605000017" to="605000016" name="VISUM Strecke 53091628" priority="-1" type="83" spreadType="center" shape="1195.73,2289.60 1422.30,2044.15">
        <lane id="8_0" index="0" speed="13.89" length="355.14" shape="1194.51,2288.48 1421.08,2043.03"/>
        <lane id="8_1" index="1" speed="13.89" length="355.14" shape="1196.94,2290.72 1423.51,2045.27"/>
    </edge>
    <edge id="9" from="605000018" to="605000019" name="VISUM Strecke 53091655" priority="-1" type="83" spreadType="center" shape="1086.76,2821.05 1167.81,2897.90">
        <lane id="9_0" index="0" speed="13.89" length="121.18" shape="1087.89,2819.85 1168.94,2896.70"/>
        <lane id="9_1" index="1" speed="13.89" length="121.18" shape="1085.62,2822.25 1166.67,2899.10"/>
    </edge>

    <tlLogic id="1" type="static" programID="0" offset="0">
        <phase duration="10" state="yyrrrryyyyrrrrrG"/>
        <phase duration="1" state="rrrrrrrrrrrrrrrG"/>
        <phase duration="7" state="rrrrrrrrrrGGGGGG"/>
        <phase duration="4" state="rrrrrrrrrrGGGrrG"/>
        <phase duration="5" state="rrrrrrrrrryyyyyG"/>
        <phase duration="1" state="rrGggrrrrryyyyyG"/>
        <phase duration="2" state="rrGggrrrrryyyrrG"/>