<?xml version="1.0" encoding="UTF-8"?>

<!-- generated on Mon Nov 30 13:47:10 2020 by Eclipse SUMO sumo Version v1_7_0+1356-7931c8a7ef
This data file and the accompanying materials
are made available under the terms of the Eclipse Public License v2.0
which accompanies this distribution, and is available at
http://www.eclipse.org/legal/epl-v20.html
SPDX-License-Identifier: EPL-2.0
<configuration xmlns:xsi="http://www.w3.org/2001/XMLSchema-instance" xsi:noNamespaceSchemaLocation="http://sumo.dlr.de/xsd/sumoConfiguration.xsd">

    <input>
        <net-file value="three_split.net.xml"/>
        <route-files value="input_routes.rou.xml"/>
    </input>

    <output>
        <write-license value="true"/>
        <tripinfo-output value="tripinfos.xml"/>
        <stop-output value="stopinfos.xml"/>
    </output>

    <processing>
        <default.speeddev value="0"/>
        <pedestrian.model value="nonInteracting"/>
    </processing>

    <report>
        <xml-validation value="never"/>
        <xml-validation.routes value="never"/>
        <duration-log.disable value="true"/>
        <no-step-log value="true"/>
    </report>

    <mesoscopic>
        <mesosim value="true"/>
    </mesoscopic>

</configuration>
-->

<stops xmlns:xsi="http://www.w3.org/2001/XMLSchema-instance" xsi:noNamespaceSchemaLocation="http://sumo.dlr.de/xsd/stopinfo_file.xsd">
    <stopinfo id="v1" type="DEFAULT_VEHTYPE" edge="beg" pos="0.00" parking="0" started="0.00" ended="14.00" delay="-1.00" initialPersons="1" loadedPersons="3" unloadedPersons="0" initialContainers="0" loadedContainers="0" unloadedContainers="0"/>
    <stopinfo id="v1" type="DEFAULT_VEHTYPE" edge="middle" pos="0.00" parking="0" started="27.99" ended="42.00" delay="-1.00" initialPersons="4" loadedPersons="0" unloadedPersons="3" initialContainers="0" loadedContainers="0" unloadedContainers="0"/>
    <stopinfo id="v1" type="DEFAULT_VEHTYPE" edge="middle" pos="800.00" parking="0" started="66.76" ended="81.00" delay="-1.00" initialPersons="1" loadedPersons="0" unloadedPersons="1" initialContainers="0" loadedContainers="0" unloadedContainers="0"/>
</stops>
