<?xml version="1.0" encoding="UTF-8"?>

<!-- generated on 2024-07-05 12:04:47 by Eclipse SUMO sumo Version v1_20_0+1027-165979bd8ee
<sumoConfiguration xmlns:xsi="http://www.w3.org/2001/XMLSchema-instance" xsi:noNamespaceSchemaLocation="http://sumo.dlr.de/xsd/sumoConfiguration.xsd">

    <input>
        <net-file value="input_net.net.xml"/>
        <route-files value="input_routes.rou.xml"/>
        <additional-files value="input_additional.add.xml"/>
    </input>

    <output>
        <fcd-output value="fcd.xml"/>
    </output>

    <report>
        <no-step-log value="true"/>
    </report>

    <traci_server>
        <remote-port value="49771"/>
    </traci_server>

</sumoConfiguration>
-->

<ToCDeviceLog>
    <ToCup id="ToC_veh" t="2.00" lane=":2/1_0_0" lanePos="1.57" x="2878.05" y="2448.76"/>
    <TOR id="ToC_veh" t="3.00" lane="2/1to3/1_0" lanePos="3.76" x="2874.41" y="2451.43"/>
    <MRM id="ToC_veh" t="3.00" lane="2/1to3/1_0" lanePos="3.76" x="2874.41" y="2451.43"/>
    <ToCdown id="ToC_veh" t="26.00" lane="2/1to3/1_0" lanePos="13.62" x="2866.43" y="2457.23"/>
    <ToCup id="ToC_veh" t="152.00" lane="5/1to6/1_0" lanePos="480.34" x="150.34" y="1989.93"/>
    <TOR id="ToC_veh" t="152.00" lane="5/1to6/1_0" lanePos="480.34" x="150.34" y="1989.93"/>
    <ToCup id="ToC_veh" t="152.00" lane="5/1to6/1_0" lanePos="480.34" x="150.34" y="1989.93"/>
    <TOR id="ToC_veh" t="152.00" lane="5/1to6/1_0" lanePos="480.34" x="150.34" y="1989.93"/>
    <ToCup id="ToC_veh" t="152.00" lane="5/1to6/1_0" lanePos="480.34" x="150.34" y="1989.93"/>
    <TOR id="ToC_veh" t="153.00" lane="5/1to6/1_0" lanePos="512.30" x="140.46" y="1959.54"/>
    <ToCup id="ToC_veh" t="153.00" lane="5/1to6/1_0" lanePos="512.30" x="140.46" y="1959.54"/>
    <TOR id="ToC_veh" t="153.00" lane="5/1to6/1_0" lanePos="512.30" x="140.46" y="1959.54"/>
    <ToCup id="ToC_veh" t="153.00" lane="5/1to6/1_0" lanePos="512.30" x="140.46" y="1959.54"/>
    <TOR id="ToC_veh" t="153.00" lane="5/1to6/1_0" lanePos="512.30" x="140.46" y="1959.54"/>
    <MRM id="ToC_veh" t="163.00" lane="5/1to6/1_0" lanePos="831.83" x="41.72" y="1655.65"/>
    <ToCdown id="ToC_veh" t="176.00" lane="6/1to7/1_0" lanePos="169.47" x="47.66" y="1348.55"/>
    <ToCup id="ToC_veh" t="202.00" lane="6/1to7/1_0" lanePos="561.63" x="168.84" y="975.58"/>
    <TOR id="ToC_veh" t="203.00" lane="6/1to7/1_0" lanePos="579.87" x="174.48" y="958.23"/>
    <MRM id="ToC_veh" t="213.00" lane="6/1to7/1_0" lanePos="762.27" x="230.84" y="784.75"/>
    <ToCdown id="ToC_veh" t="226.00" lane="6/1to7/1_0" lanePos="905.79" x="275.19" y="648.26"/>
    <ToCup id="ToC_veh" t="352.00" lane="8/1to9/1_0" lanePos="796.21" x="1894.17" y="-4.95"/>
    <TOR id="ToC_veh" t="352.00" lane="8/1to9/1_0" lanePos="796.21" x="1894.17" y="-4.95"/>
    <ToCup id="ToC_veh" t="352.00" lane="8/1to9/1_0" lanePos="796.21" x="1894.17" y="-4.95"/>
    <TOR id="ToC_veh" t="352.00" lane="8/1to9/1_0" lanePos="796.21" x="1894.17" y="-4.95"/>
    <ToCup id="ToC_veh" t="352.00" lane="8/1to9/1_0" lanePos="796.21" x="1894.17" y="-4.95"/>
    <TOR id="ToC_veh" t="353.00" lane="8/1to9/1_0" lanePos="813.52" x="1911.48" y="-4.95"/>
    <ToCup id="ToC_veh" t="353.00" lane="8/1to9/1_0" lanePos="813.52" x="1911.48" y="-4.95"/>
    <TOR id="ToC_veh" t="353.00" lane="8/1to9/1_0" lanePos="813.52" x="1911.48" y="-4.95"/>
    <ToCup id="ToC_veh" t="353.00" lane="8/1to9/1_0" lanePos="813.52" x="1911.48" y="-4.95"/>
    <TOR id="ToC_veh" t="353.00" lane="8/1to9/1_0" lanePos="813.52" x="1911.48" y="-4.95"/>
    <MRM id="ToC_veh" t="363.00" lane="9/1to10/1_0" lanePos="2.50" x="2084.95" y="-2.54"/>
    <ToCdown id="ToC_veh" t="376.00" lane="9/1to10/1_0" lanePos="133.98" x="2191.32" y="74.74"/>
    <ToCup id="ToC_veh" t="402.00" lane="9/1to10/1_0" lanePos="727.50" x="2671.49" y="423.60"/>
    <TOR id="ToC_veh" t="403.00" lane="9/1to10/1_0" lanePos="758.89" x="2696.88" y="442.05"/>
    <MRM id="ToC_veh" t="423.00" lane="10/1to1/1_0" lanePos="402.52" x="3003.62" y="958.51"/>
    <ToCdown id="ToC_veh" t="426.00" lane="10/1to1/1_0" lanePos="493.09" x="3031.60" y="1044.65"/>
    <ToCup id="ToC_veh" t="552.00" lane="2/1to3/1_0" lanePos="439.63" x="2521.79" y="2707.62"/>
    <TOR id="ToC_veh" t="552.00" lane="2/1to3/1_0" lanePos="439.63" x="2521.79" y="2707.62"/>
    <ToCup id="ToC_veh" t="552.00" lane="2/1to3/1_0" lanePos="439.63" x="2521.79" y="2707.62"/>
    <TOR id="ToC_veh" t="552.00" lane="2/1to3/1_0" lanePos="439.63" x="2521.79" y="2707.62"/>
    <ToCup id="ToC_veh" t="552.00" lane="2/1to3/1_0" lanePos="439.63" x="2521.79" y="2707.62"/>
    <TOR id="ToC_veh" t="553.00" lane="2/1to3/1_0" lanePos="457.58" x="2507.26" y="2718.17"/>
    <ToCup id="ToC_veh" t="553.00" lane="2/1to3/1_0" lanePos="457.58" x="2507.26" y="2718.17"/>
    <TOR id="ToC_veh" t="553.00" lane="2/1to3/1_0" lanePos="457.58" x="2507.26" y="2718.17"/>
    <ToCup id="ToC_veh" t="553.00" lane="2/1to3/1_0" lanePos="457.58" x="2507.26" y="2718.17"/>
    <TOR id="ToC_veh" t="553.00" lane="2/1to3/1_0" lanePos="457.58" x="2507.26" y="2718.17"/>
    <MRM id="ToC_veh" t="563.00" lane="2/1to3/1_0" lanePos="637.09" x="2362.04" y="2823.69"/>
    <ToCdown id="ToC_veh" t="576.00" lane="2/1to3/1_0" lanePos="776.86" x="2248.96" y="2905.84"/>
    <ToCup id="ToC_veh" t="602.00" lane="3/1to4/1_0" lanePos="153.78" x="1926.27" y="3027.41"/>
    <TOR id="ToC_veh" t="603.00" lane="3/1to4/1_0" lanePos="171.89" x="1908.16" y="3027.41"/>
    <ToCdown id="ToC_veh" t="626.00" lane="3/1to4/1_0" lanePos="588.45" x="1491.59" y="3027.41"/>
    <ToCup id="ToC_veh" t="752.00" lane="5/1to6/1_0" lanePos="515.75" x="139.40" y="1956.26"/>
    <TOR id="ToC_veh" t="752.00" lane="5/1to6/1_0" lanePos="515.75" x="139.40" y="1956.26"/>
    <ToCup id="ToC_veh" t="752.00" lane="5/1to6/1_0" lanePos="515.75" x="139.40" y="1956.26"/>
    <TOR id="ToC_veh" t="752.00" lane="5/1to6/1_0" lanePos="515.75" x="139.40" y="1956.26"/>
    <ToCup id="ToC_veh" t="752.00" lane="5/1to6/1_0" lanePos="515.75" x="139.40" y="1956.26"/>
    <TOR id="ToC_veh" t="753.00" lane="5/1to6/1_0" lanePos="533.25" x="133.99" y="1939.61"/>
    <ToCup id="ToC_veh" t="753.00" lane="5/1to6/1_0" lanePos="533.25" x="133.99" y="1939.61"/>
    <TOR id="ToC_veh" t="753.00" lane="5/1to6/1_0" lanePos="533.25" x="133.99" y="1939.61"/>
    <ToCup id="ToC_veh" t="753.00" lane="5/1to6/1_0" lanePos="533.25" x="133.99" y="1939.61"/>
    <TOR id="ToC_veh" t="753.00" lane="5/1to6/1_0" lanePos="533.25" x="133.99" y="1939.61"/>
    <MRM id="ToC_veh" t="763.00" lane="5/1to6/1_0" lanePos="708.25" x="79.91" y="1773.18"/>
    <ToCdown id="ToC_veh" t="776.00" lane="5/1to6/1_0" lanePos="842.14" x="38.54" y="1645.84"/>
    <ToCup id="ToC_veh" t="952.00" lane="8/1to9/1_0" lanePos="497.46" x="1595.41" y="-4.95"/>
    <TOR id="ToC_veh" t="952.00" lane="8/1to9/1_0" lanePos="497.46" x="1595.41" y="-4.95"/>
    <ToCup id="ToC_veh" t="952.00" lane="8/1to9/1_0" lanePos="497.46" x="1595.41" y="-4.95"/>
    <TOR id="ToC_veh" t="952.00" lane="8/1to9/1_0" lanePos="497.46" x="1595.41" y="-4.95"/>
    <ToCup id="ToC_veh" t="952.00" lane="8/1to9/1_0" lanePos="497.46" x="1595.41" y="-4.95"/>
    <TOR id="ToC_veh" t="953.00" lane="8/1to9/1_0" lanePos="515.59" x="1613.55" y="-4.95"/>
    <ToCup id="ToC_veh" t="953.00" lane="8/1to9/1_0" lanePos="515.59" x="1613.55" y="-4.95"/>
    <TOR id="ToC_veh" t="953.00" lane="8/1to9/1_0" lanePos="515.59" x="1613.55" y="-4.95"/>
    <ToCup id="ToC_veh" t="953.00" lane="8/1to9/1_0" lanePos="515.59" x="1613.55" y="-4.95"/>
    <TOR id="ToC_veh" t="953.00" lane="8/1to9/1_0" lanePos="515.59" x="1613.55" y="-4.95"/>
    <MRM id="ToC_veh" t="963.00" lane="8/1to9/1_0" lanePos="696.90" x="1794.86" y="-4.95"/>
    <ToCdown id="ToC_veh" t="976.00" lane="8/1to9/1_0" lanePos="839.00" x="1936.96" y="-4.95"/>
</ToCDeviceLog>
