<?xml version="1.0" encoding="UTF-8"?>
<!-- generated on 2021-04-21 08:03:45.143202 by $Id$ v1_9_0+0134-0ecebee5aa
  options: <doubleminus>pedestrians -r input_routes.rou.xml -t input_turns.xml -o out.rou.xml -f probability -I
-->
<routes xmlns:xsi="http://www.w3.org/2001/XMLSchema-instance" xsi:noNamespaceSchemaLocation="http://sumo.dlr.de/xsd/routes_file.xsd">
<!-- begin="0.0" end="99.0" -->
    <route id="0" edges="-109.80.00 -11 -11.80.00 3 3.180.00 27 27.80.00 -27"/> <!-- 1 -->
    <route id="1" edges="-109.80.00 -11 -11.80.00 3 3.180.00 27 27.80.00 -27 -27.80.00"/> <!-- 1 -->
    <route id="3" edges="-11 -11.80.00 15 15.180.00 -123 -123.121.42 -120 -120.180.00"/> <!-- 1 -->
    <route id="4" edges="-11.80.00 3 3.180.00 27 27.80.00 55 71"/> <!-- 1 -->
    <route id="5" edges="-120 -120.180.00 -64 -64.80.00 -31 -31.80.00 -23 -23.80.00 -11 -11.80.00 3 3.180.00 -71 -55 -55.80.00"/> <!-- 1 -->
    <route id="6" edges="-123 -123.121.42 131 131.180.00"/> <!-- 1 -->
    <route id="7" edges="-123.121.42 131"/> <!-- 1 -->
    <route id="9" edges="-144 -144.121.42 -131 -131.180.00 131 131.180.00"/> <!-- 1 -->
    <route id="10" edges="-144 -144.121.42 152"/> <!-- 1 -->
    <route id="11" edges="-144.121.42 144 144.121.42 -15 -15.180.00 5"/> <!-- 1 -->
    <route id="12" edges="-148 -148.80.00 -131 -131.180.00 -109 -109.80.00 23 23.80.00 37 -58 -58.121.42"/> <!-- 1 -->
    <route id="13" edges="-148 -148.80.00 144 144.121.42 -15 -15.180.00 3 3.180.00 -3"/> <!-- 1 -->
    <route id="14" edges="-15 -15.180.00 15 15.180.00"/> <!-- 1 -->
    <route id="15" edges="-15.180.00 11 11.80.00 23 23.80.00 31 31.80.00 64 64.80.00 120"/> <!-- 1 -->
    <route id="16" edges="-152.80.00 -131 -131.180.00 -109 -109.80.00 23 23.80.00 31 31.80.00 64 64.80.00"/> <!-- 2 -->
    <route id="18" edges="-27 -27.80.00 -3 -3.180.00 15 15.180.00 -144 -144.121.42 144 144.121.42"/> <!-- 1 -->
    <route id="19" edges="-27.80.00 27 27.80.00 45 -68 -43 -43.80.00"/> <!-- 1 -->
    <route id="20" edges="-3.180.00 11 11.80.00 23 23.80.00"/> <!-- 3 -->
    <route id="21" edges="-3.180.00 3 3.180.00 -3"/> <!-- 1 -->
    <route id="22" edges="-31.80.00 -23 -23.80.00 109 109.80.00 123"/> <!-- 1 -->
    <route id="24" edges="-37.80.00 -23 -23.80.00 -11 -11.80.00 15 15.180.00"/> <!-- 1 -->
    <route id="25" edges="-37.80.00 -23 -23.80.00 109 109.80.00 -109"/> <!-- 1 -->
    <route id="26" edges="-37.80.00 -23 -23.80.00 109 109.80.00 131"/> <!-- 1 -->
    <route id="27" edges="-43 -43.80.00 -27 -27.80.00"/> <!-- 1 -->
    <route id="28" edges="-43 -43.80.00 -27 -27.80.00 -3 -3.180.00 11 11.80.00 109 109.80.00"/> <!-- 2 -->
    <route id="29" edges="-43.80.00 -27 -27.80.00 -3 -3.180.00 15 15.180.00 -144 -144.121.42 152"/> <!-- 1 -->
    <route id="31" edges="-43.80.00 -27 -27.80.00 27 27.80.00"/> <!-- 1 -->
    <route id="32" edges="-45.80.00 -27 -27.80.00 -3 -3.180.00 11 11.80.00 23 23.80.00 31 31.80.00 60 60.80.00 92"/> <!-- 1 -->
    <route id="35" edges="-55 -55.80.00 -27 -27.80.00 -3 -3.180.00 15 15.180.00"/> <!-- 2 -->
    <route id="36" edges="-55 -55.80.00 -27 -27.80.00 -3 -3.180.00 15 15.180.00 -144 -144.121.42 -131"/> <!-- 1 -->
    <route id="37" edges="-58 -58.121.42 64 64.80.00 120 120.180.00"/> <!-- 1 -->
    <route id="38" edges="-58.121.42 -31 -31.80.00 -23 -23.80.00 -11 -11.80.00 5"/> <!-- 1 -->
    <route id="39" edges="-60 -60.80.00 -31 -31.80.00 -23 -23.80.00 -11 -11.80.00 3 3.180.00 27 27.80.00 43 68 -45 -45.80.00"/> <!-- 1 -->
    <route id="40" edges="-64 -64.80.00 64 64.80.00 120 120.180.00 -120 -120.180.00"/> <!-- 1 -->
    <route id="41" edges="-64 -64.80.00 64 64.80.00 120 120.180.00 123 123.121.42"/> <!-- 1 -->
    <route id="43" edges="-71 -55 -55.80.00 -27 -27.80.00 -3 -3.180.00 11 11.80.00 23 23.80.00 31 31.80.00 58"/> <!-- 2 -->
    <route id="45" edges="-75 -75.121.42 -60 -60.80.00 -31 -31.80.00 -23 -23.80.00 -11 -11.80.00 3 3.180.00 -71"/> <!-- 1 -->
    <route id="46" edges="-75.121.42 -60 -60.80.00 -31 -31.80.00 -23 -23.80.00 23"/> <!-- 1 -->
    <route id="47" edges="-79 -79.80.00 -60 -60.80.00 -31 -31.80.00 -23 -23.80.00 -11 -11.80.00 3 3.180.00 -3 -3.180.00"/> <!-- 2 -->
    <route id="48" edges="-79 -79.80.00 -60 -60.80.00 64 64.80.00"/> <!-- 1 -->
    <route id="51" edges="-79.80.00 75 75.121.42"/> <!-- 2 -->
    <route id="52" edges="-79.80.00 75 75.121.42 120 120.180.00 131 131.180.00 144 144.121.42"/> <!-- 1 -->
    <route id="54" edges="109 109.80.00 -109 -109.80.00 -11 -11.80.00 3 3.180.00 -71 -55 -55.80.00"/> <!-- 1 -->
    <route id="55" edges="109 109.80.00 -109 -109.80.00 -11 -11.80.00 3 3.180.00 27 27.80.00 43 68 -45"/> <!-- 1 -->
    <route id="57" edges="11.80.00 23 23.80.00 31"/> <!-- 2 -->
    <route id="58" edges="120 120.180.00 -109 -109.80.00 -11 -11.80.00 3 3.180.00 -71 -55 -55.80.00"/> <!-- 2 -->
    <route id="60" edges="120 120.180.00 -109 -109.80.00 -11 -11.80.00 3 3.180.00 27 27.80.00 45"/> <!-- 1 -->
    <route id="61" edges="120 120.180.00 -120 -120.180.00 -75 -75.121.42 -60"/> <!-- 1 -->
    <route id="62" edges="123 123.121.42 -123"/> <!-- 1 -->
    <route id="63" edges="123 123.121.42 -15 -15.180.00 3 3.180.00 27 27.80.00 43 68"/> <!-- 1 -->
    <route id="64" edges="131 131.180.00 144 144.121.42 -15 -15.180.00 3 3.180.00 27 27.80.00 55 71"/> <!-- 1 -->
    <route id="65" edges="144 144.121.42 -123 -123.121.42 -120 -120.180.00 -64 -64.80.00 58"/> <!-- 1 -->
    <route id="66" edges="144 144.121.42 -15 -15.180.00 3 3.180.00 27 27.80.00"/> <!-- 1 -->
    <route id="67" edges="144.121.42 -123 -123.121.42 -120 -120.180.00 -64 -64.80.00 58"/> <!-- 1 -->
    <route id="68" edges="15 15.180.00 -123 -123.121.42 -109 -109.80.00 -11"/> <!-- 1 -->
    <route id="69" edges="15 15.180.00 -123 -123.121.42 -120 -120.180.00 -75 -75.121.42 75"/> <!-- 1 -->
    <route id="70" edges="15.180.00 -15 -15.180.00 11 11.80.00 23 23.80.00 31 31.80.00"/> <!-- 1 -->
    <route id="71" edges="23 23.80.00 -23 -23.80.00 109"/> <!-- 1 -->
    <route id="72" edges="23.80.00 31 31.80.00 60 60.80.00 75 75.121.42"/> <!-- 2 -->
    <route id="74" edges="27 27.80.00 -27 -27.80.00 -3 -3.180.00 11 11.80.00 23 23.80.00 31 31.80.00 64 64.80.00 -75"/> <!-- 1 -->
    <route id="75" edges="27 27.80.00 -27 -27.80.00 -3 -3.180.00 11 11.80.00 23 23.80.00 37 -58 -58.121.42"/> <!-- 2 -->
    <route id="77" edges="3 3.180.00 -3 -3.180.00 11 11.80.00 23 23.80.00 31 31.80.00 64 64.80.00"/> <!-- 2 -->
    <route id="79" edges="3.180.00 27 27.80.00 55 71"/> <!-- 1 -->
    <route id="80" edges="31 31.80.00 -31 -31.80.00 -23 -23.80.00 -11 -11.80.00 3 3.180.00 27 27.80.00 -27"/> <!-- 2 -->
    <route id="81" edges="31.80.00 58"/> <!-- 2 -->
    <route id="83" edges="37 -58 -58.121.42 -31 -31.80.00 -23 -23.80.00 109 109.80.00 131 131.180.00 -131 -131.180.00"/> <!-- 2 -->
    <route id="85" edges="45 -68 -43 -43.80.00 -27 -27.80.00 -3 -3.180.00 11 11.80.00 109 109.80.00 123 123.121.42"/> <!-- 1 -->
    <route id="87" edges="58 -37 -37.80.00 -23"/> <!-- 2 -->
    <route id="88" edges="58 -37 -37.80.00 -23 -23.80.00 -11 -11.80.00 3 3.180.00"/> <!-- 1 -->
    <route id="89" edges="60.80.00 -60 -60.80.00 -31 -31.80.00 -23 -23.80.00 -11 -11.80.00 5"/> <!-- 1 -->
    <route id="90" edges="60.80.00 75 75.121.42 -75"/> <!-- 1 -->
    <route id="91" edges="64.80.00 -64 -64.80.00 -31 -31.80.00 31"/> <!-- 1 -->
    <route id="92" edges="64.80.00 120 120.180.00 131 131.180.00 -131"/> <!-- 1 -->
    <route id="93" edges="68 -45 -45.80.00 -27 -27.80.00 -3 -3.180.00 11 11.80.00 -11"/> <!-- 1 -->
    <route id="94" edges="68 -45 -45.80.00 -27 -27.80.00 -71 -55"/> <!-- 2 -->
    <route id="95" edges="71 71.121.42 -3 -3.180.00 11 11.80.00 109 109.80.00 -120"/> <!-- 1 -->
    <route id="97" edges="75 75.121.42 120 120.180.00 -109 -109.80.00 23 23.80.00"/> <!-- 1 -->

    <personFlow id="60" begin="0.00" end="1.00" probability="1.0">
        <walk route="60"/>
    </personFlow>
    <personFlow id="81" begin="1.04" end="34.39" probability="0.05997474747474752">
        <walk route="81"/>
    </personFlow>
    <personFlow id="91" begin="2.08" end="3.08" probability="1.0">
        <walk route="91"/>
    </personFlow>
    <personFlow id="0" begin="3.13" end="4.13" probability="1.0">
        <walk route="0"/>
    </personFlow>
    <personFlow id="58" begin="4.17" end="41.68" probability="0.05331088664422003">
        <walk route="58"/>
    </personFlow>
    <personFlow id="51" begin="5.21" end="22.93" probability="0.11289364230540708">
        <walk route="51"/>
    </personFlow>
    <personFlow id="88" begin="6.25" end="7.25" probability="1.0">
        <walk route="88"/>
    </personFlow>
    <personFlow id="20" begin="7.29" end="94.83" probability="0.03427128427128432">
        <walk route="20"/>
    </personFlow>
    <personFlow id="32" begin="8.34" end="9.34" probability="1.0">
        <walk route="32"/>
    </personFlow>
    <personFlow id="70" begin="9.38" end="10.38" probability="1.0">
        <walk route="70"/>
    </personFlow>
    <personFlow id="95" begin="10.42" end="11.42" probability="1.0">
        <walk route="95"/>
    </personFlow>
    <personFlow id="5" begin="11.46" end="12.46" probability="1.0">
        <walk route="5"/>
    </personFlow>
    <personFlow id="24" begin="12.51" end="13.51" probability="1.0">
        <walk route="24"/>
    </personFlow>
    <personFlow id="80" begin="13.55" end="72.95" probability="0.03367003367003372">
        <walk route="80"/>
    </personFlow>
    <personFlow id="40" begin="14.59" end="15.59" probability="1.0">
        <walk route="40"/>
    </personFlow>
    <personFlow id="97" begin="15.63" end="16.63" probability="1.0">
        <walk route="97"/>
    </personFlow>
    <personFlow id="43" begin="16.67" end="21.88" probability="0.3838383838383844">
        <walk route="43"/>
    </personFlow>
    <personFlow id="16" begin="17.72" end="95.87" probability="0.02558922558922563">
        <walk route="16"/>
    </personFlow>
    <personFlow id="14" begin="18.76" end="19.76" probability="1.0">
        <walk route="14"/>
    </personFlow>
    <personFlow id="22" begin="19.80" end="20.80" probability="1.0">
        <walk route="22"/>
    </personFlow>
    <personFlow id="46" begin="23.97" end="24.97" probability="1.0">
        <walk route="46"/>
    </personFlow>
    <personFlow id="38" begin="25.01" end="26.01" probability="1.0">
        <walk route="38"/>
    </personFlow>
    <personFlow id="27" begin="26.05" end="27.05" probability="1.0">
        <walk route="27"/>
    </personFlow>
    <personFlow id="54" begin="27.09" end="28.09" probability="1.0">
        <walk route="54"/>
    </personFlow>
    <personFlow id="63" begin="28.14" end="29.14" probability="1.0">
        <walk route="63"/>
    </personFlow>
    <personFlow id="47" begin="29.18" end="32.31" probability="0.63973063973064">
        <walk route="47"/>
    </personFlow>
    <personFlow id="77" begin="30.22" end="85.45" probability="0.03621116828664004">
        <walk route="77"/>
    </personFlow>
    <personFlow id="79" begin="31.26" end="32.26" probability="0.9999999999999964">
        <walk route="79"/>
    </personFlow>
    <personFlow id="12" begin="33.35" end="34.35" probability="1.0">
        <walk route="12"/>
    </personFlow>
    <personFlow id="83" begin="35.43" end="48.98" probability="0.14763014763014787">
        <walk route="83"/>
    </personFlow>
    <personFlow id="28" begin="36.47" end="52.11" probability="0.12794612794612814">
        <walk route="28"/>
    </personFlow>
    <personFlow id="11" begin="37.52" end="38.52" probability="1.0">
        <walk route="11"/>
    </personFlow>
    <personFlow id="87" begin="38.56" end="67.74" probability="0.06854256854256865">
        <walk route="87"/>
    </personFlow>
    <personFlow id="45" begin="39.60" end="40.60" probability="1.0">
        <walk route="45"/>
    </personFlow>
    <personFlow id="72" begin="40.64" end="92.75" probability="0.038383838383838444">
        <walk route="72"/>
    </personFlow>
    <personFlow id="71" begin="42.73" end="43.73" probability="1.0">
        <walk route="71"/>
    </personFlow>
    <personFlow id="35" begin="43.77" end="64.61" probability="0.0959595959595961">
        <walk route="35"/>
    </personFlow>
    <personFlow id="65" begin="44.81" end="45.81" probability="1.0">
        <walk route="65"/>
    </personFlow>
    <personFlow id="29" begin="45.85" end="46.85" probability="1.0">
        <walk route="29"/>
    </personFlow>
    <personFlow id="52" begin="46.89" end="47.89" probability="1.0">
        <walk route="52"/>
    </personFlow>
    <personFlow id="25" begin="47.94" end="48.94" probability="1.0">
        <walk route="25"/>
    </personFlow>
    <personFlow id="75" begin="50.02" end="91.71" probability="0.04797979797979805">
        <walk route="75"/>
    </personFlow>
    <personFlow id="94" begin="51.06" end="88.58" probability="0.05331088664422006">
        <walk route="94"/>
    </personFlow>
    <personFlow id="64" begin="53.15" end="54.15" probability="1.0">
        <walk route="64"/>
    </personFlow>
    <personFlow id="93" begin="54.19" end="55.19" probability="1.0">
        <walk route="93"/>
    </personFlow>
    <personFlow id="18" begin="55.23" end="56.23" probability="1.0">
        <walk route="18"/>
    </personFlow>
    <personFlow id="4" begin="56.27" end="57.27" probability="1.0">
        <walk route="4"/>
    </personFlow>
    <personFlow id="66" begin="57.32" end="58.32" probability="1.0">
        <walk route="66"/>
    </personFlow>
    <personFlow id="48" begin="58.36" end="59.36" probability="1.0">
        <walk route="48"/>
    </personFlow>
    <personFlow id="74" begin="59.40" end="60.40" probability="1.0">
        <walk route="74"/>
    </personFlow>
    <personFlow id="10" begin="60.44" end="61.44" probability="1.0">
        <walk route="10"/>
    </personFlow>
    <personFlow id="39" begin="61.48" end="62.48" probability="1.0">
        <walk route="39"/>
    </personFlow>
    <personFlow id="85" begin="62.53" end="63.53" probability="1.0">
        <walk route="85"/>
    </personFlow>
    <personFlow id="68" begin="63.57" end="64.57" probability="1.0">
        <walk route="68"/>
    </personFlow>
    <personFlow id="36" begin="65.65" end="66.65" probability="1.0">
        <walk route="36"/>
    </personFlow>
    <personFlow id="37" begin="66.69" end="67.69" probability="1.0">
        <walk route="37"/>
    </personFlow>
    <personFlow id="61" begin="68.78" end="69.78" probability="1.0">
        <walk route="61"/>
    </personFlow>
    <personFlow id="90" begin="69.82" end="70.82" probability="1.0">
        <walk route="90"/>
    </personFlow>
    <personFlow id="62" begin="70.86" end="71.86" probability="1.0">
        <walk route="62"/>
    </personFlow>
    <personFlow id="26" begin="71.91" end="72.91" probability="1.0">
        <walk route="26"/>
    </personFlow>
    <personFlow id="31" begin="73.99" end="74.99" probability="1.0">
        <walk route="31"/>
    </personFlow>
    <personFlow id="15" begin="75.03" end="76.03" probability="1.0">
        <walk route="15"/>
    </personFlow>
    <personFlow id="21" begin="76.07" end="77.07" probability="1.0">
        <walk route="21"/>
    </personFlow>
    <personFlow id="41" begin="77.12" end="78.12" probability="1.0">
        <walk route="41"/>
    </personFlow>
    <personFlow id="13" begin="78.16" end="79.16" probability="1.0">
        <walk route="13"/>
    </personFlow>
    <personFlow id="55" begin="79.20" end="80.20" probability="1.0">
        <walk route="55"/>
    </personFlow>
    <personFlow id="92" begin="80.24" end="81.24" probability="1.0">
        <walk route="92"/>
    </personFlow>
    <personFlow id="6" begin="81.28" end="82.28" probability="1.0">
        <walk route="6"/>
    </personFlow>
    <personFlow id="67" begin="82.33" end="83.33" probability="1.0">
        <walk route="67"/>
    </personFlow>
    <personFlow id="19" begin="83.37" end="84.37" probability="1.0">
        <walk route="19"/>
    </personFlow>
    <personFlow id="69" begin="84.41" end="85.41" probability="1.0">
        <walk route="69"/>
    </personFlow>
    <personFlow id="57" begin="86.49" end="87.54" number="2">
        <walk route="57"/>
    </personFlow>
    <personFlow id="1" begin="89.62" end="90.62" probability="1.0">
        <walk route="1"/>
    </personFlow>
    <personFlow id="89" begin="90.66" end="91.66" probability="1.0">
        <walk route="89"/>
    </personFlow>
    <personFlow id="7" begin="93.79" end="94.79" probability="1.0">
        <walk route="7"/>
    </personFlow>
    <personFlow id="9" begin="96.92" end="97.92" probability="1.0">
        <walk route="9"/>
    </personFlow>
    <personFlow id="3" begin="97.96" end="98.96" probability="1.0">
        <walk route="3"/>
    </personFlow>
</routes>
