<?xml version="1.0" encoding="UTF-8"?>

<!-- generated on 2023-04-21 08:51:31 by Eclipse SUMO netedit Version v1_16_0+2264-6d5ab3ff809
-->

<routes xmlns:xsi="http://www.w3.org/2001/XMLSchema-instance" xsi:noNamespaceSchemaLocation="http://sumo.dlr.de/xsd/routes_file.xsd">
    <!-- Routes -->
    <route id="route_0" edges="gneE0 gneE1" color="yellow"/>
    <!-- Vehicles, persons and containers (sorted by depart) -->
    <flow id="routeFlow_0" begin="0.00" route="route_0" end="3600.00" number="18">
        <stop lane="gneE1_0" startPos="7.00" endPos="17.00"/>
        <stop lane="gneE1_0" startPos="7.00" endPos="17.00"/>
        <stop lane="gneE1_0" startPos="7.00" endPos="17.00"/>
        <stop lane="gneE1_0" startPos="7.00" endPos="17.00"/>
        <stop lane="gneE1_0" startPos="7.00" endPos="17.00" triggered="person"/>
    </flow>
</routes>
