<?xml version="1.0" encoding="UTF-8"?>
<routes xmlns:xsi="http://www.w3.org/2001/XMLSchema-instance" xsi:noNamespaceSchemaLocation="http://sumo.dlr.de/xsd/routes_file.xsd">
    <vType id="taxi" vClass="taxi" personCapacity="1">
        <param key="has.taxi.device" value="true"/>
        <param key="device.taxi.pickUpDuration" value="30"/>
        <param key="device.taxi.dropOffDuration" value="40"/>
    </vType>

    <trip id="trip_0" type="taxi" depart="0.00" from="A0B0" to="B0C0">
        <param key="device.taxi.parking" value="false"/>
    </trip>

    <personFlow id="p" begin="0.00" end="30" number="4">
        <ride from="B2C2" to="A0B0" lines="taxi"/>
    </personFlow>

</routes>
