<?xml version="1.0" encoding="UTF-8"?>

<!-- generated on 2023-03-22 17:18:00 by Eclipse SUMO sumo Version v1_16_0+1570-ec89ba0
This data file and the accompanying materials
are made available under the terms of the Eclipse Public License v2.0
which accompanies this distribution, and is available at
http://www.eclipse.org/legal/epl-v20.html
This file may also be made available under the following Secondary
Licenses when the conditions for such availability set forth in the Eclipse
Public License 2.0 are satisfied: GNU General Public License, version 2
or later which is available at
https://www.gnu.org/licenses/old-licenses/gpl-2.0-standalone.html
SPDX-License-Identifier: EPL-2.0 OR GPL-2.0-or-later
<configuration xmlns:xsi="http://www.w3.org/2001/XMLSchema-instance" xsi:noNamespaceSchemaLocation="http://sumo.dlr.de/xsd/sumoConfiguration.xsd">

    <input>
        <net-file value="net.net.xml"/>
        <route-files value="input_routes.rou.xml"/>
    </input>

    <output>
        <write-license value="true"/>
        <tripinfo-output value="tripinfos.xml"/>
        <stop-output value="stopinfos.xml"/>
        <stop-output.write-unfinished value="true"/>
    </output>

    <time>
        <end value="1000"/>
    </time>

    <processing>
        <default.speeddev value="0"/>
    </processing>

    <report>
        <xml-validation value="never"/>
        <duration-log.disable value="true"/>
        <no-step-log value="true"/>
    </report>

    <mesoscopic>
        <mesosim value="true"/>
    </mesoscopic>

</configuration>
-->

<stops xmlns:xsi="http://www.w3.org/2001/XMLSchema-instance" xsi:noNamespaceSchemaLocation="http://sumo.dlr.de/xsd/stopinfo_file.xsd">
    <stopinfo id="trip_0" type="taxi" edge="B2C2" pos="0.00" parking="0" started="33.03" ended="70.00" initialPersons="0" loadedPersons="1" unloadedPersons="0" initialContainers="0" loadedContainers="0" unloadedContainers="0"/>
    <stopinfo id="trip_0" type="taxi" edge="A0B0" pos="191.73" parking="0" started="150.99" ended="180.00" initialPersons="1" loadedPersons="0" unloadedPersons="1" initialContainers="0" loadedContainers="0" unloadedContainers="0"/>
    <stopinfo id="trip_0" type="taxi" edge="B2C2" pos="0.00" parking="0" started="192.33" ended="230.00" initialPersons="0" loadedPersons="1" unloadedPersons="0" initialContainers="0" loadedContainers="0" unloadedContainers="0"/>
    <stopinfo id="trip_0" type="taxi" edge="A0B0" pos="191.73" parking="0" started="310.29" ended="360.00" initialPersons="1" loadedPersons="0" unloadedPersons="1" initialContainers="0" loadedContainers="0" unloadedContainers="0"/>
    <stopinfo id="trip_0" type="taxi" edge="B2C2" pos="0.00" parking="0" started="372.33" ended="410.00" initialPersons="0" loadedPersons="1" unloadedPersons="0" initialContainers="0" loadedContainers="0" unloadedContainers="0"/>
    <stopinfo id="trip_0" type="taxi" edge="A0B0" pos="191.73" parking="0" started="490.29" ended="540.00" initialPersons="1" loadedPersons="0" unloadedPersons="1" initialContainers="0" loadedContainers="0" unloadedContainers="0"/>
    <stopinfo id="trip_0" type="taxi" edge="B2C2" pos="0.00" parking="0" started="552.33" ended="590.00" initialPersons="0" loadedPersons="1" unloadedPersons="0" initialContainers="0" loadedContainers="0" unloadedContainers="0"/>
    <stopinfo id="trip_0" type="taxi" edge="A0B0" pos="191.73" parking="0" started="670.29" ended="-1" initialPersons="1" loadedPersons="0" unloadedPersons="1" initialContainers="0" loadedContainers="0" unloadedContainers="0"/>
</stops>
