<?xml version="1.0" encoding="UTF-8"?>

<!-- generated on 2022-01-07 16:20:39 by Eclipse SUMO netconvert Version v1_11_0+0928-18c1b433e84
This data file and the accompanying materials
are made available under the terms of the Eclipse Public License v2.0
which accompanies this distribution, and is available at
http://www.eclipse.org/legal/epl-v20.html
SPDX-License-Identifier: EPL-2.0
<configuration xmlns:xsi="http://www.w3.org/2001/XMLSchema-instance" xsi:noNamespaceSchemaLocation="http://sumo.dlr.de/xsd/netconvertConfiguration.xsd">

    <input>
        <node-files value="input_nodes.nod.xml"/>
        <edge-files value="input_edges.edg.xml"/>
        <type-files value="input_types.typ.xml"/>
    </input>

    <output>
        <write-license value="true"/>
        <output-file value="net.net.xml"/>
    </output>

    <report>
        <xml-validation value="never"/>
        <aggregate-warnings value="5"/>
    </report>

</configuration>
-->

<net version="1.16" junctionCornerDetail="5" limitTurnSpeed="5.50" xmlns:xsi="http://www.w3.org/2001/XMLSchema-instance" xsi:noNamespaceSchemaLocation="http://sumo.dlr.de/xsd/net_file.xsd">

    <location netOffset="500.00,500.00" convBoundary="0.00,0.00,1000.00,1000.00" origBoundary="-500.00,-500.00,500.00,500.00" projParameter="!"/>

    <type id="a" priority="3" numLanes="3" speed="13.89">
        <laneType index="0" speed="10.00" width="3.00"/>
        <laneType index="1" speed="20.00" width="4.50"/>
        <laneType index="2" speed="30.00" width="6.00"/>
    </type>
    <type id="b" priority="2" numLanes="2" speed="11.11">
        <laneType index="0" speed="15.00"/>
        <laneType index="1" width="2.00"/>
    </type>
    <type id="c" priority="1" numLanes="1" speed="11.11" allow="bicycle">
        <laneType index="0" speed="25.00" allow="bus"/>
    </type>
    <type id="d" priority="1" numLanes="1" speed="2.90" allow="pedestrian">
        <laneType index="0" speed="35.00" disallow="pedestrian"/>
    </type>

    <edge id=":0_0" function="internal">
        <lane id=":0_0_0" index="0" allow="bus" speed="8.95" length="18.08" shape="488.00,517.50 487.66,510.54 486.62,505.58 484.91,502.59 482.50,501.60"/>
    </edge>
    <edge id=":0_1" function="internal">
        <lane id=":0_1_0" index="0" allow="bus" speed="22.50" length="35.71" shape="491.75,517.50 492.79,506.41 495.07,496.25 497.36,487.97 498.40,482.50"/>
    </edge>
    <edge id=":0_2" function="internal">
        <lane id=":0_2_0" index="0" allow="bus" speed="11.94" length="15.55" shape="497.00,517.50 498.28,509.14 502.12,503.17"/>
    </edge>
    <edge id=":0_3" function="internal">
        <lane id=":0_3_0" index="0" allow="bus" speed="4.59" length="3.49" shape="497.00,517.50 498.15,515.77 499.30,515.20 499.42,515.26"/>
    </edge>
    <edge id=":0_16" function="internal">
        <lane id=":0_16_0" index="0" allow="bus" speed="11.94" length="16.39" shape="502.12,503.17 508.53,499.59 517.50,498.40"/>
    </edge>
    <edge id=":0_17" function="internal">
        <lane id=":0_17_0" index="0" allow="bus" speed="4.59" length="3.22" shape="499.42,515.26 500.45,515.77 501.60,517.50"/>
    </edge>
    <edge id=":0_4" function="internal">
        <lane id=":0_4_0" index="0" allow="bus" speed="8.95" length="18.08" shape="517.50,512.00 510.54,512.34 505.58,513.38 502.59,515.09 501.60,517.50"/>
    </edge>
    <edge id=":0_5" function="internal">
        <lane id=":0_5_0" index="0" allow="bus" speed="22.50" length="35.71" shape="517.50,508.25 506.41,507.21 496.25,504.93 487.97,502.64 482.50,501.60"/>
    </edge>
    <edge id=":0_6" function="internal">
        <lane id=":0_6_0" index="0" allow="bus" speed="11.94" length="15.55" shape="517.50,503.00 509.14,501.72 503.17,497.88"/>
    </edge>
    <edge id=":0_7" function="internal">
        <lane id=":0_7_0" index="0" allow="bus" speed="4.59" length="3.49" shape="517.50,503.00 515.77,501.85 515.20,500.70 515.26,500.58"/>
    </edge>
    <edge id=":0_18" function="internal">
        <lane id=":0_18_0" index="0" allow="bus" speed="11.94" length="16.39" shape="503.17,497.88 499.59,491.47 498.40,482.50"/>
    </edge>
    <edge id=":0_19" function="internal">
        <lane id=":0_19_0" index="0" allow="bus" speed="4.59" length="3.22" shape="515.26,500.58 515.77,499.55 517.50,498.40"/>
    </edge>
    <edge id=":0_8" function="internal">
        <lane id=":0_8_0" index="0" allow="bus" speed="8.95" length="18.08" shape="512.00,482.50 512.34,489.46 513.38,494.42 515.09,497.41 517.50,498.40"/>
    </edge>
    <edge id=":0_9" function="internal">
        <lane id=":0_9_0" index="0" allow="bus" speed="22.50" length="35.71" shape="508.25,482.50 507.21,493.59 504.93,503.75 502.64,512.03 501.60,517.50"/>
    </edge>
    <edge id=":0_10" function="internal">
        <lane id=":0_10_0" index="0" allow="bus" speed="11.94" length="15.55" shape="503.00,482.50 501.72,490.86 497.88,496.83"/>
    </edge>
    <edge id=":0_11" function="internal">
        <lane id=":0_11_0" index="0" allow="bus" speed="4.59" length="3.49" shape="503.00,482.50 501.85,484.23 500.70,484.80 500.58,484.74"/>
    </edge>
    <edge id=":0_20" function="internal">
        <lane id=":0_20_0" index="0" allow="bus" speed="11.94" length="16.39" shape="497.88,496.83 491.47,500.41 482.50,501.60"/>
    </edge>
    <edge id=":0_21" function="internal">
        <lane id=":0_21_0" index="0" allow="bus" speed="4.59" length="3.22" shape="500.58,484.74 499.55,484.23 498.40,482.50"/>
    </edge>
    <edge id=":0_12" function="internal">
        <lane id=":0_12_0" index="0" allow="bus" speed="8.95" length="18.08" shape="482.50,488.00 489.46,487.66 494.42,486.62 497.41,484.91 498.40,482.50"/>
    </edge>
    <edge id=":0_13" function="internal">
        <lane id=":0_13_0" index="0" allow="bus" speed="22.50" length="35.71" shape="482.50,491.75 493.59,492.79 503.75,495.07 512.03,497.36 517.50,498.40"/>
    </edge>
    <edge id=":0_14" function="internal">
        <lane id=":0_14_0" index="0" allow="bus" speed="11.94" length="15.55" shape="482.50,497.00 490.86,498.28 496.83,502.12"/>
    </edge>
    <edge id=":0_15" function="internal">
        <lane id=":0_15_0" index="0" allow="bus" speed="4.59" length="3.49" shape="482.50,497.00 484.23,498.15 484.80,499.30 484.74,499.42"/>
    </edge>
    <edge id=":0_22" function="internal">
        <lane id=":0_22_0" index="0" allow="bus" speed="11.94" length="16.39" shape="496.83,502.12 500.41,508.53 501.60,517.50"/>
    </edge>
    <edge id=":0_23" function="internal">
        <lane id=":0_23_0" index="0" allow="bus" speed="4.59" length="3.22" shape="484.74,499.42 484.23,500.45 482.50,501.60"/>
    </edge>
    <edge id=":1_0" function="internal">
        <lane id=":1_0_0" index="0" allow="bus" speed="3.41" length="3.80" width="2.00" shape="0.00,501.60 -0.98,500.95 -1.30,500.30 -0.98,499.65 0.00,499.00"/>
    </edge>
    <edge id=":2_0" function="internal">
        <lane id=":2_0_0" index="0" allow="bus" speed="3.41" length="3.80" width="2.00" shape="1000.00,498.40 1000.98,499.05 1001.30,499.70 1000.98,500.35 1000.00,501.00"/>
    </edge>
    <edge id=":3_0" function="internal">
        <lane id=":3_0_0" index="0" allow="bus" speed="3.41" length="3.80" width="2.00" shape="498.40,0.00 499.05,-0.98 499.70,-1.30 500.35,-0.98 501.00,0.00"/>
    </edge>
    <edge id=":4_0" function="internal">
        <lane id=":4_0_0" index="0" allow="bus" speed="3.41" length="3.80" width="2.00" shape="501.60,1000.00 500.95,1000.98 500.30,1001.30 499.65,1000.98 499.00,1000.00"/>
    </edge>
    <edge id=":m1_0" function="internal">
        <lane id=":m1_0_0" index="0" speed="12.50" length="10.80" width="3.00" shape="246.00,496.40 248.88,495.09 250.00,492.20 251.12,489.31 254.00,488.00"/>
        <lane id=":m1_0_1" index="1" speed="15.56" length="10.80" width="4.50" shape="246.00,499.00 248.77,497.87 250.00,495.38 251.23,492.88 254.00,491.75"/>
        <lane id=":m1_0_2" index="2" speed="20.56" length="10.80" width="6.00" shape="246.00,499.00 248.41,498.69 250.00,498.00 251.59,497.31 254.00,497.00"/>
    </edge>
    <edge id=":m2_0" function="internal">
        <lane id=":m2_0_0" index="0" speed="12.50" length="10.80" width="3.00" shape="754.00,503.60 751.12,504.91 750.00,507.80 748.88,510.69 746.00,512.00"/>
        <lane id=":m2_0_1" index="1" speed="15.56" length="10.80" width="4.50" shape="754.00,501.00 751.23,502.13 750.00,504.62 748.77,507.12 746.00,508.25"/>
        <lane id=":m2_0_2" index="2" speed="20.56" length="10.80" width="6.00" shape="754.00,501.00 751.59,501.31 750.00,502.00 748.41,502.69 746.00,503.00"/>
    </edge>
    <edge id=":m3_0" function="internal">
        <lane id=":m3_0_0" index="0" speed="12.50" length="10.80" width="3.00" shape="503.60,246.00 504.91,248.88 507.80,250.00 510.69,251.12 512.00,254.00"/>
        <lane id=":m3_0_1" index="1" speed="15.56" length="10.80" width="4.50" shape="501.00,246.00 502.13,248.77 504.62,250.00 507.12,251.23 508.25,254.00"/>
        <lane id=":m3_0_2" index="2" speed="20.56" length="10.80" width="6.00" shape="501.00,246.00 501.31,248.41 502.00,250.00 502.69,251.59 503.00,254.00"/>
    </edge>
    <edge id=":m4_0" function="internal">
        <lane id=":m4_0_0" index="0" speed="12.50" length="10.80" width="3.00" shape="496.40,754.00 495.09,751.12 492.20,750.00 489.31,748.88 488.00,746.00"/>
        <lane id=":m4_0_1" index="1" speed="15.56" length="10.80" width="4.50" shape="499.00,754.00 497.87,751.23 495.38,750.00 492.88,748.77 491.75,746.00"/>
        <lane id=":m4_0_2" index="2" speed="20.56" length="10.80" width="6.00" shape="499.00,754.00 498.69,751.59 498.00,750.00 497.31,748.41 497.00,746.00"/>
    </edge>

    <edge id="1fi" from="1" to="m1" priority="2" type="b">
        <lane id="1fi_0" index="0" speed="15.00" length="246.00" shape="0.00,496.40 246.00,496.40"/>
        <lane id="1fi_1" index="1" speed="11.11" length="246.00" width="2.00" shape="0.00,499.00 246.00,499.00"/>
    </edge>
    <edge id="1o" from="0" to="1" priority="1" type="c">
        <lane id="1o_0" index="0" allow="bus" speed="25.00" length="482.50" shape="482.50,501.60 0.00,501.60"/>
    </edge>
    <edge id="1si" from="m1" to="0" priority="3" type="a">
        <lane id="1si_0" index="0" speed="10.00" length="228.50" width="3.00" shape="254.00,488.00 482.50,488.00"/>
        <lane id="1si_1" index="1" speed="20.00" length="228.50" width="4.50" shape="254.00,491.75 482.50,491.75"/>
        <lane id="1si_2" index="2" speed="30.00" length="228.50" width="6.00" shape="254.00,497.00 482.50,497.00"/>
    </edge>
    <edge id="2fi" from="2" to="m2" priority="2" type="b">
        <lane id="2fi_0" index="0" speed="15.00" length="246.00" shape="1000.00,503.60 754.00,503.60"/>
        <lane id="2fi_1" index="1" speed="11.11" length="246.00" width="2.00" shape="1000.00,501.00 754.00,501.00"/>
    </edge>
    <edge id="2o" from="0" to="2" priority="1" type="c">
        <lane id="2o_0" index="0" allow="bus" speed="25.00" length="482.50" shape="517.50,498.40 1000.00,498.40"/>
    </edge>
    <edge id="2si" from="m2" to="0" priority="3" type="a">
        <lane id="2si_0" index="0" speed="10.00" length="228.50" width="3.00" shape="746.00,512.00 517.50,512.00"/>
        <lane id="2si_1" index="1" speed="20.00" length="228.50" width="4.50" shape="746.00,508.25 517.50,508.25"/>
        <lane id="2si_2" index="2" speed="30.00" length="228.50" width="6.00" shape="746.00,503.00 517.50,503.00"/>
    </edge>
    <edge id="3fi" from="3" to="m3" priority="2" type="b">
        <lane id="3fi_0" index="0" speed="15.00" length="246.00" shape="503.60,0.00 503.60,246.00"/>
        <lane id="3fi_1" index="1" speed="11.11" length="246.00" width="2.00" shape="501.00,0.00 501.00,246.00"/>
    </edge>
    <edge id="3o" from="0" to="3" priority="1" type="c">
        <lane id="3o_0" index="0" allow="bus" speed="25.00" length="482.50" shape="498.40,482.50 498.40,0.00"/>
    </edge>
    <edge id="3si" from="m3" to="0" priority="3" type="a">
        <lane id="3si_0" index="0" speed="10.00" length="228.50" width="3.00" shape="512.00,254.00 512.00,482.50"/>
        <lane id="3si_1" index="1" speed="20.00" length="228.50" width="4.50" shape="508.25,254.00 508.25,482.50"/>
        <lane id="3si_2" index="2" speed="30.00" length="228.50" width="6.00" shape="503.00,254.00 503.00,482.50"/>
    </edge>
    <edge id="4fi" from="4" to="m4" priority="2" type="b">
        <lane id="4fi_0" index="0" speed="15.00" length="246.00" shape="496.40,1000.00 496.40,754.00"/>
        <lane id="4fi_1" index="1" speed="11.11" length="246.00" width="2.00" shape="499.00,1000.00 499.00,754.00"/>
    </edge>
    <edge id="4o" from="0" to="4" priority="1" type="c">
        <lane id="4o_0" index="0" allow="bus" speed="25.00" length="482.50" shape="501.60,517.50 501.60,1000.00"/>
    </edge>
    <edge id="4si" from="m4" to="0" priority="3" type="a">
        <lane id="4si_0" index="0" speed="10.00" length="228.50" width="3.00" shape="488.00,746.00 488.00,517.50"/>
        <lane id="4si_1" index="1" speed="20.00" length="228.50" width="4.50" shape="491.75,746.00 491.75,517.50"/>
        <lane id="4si_2" index="2" speed="30.00" length="228.50" width="6.00" shape="497.00,746.00 497.00,517.50"/>
    </edge>

    <tlLogic id="0" type="static" programID="0" offset="0">
        <phase duration="33" state="GGggrrrrGGggrrrr"/>
        <phase duration="3"  state="yyggrrrryyggrrrr"/>
        <phase duration="6"  state="rrGGrrrrrrGGrrrr"/>
        <phase duration="3"  state="rryyrrrrrryyrrrr"/>
        <phase duration="33" state="rrrrGGggrrrrGGgg"/>
        <phase duration="3"  state="rrrryyggrrrryygg"/>
        <phase duration="6"  state="rrrrrrGGrrrrrrGG"/>
        <phase duration="3"  state="rrrrrryyrrrrrryy"/>
    </tlLogic>

    <junction id="0" type="traffic_light" x="500.00" y="500.00" incLanes="4si_0 4si_1 4si_2 2si_0 2si_1 2si_2 3si_0 3si_1 3si_2 1si_0 1si_1 1si_2" intLanes=":0_0_0 :0_1_0 :0_16_0 :0_17_0 :0_4_0 :0_5_0 :0_18_0 :0_19_0 :0_8_0 :0_9_0 :0_20_0 :0_21_0 :0_12_0 :0_13_0 :0_22_0 :0_23_0" shape="486.50,517.50 503.20,517.50 504.79,515.28 506.78,514.50 509.56,513.94 513.13,513.61 517.50,513.50 517.50,496.80 515.28,495.21 514.50,493.22 513.94,490.44 513.61,486.87 513.50,482.50 496.80,482.50 495.21,484.72 493.22,485.50 490.44,486.06 486.87,486.39 482.50,486.50 482.50,503.20 484.72,504.79 485.50,506.78 486.06,509.56 486.39,513.13">
        <request index="0"  response="0000000000000000" foes="1000010000100000" cont="0"/>
        <request index="1"  response="0100000001000000" foes="0111110001100000" cont="0"/>
        <request index="2"  response="0100001101000000" foes="0110001111100000" cont="1"/>
        <request index="3"  response="0100001000010000" foes="0100001000010000" cont="1"/>
        <request index="4"  response="0000001000000000" foes="0100001000001000" cont="0"/>
        <request index="5"  response="0000011000000111" foes="1100011000000111" cont="0"/>
        <request index="6"  response="0011011000000110" foes="0011111000000110" cont="1"/>
        <request index="7"  response="0010000100000100" foes="0010000100000100" cont="1"/>
        <request index="8"  response="0000000000000000" foes="0010000010000100" cont="0"/>
        <request index="9"  response="0100000001000000" foes="0110000001111100" cont="0"/>
        <request index="10" response="0100000001000011" foes="1110000001100011" cont="1"/>
        <request index="11" response="0001000001000010" foes="0001000001000010" cont="1"/>
        <request index="12" response="0000000000000010" foes="0000100001000010" cont="0"/>
        <request index="13" response="0000011100000110" foes="0000011111000110" cont="0"/>
        <request index="14" response="0000011000110110" foes="0000011000111110" cont="1"/>
        <request index="15" response="0000010000100001" foes="0000010000100001" cont="1"/>
    </junction>
    <junction id="1" type="priority" x="0.00" y="500.00" incLanes="1o_0" intLanes=":1_0_0" shape="0.00,500.00 0.00,503.20 0.00,500.00">
        <request index="0" response="0" foes="0" cont="0"/>
    </junction>
    <junction id="2" type="priority" x="1000.00" y="500.00" incLanes="2o_0" intLanes=":2_0_0" shape="1000.00,500.00 1000.00,496.80 1000.00,500.00">
        <request index="0" response="0" foes="0" cont="0"/>
    </junction>
    <junction id="3" type="priority" x="500.00" y="0.00" incLanes="3o_0" intLanes=":3_0_0" shape="500.00,0.00 496.80,0.00 500.00,0.00">
        <request index="0" response="0" foes="0" cont="0"/>
    </junction>
    <junction id="4" type="priority" x="500.00" y="1000.00" incLanes="4o_0" intLanes=":4_0_0" shape="500.00,1000.00 503.20,1000.00 500.00,1000.00">
        <request index="0" response="0" foes="0" cont="0"/>
    </junction>
    <junction id="m1" type="priority" x="250.00" y="500.00" incLanes="1fi_0 1fi_1" intLanes=":m1_0_0 :m1_0_1 :m1_0_2" shape="254.00,500.00 254.00,486.50 251.81,487.11 250.65,488.65 249.35,492.65 248.19,494.19 246.00,494.80 246.00,500.00">
        <request index="0" response="000" foes="000" cont="0"/>
        <request index="1" response="000" foes="000" cont="0"/>
        <request index="2" response="000" foes="000" cont="0"/>
    </junction>
    <junction id="m2" type="priority" x="750.00" y="500.00" incLanes="2fi_0 2fi_1" intLanes=":m2_0_0 :m2_0_1 :m2_0_2" shape="754.00,505.20 754.00,500.00 746.00,500.00 746.00,513.50 748.19,512.89 749.35,511.35 750.65,507.35 751.81,505.81">
        <request index="0" response="000" foes="000" cont="0"/>
        <request index="1" response="000" foes="000" cont="0"/>
        <request index="2" response="000" foes="000" cont="0"/>
    </junction>
    <junction id="m3" type="priority" x="500.00" y="250.00" incLanes="3fi_0 3fi_1" intLanes=":m3_0_0 :m3_0_1 :m3_0_2" shape="500.00,254.00 513.50,254.00 512.89,251.81 511.35,250.65 507.35,249.35 505.81,248.19 505.20,246.00 500.00,246.00">
        <request index="0" response="000" foes="000" cont="0"/>
        <request index="1" response="000" foes="000" cont="0"/>
        <request index="2" response="000" foes="000" cont="0"/>
    </junction>
    <junction id="m4" type="priority" x="500.00" y="750.00" incLanes="4fi_0 4fi_1" intLanes=":m4_0_0 :m4_0_1 :m4_0_2" shape="494.80,754.00 500.00,754.00 500.00,746.00 486.50,746.00 487.11,748.19 488.65,749.35 492.65,750.65 494.19,751.81">
        <request index="0" response="000" foes="000" cont="0"/>
        <request index="1" response="000" foes="000" cont="0"/>
        <request index="2" response="000" foes="000" cont="0"/>
    </junction>

    <junction id=":0_16_0" type="internal" x="502.12" y="503.17" incLanes=":0_2_0 3si_0 3si_1" intLanes=":0_5_0 :0_6_0 :0_7_0 :0_8_0 :0_9_0 :0_13_0 :0_14_0"/>
    <junction id=":0_17_0" type="internal" x="499.42" y="515.26" incLanes=":0_3_0 1si_2 2si_0 3si_1" intLanes=":0_4_0 :0_9_0 :0_14_0"/>
    <junction id=":0_18_0" type="internal" x="503.17" y="497.88" incLanes=":0_6_0 1si_0 1si_1" intLanes=":0_1_0 :0_2_0 :0_9_0 :0_10_0 :0_11_0 :0_12_0 :0_13_0"/>
    <junction id=":0_19_0" type="internal" x="515.26" y="500.58" incLanes=":0_7_0 1si_1 3si_0 4si_2" intLanes=":0_2_0 :0_8_0 :0_13_0"/>
    <junction id=":0_20_0" type="internal" x="497.88" y="496.83" incLanes=":0_10_0 4si_0 4si_1" intLanes=":0_0_0 :0_1_0 :0_5_0 :0_6_0 :0_13_0 :0_14_0 :0_15_0"/>
    <junction id=":0_21_0" type="internal" x="500.58" y="484.74" incLanes=":0_11_0 1si_0 2si_2 4si_1" intLanes=":0_1_0 :0_6_0 :0_12_0"/>
    <junction id=":0_22_0" type="internal" x="496.83" y="502.12" incLanes=":0_14_0 2si_0 2si_1" intLanes=":0_1_0 :0_2_0 :0_3_0 :0_4_0 :0_5_0 :0_9_0 :0_10_0"/>
    <junction id=":0_23_0" type="internal" x="484.74" y="499.42" incLanes=":0_15_0 2si_1 3si_2 4si_0" intLanes=":0_0_0 :0_5_0 :0_10_0"/>

    <connection from="1fi" to="1si" fromLane="0" toLane="0" via=":m1_0_0" dir="s" state="M"/>
    <connection from="1fi" to="1si" fromLane="1" toLane="1" via=":m1_0_1" dir="s" state="M"/>
    <connection from="1fi" to="1si" fromLane="1" toLane="2" via=":m1_0_2" dir="s" state="M"/>
    <connection from="1o" to="1fi" fromLane="0" toLane="1" via=":1_0_0" dir="t" state="M"/>
    <connection from="1si" to="3o" fromLane="0" toLane="0" via=":0_12_0" tl="0" linkIndex="12" dir="r" state="o"/>
    <connection from="1si" to="2o" fromLane="1" toLane="0" via=":0_13_0" tl="0" linkIndex="13" dir="s" state="o"/>
    <connection from="1si" to="4o" fromLane="2" toLane="0" via=":0_14_0" tl="0" linkIndex="14" dir="l" state="o"/>
    <connection from="1si" to="1o" fromLane="2" toLane="0" via=":0_15_0" tl="0" linkIndex="15" dir="t" state="o"/>
    <connection from="2fi" to="2si" fromLane="0" toLane="0" via=":m2_0_0" dir="s" state="M"/>
    <connection from="2fi" to="2si" fromLane="1" toLane="1" via=":m2_0_1" dir="s" state="M"/>
    <connection from="2fi" to="2si" fromLane="1" toLane="2" via=":m2_0_2" dir="s" state="M"/>
    <connection from="2o" to="2fi" fromLane="0" toLane="1" via=":2_0_0" dir="t" state="M"/>
    <connection from="2si" to="4o" fromLane="0" toLane="0" via=":0_4_0" tl="0" linkIndex="4" dir="r" state="o"/>
    <connection from="2si" to="1o" fromLane="1" toLane="0" via=":0_5_0" tl="0" linkIndex="5" dir="s" state="o"/>
    <connection from="2si" to="3o" fromLane="2" toLane="0" via=":0_6_0" tl="0" linkIndex="6" dir="l" state="o"/>
    <connection from="2si" to="2o" fromLane="2" toLane="0" via=":0_7_0" tl="0" linkIndex="7" dir="t" state="o"/>
    <connection from="3fi" to="3si" fromLane="0" toLane="0" via=":m3_0_0" dir="s" state="M"/>
    <connection from="3fi" to="3si" fromLane="1" toLane="1" via=":m3_0_1" dir="s" state="M"/>
    <connection from="3fi" to="3si" fromLane="1" toLane="2" via=":m3_0_2" dir="s" state="M"/>
    <connection from="3o" to="3fi" fromLane="0" toLane="1" via=":3_0_0" dir="t" state="M"/>
    <connection from="3si" to="2o" fromLane="0" toLane="0" via=":0_8_0" tl="0" linkIndex="8" dir="r" state="O"/>
    <connection from="3si" to="4o" fromLane="1" toLane="0" via=":0_9_0" tl="0" linkIndex="9" dir="s" state="O"/>
    <connection from="3si" to="1o" fromLane="2" toLane="0" via=":0_10_0" tl="0" linkIndex="10" dir="l" state="o"/>
    <connection from="3si" to="3o" fromLane="2" toLane="0" via=":0_11_0" tl="0" linkIndex="11" dir="t" state="o"/>
    <connection from="4fi" to="4si" fromLane="0" toLane="0" via=":m4_0_0" dir="s" state="M"/>
    <connection from="4fi" to="4si" fromLane="1" toLane="1" via=":m4_0_1" dir="s" state="M"/>
    <connection from="4fi" to="4si" fromLane="1" toLane="2" via=":m4_0_2" dir="s" state="M"/>
    <connection from="4o" to="4fi" fromLane="0" toLane="1" via=":4_0_0" dir="t" state="M"/>
    <connection from="4si" to="1o" fromLane="0" toLane="0" via=":0_0_0" tl="0" linkIndex="0" dir="r" state="O"/>
    <connection from="4si" to="3o" fromLane="1" toLane="0" via=":0_1_0" tl="0" linkIndex="1" dir="s" state="O"/>
    <connection from="4si" to="2o" fromLane="2" toLane="0" via=":0_2_0" tl="0" linkIndex="2" dir="l" state="o"/>
    <connection from="4si" to="4o" fromLane="2" toLane="0" via=":0_3_0" tl="0" linkIndex="3" dir="t" state="o"/>

    <connection from=":0_0" to="1o" fromLane="0" toLane="0" dir="r" state="M"/>
    <connection from=":0_1" to="3o" fromLane="0" toLane="0" dir="s" state="M"/>
    <connection from=":0_2" to="2o" fromLane="0" toLane="0" via=":0_16_0" dir="l" state="m"/>
    <connection from=":0_16" to="2o" fromLane="0" toLane="0" dir="l" state="M"/>
    <connection from=":0_3" to="4o" fromLane="0" toLane="0" via=":0_17_0" dir="t" state="m"/>
    <connection from=":0_17" to="4o" fromLane="0" toLane="0" dir="t" state="M"/>
    <connection from=":0_4" to="4o" fromLane="0" toLane="0" dir="r" state="M"/>
    <connection from=":0_5" to="1o" fromLane="0" toLane="0" dir="s" state="M"/>
    <connection from=":0_6" to="3o" fromLane="0" toLane="0" via=":0_18_0" dir="l" state="m"/>
    <connection from=":0_18" to="3o" fromLane="0" toLane="0" dir="l" state="M"/>
    <connection from=":0_7" to="2o" fromLane="0" toLane="0" via=":0_19_0" dir="t" state="m"/>
    <connection from=":0_19" to="2o" fromLane="0" toLane="0" dir="t" state="M"/>
    <connection from=":0_8" to="2o" fromLane="0" toLane="0" dir="r" state="M"/>
    <connection from=":0_9" to="4o" fromLane="0" toLane="0" dir="s" state="M"/>
    <connection from=":0_10" to="1o" fromLane="0" toLane="0" via=":0_20_0" dir="l" state="m"/>
    <connection from=":0_20" to="1o" fromLane="0" toLane="0" dir="l" state="M"/>
    <connection from=":0_11" to="3o" fromLane="0" toLane="0" via=":0_21_0" dir="t" state="m"/>
    <connection from=":0_21" to="3o" fromLane="0" toLane="0" dir="t" state="M"/>
    <connection from=":0_12" to="3o" fromLane="0" toLane="0" dir="r" state="M"/>
    <connection from=":0_13" to="2o" fromLane="0" toLane="0" dir="s" state="M"/>
    <connection from=":0_14" to="4o" fromLane="0" toLane="0" via=":0_22_0" dir="l" state="m"/>
    <connection from=":0_22" to="4o" fromLane="0" toLane="0" dir="l" state="M"/>
    <connection from=":0_15" to="1o" fromLane="0" toLane="0" via=":0_23_0" dir="t" state="m"/>
    <connection from=":0_23" to="1o" fromLane="0" toLane="0" dir="t" state="M"/>
    <connection from=":1_0" to="1fi" fromLane="0" toLane="1" dir="t" state="M"/>
    <connection from=":2_0" to="2fi" fromLane="0" toLane="1" dir="t" state="M"/>
    <connection from=":3_0" to="3fi" fromLane="0" toLane="1" dir="t" state="M"/>
    <connection from=":4_0" to="4fi" fromLane="0" toLane="1" dir="t" state="M"/>
    <connection from=":m1_0" to="1si" fromLane="0" toLane="0" dir="s" state="M"/>
    <connection from=":m1_0" to="1si" fromLane="1" toLane="1" dir="s" state="M"/>
    <connection from=":m1_0" to="1si" fromLane="2" toLane="2" dir="s" state="M"/>
    <connection from=":m2_0" to="2si" fromLane="0" toLane="0" dir="s" state="M"/>
    <connection from=":m2_0" to="2si" fromLane="1" toLane="1" dir="s" state="M"/>
    <connection from=":m2_0" to="2si" fromLane="2" toLane="2" dir="s" state="M"/>
    <connection from=":m3_0" to="3si" fromLane="0" toLane="0" dir="s" state="M"/>
    <connection from=":m3_0" to="3si" fromLane="1" toLane="1" dir="s" state="M"/>
    <connection from=":m3_0" to="3si" fromLane="2" toLane="2" dir="s" state="M"/>
    <connection from=":m4_0" to="4si" fromLane="0" toLane="0" dir="s" state="M"/>
    <connection from=":m4_0" to="4si" fromLane="1" toLane="1" dir="s" state="M"/>
    <connection from=":m4_0" to="4si" fromLane="2" toLane="2" dir="s" state="M"/>

</net>
