<?xml version="1.0" encoding="UTF-8"?>

<!-- generated on 2022-04-20 09:45:29 by Eclipse SUMO netedit Version v1_12_0+2162-c3148f59955
-->

<routes xmlns:xsi="http://www.w3.org/2001/XMLSchema-instance" xsi:noNamespaceSchemaLocation="http://sumo.dlr.de/xsd/routes_file.xsd">
    <!-- Vehicles, persons and containers (sorted by depart) -->
    <person id="f_0" color="red" departPos="0.00" depart="10.00">
        <param key="KeyA1" value="valueA1"/>
        <param key="KeyA3" value="valueA2"/>
        <param key="KeyA2" value="valueA3"/>
        <ride from="gneE2" to="gneE5"/>
    </person>
    <person id="f_1" color="blue" departPos="11.00" depart="12.00">
        <param key="KeyB1" value="valueB1"/>
        <param key="KeyB3" value="valueB2"/>
        <param key="KeyB2" value="valueB3"/>
        <ride from="gneE4" to="gneE5"/>
    </person>
</routes>
