<?xml version="1.0" encoding="UTF-8"?>

<!-- generated on 2021-08-18 16:19:54 by Eclipse SUMO polyconvert Version v1_10_0+0066-c7c9156
This data file and the accompanying materials
are made available under the terms of the Eclipse Public License v2.0
which accompanies this distribution, and is available at
http://www.eclipse.org/legal/epl-v20.html
SPDX-License-Identifier: EPL-2.0
<configuration xmlns:xsi="http://www.w3.org/2001/XMLSchema-instance" xsi:noNamespaceSchemaLocation="http://sumo.dlr.de/xsd/polyconvertConfiguration.xsd">

    <input>
        <dlr-navteq-poi-files value="dlr_navteq_pois.txt"/>
    </input>

    <output>
        <write-license value="true"/>
        <output-file value="pois.poi.xml"/>
    </output>

    <projection>
        <proj.scale value="1e-05"/>
        <proj.utm value="true"/>
        <proj.plain-geo value="true"/>
    </projection>

    <report>
        <verbose value="true"/>
        <xml-validation value="never"/>
    </report>

</configuration>
-->

<additional xmlns:xsi="http://www.w3.org/2001/XMLSchema-instance" xsi:noNamespaceSchemaLocation="http://sumo.dlr.de/xsd/additional_file.xsd">
    <poi id="1" type="unknown" color="51,128,255" layer="-1.000000" lon="13.008010" lat="52.164750"/>
    <poi id="2" type="unknown" color="51,128,255" layer="-1.00" lon="12.952570" lat="52.232820"/>
</additional>
