<?xml version="1.0" encoding="UTF-8"?>

<!-- generated on Tue Dec  5 07:25:18 2017 by SUMO Version v0_31_0+1448-250e844
<?xml version="1.0" encoding="UTF-8"?>

<configuration xmlns:xsi="http://www.w3.org/2001/XMLSchema-instance" xsi:noNamespaceSchemaLocation="http://sumo.dlr.de/xsd/sumoConfiguration.xsd">

    <input>
        <net-file value="net.net.xml"/>
        <route-files value="input_routes.rou.xml"/>
    </input>

    <output>
        <stop-output value="stopinfos.xml"/>
    </output>

    <report>
        <xml-validation value="never"/>
        <duration-log.disable value="true"/>
        <no-step-log value="true"/>
    </report>

</configuration>
-->

<stops xmlns:xsi="http://www.w3.org/2001/XMLSchema-instance" xsi:noNamespaceSchemaLocation="http://sumo.dlr.de/xsd/stopinfo_file.xsd">
    <stopinfo id="bus1.0" type="DEFAULT_VEHTYPE" lane="beg_0" pos="6.00" parking="0" started="2.00" ended="51.00" delay="1.00" initialPersons="0" loadedPersons="0" unloadedPersons="0" initialContainers="0" loadedContainers="0" unloadedContainers="0"/>
    <stopinfo id="bus1.0" type="DEFAULT_VEHTYPE" lane="end_0" pos="4.00" parking="0" started="77.00" ended="101.00" delay="1.00" initialPersons="0" loadedPersons="0" unloadedPersons="0" initialContainers="0" loadedContainers="0" unloadedContainers="0"/>
    <stopinfo id="bus1.1" type="DEFAULT_VEHTYPE" lane="beg_0" pos="6.00" parking="0" started="102.00" ended="151.00" delay="1.00" initialPersons="0" loadedPersons="0" unloadedPersons="0" initialContainers="0" loadedContainers="0" unloadedContainers="0"/>
    <stopinfo id="bus1.1" type="DEFAULT_VEHTYPE" lane="end_0" pos="4.00" parking="0" started="177.00" ended="201.00" delay="1.00" initialPersons="0" loadedPersons="0" unloadedPersons="0" initialContainers="0" loadedContainers="0" unloadedContainers="0"/>
    <stopinfo id="bus1.2" type="DEFAULT_VEHTYPE" lane="beg_0" pos="6.00" parking="0" started="202.00" ended="251.00" delay="1.00" initialPersons="0" loadedPersons="0" unloadedPersons="0" initialContainers="0" loadedContainers="0" unloadedContainers="0"/>
    <stopinfo id="bus1.2" type="DEFAULT_VEHTYPE" lane="end_0" pos="4.00" parking="0" started="277.00" ended="301.00" delay="1.00" initialPersons="0" loadedPersons="0" unloadedPersons="0" initialContainers="0" loadedContainers="0" unloadedContainers="0"/>
    <stopinfo id="bus2.0" type="DEFAULT_VEHTYPE" lane="beg_0" pos="6.00" parking="0" started="502.00" ended="551.00" delay="1.00" initialPersons="0" loadedPersons="0" unloadedPersons="0" initialContainers="0" loadedContainers="0" unloadedContainers="0"/>
    <stopinfo id="bus2.0" type="DEFAULT_VEHTYPE" lane="end_0" pos="4.00" parking="0" started="577.00" ended="601.00" delay="1.00" initialPersons="0" loadedPersons="0" unloadedPersons="0" initialContainers="0" loadedContainers="0" unloadedContainers="0"/>
    <stopinfo id="bus2.1" type="DEFAULT_VEHTYPE" lane="beg_0" pos="6.00" parking="0" started="602.00" ended="651.00" delay="1.00" initialPersons="0" loadedPersons="0" unloadedPersons="0" initialContainers="0" loadedContainers="0" unloadedContainers="0"/>
    <stopinfo id="bus2.1" type="DEFAULT_VEHTYPE" lane="end_0" pos="4.00" parking="0" started="677.00" ended="701.00" delay="1.00" initialPersons="0" loadedPersons="0" unloadedPersons="0" initialContainers="0" loadedContainers="0" unloadedContainers="0"/>
    <stopinfo id="bus3.0" type="DEFAULT_VEHTYPE" lane="beg_0" pos="6.00" parking="0" started="1002.00" ended="1051.00" delay="1.00" initialPersons="0" loadedPersons="0" unloadedPersons="0" initialContainers="0" loadedContainers="0" unloadedContainers="0"/>
    <stopinfo id="bus3.0" type="DEFAULT_VEHTYPE" lane="end_0" pos="4.00" parking="0" started="1077.00" ended="1101.00" delay="1.00" initialPersons="0" loadedPersons="0" unloadedPersons="0" initialContainers="0" loadedContainers="0" unloadedContainers="0"/>
    <stopinfo id="bus3.1" type="DEFAULT_VEHTYPE" lane="beg_0" pos="6.00" parking="0" started="1102.00" ended="1151.00" delay="1.00" initialPersons="0" loadedPersons="0" unloadedPersons="0" initialContainers="0" loadedContainers="0" unloadedContainers="0"/>
    <stopinfo id="bus3.1" type="DEFAULT_VEHTYPE" lane="end_0" pos="4.00" parking="0" started="1177.00" ended="1201.00" delay="1.00" initialPersons="0" loadedPersons="0" unloadedPersons="0" initialContainers="0" loadedContainers="0" unloadedContainers="0"/>
    <stopinfo id="bus3.2" type="DEFAULT_VEHTYPE" lane="beg_0" pos="6.00" parking="0" started="1202.00" ended="1251.00" delay="1.00" initialPersons="0" loadedPersons="0" unloadedPersons="0" initialContainers="0" loadedContainers="0" unloadedContainers="0"/>
    <stopinfo id="bus3.2" type="DEFAULT_VEHTYPE" lane="end_0" pos="4.00" parking="0" started="1277.00" ended="1301.00" delay="1.00" initialPersons="0" loadedPersons="0" unloadedPersons="0" initialContainers="0" loadedContainers="0" unloadedContainers="0"/>
    <stopinfo id="bus4.0" type="DEFAULT_VEHTYPE" lane="beg_0" pos="6.00" parking="0" started="1502.00" ended="1551.00" delay="1.00" initialPersons="0" loadedPersons="0" unloadedPersons="0" initialContainers="0" loadedContainers="0" unloadedContainers="0"/>
    <stopinfo id="bus4.0" type="DEFAULT_VEHTYPE" lane="end_0" pos="4.00" parking="0" started="1577.00" ended="1601.00" delay="1.00" initialPersons="0" loadedPersons="0" unloadedPersons="0" initialContainers="0" loadedContainers="0" unloadedContainers="0"/>
    <stopinfo id="bus4.1" type="DEFAULT_VEHTYPE" lane="beg_0" pos="6.00" parking="0" started="1602.00" ended="1651.00" delay="1.00" initialPersons="0" loadedPersons="0" unloadedPersons="0" initialContainers="0" loadedContainers="0" unloadedContainers="0"/>
    <stopinfo id="bus4.1" type="DEFAULT_VEHTYPE" lane="end_0" pos="4.00" parking="0" started="1677.00" ended="1701.00" delay="1.00" initialPersons="0" loadedPersons="0" unloadedPersons="0" initialContainers="0" loadedContainers="0" unloadedContainers="0"/>
</stops>
