<?xml version="1.0" encoding="UTF-8"?>

<!-- generated on 07.08.2019 12:07:01 by Eclipse SUMO netedit Version v1_2_0+1449-4e81e5b6f5
-->

<additional xmlns:xsi="http://www.w3.org/2001/XMLSchema-instance" xsi:noNamespaceSchemaLocation="http://sumo.dlr.de/xsd/additional_file.xsd">
    <instantInductionLoop id="E1_03" lane="gneE0_0" pos="12.00" file="fileA.txt" vTypes="type1 type2 type3"/>
</additional>
