<?xml version="1.0" encoding="UTF-8"?>

<!-- generated on 2022-01-18 12:36:04 by Eclipse SUMO netedit Version v1_11_0+1211-1b1dce94384
-->

<additional xmlns:xsi="http://www.w3.org/2001/XMLSchema-instance" xsi:noNamespaceSchemaLocation="http://sumo.dlr.de/xsd/additional_file.xsd">
    <e1Detector id="E1_01" lane="gneE0_0" pos="3.00" freq="100.00" file="fileA.txt" vTypes="bus taxi private">
        <param key="$$key with spaces%%" value="value4"/>
        <param key="key1" value="value5"/>
        <param key="key2" value=""/>
        <param key="key3" value="$$value with spaces%%"/>
        <param key="keyFinal" value="valueFinal"/>
    </e1Detector>
</additional>
