<routes>
    <vType id="DEFAULT_VEHTYPE" sigma="0" jmTimegapMinor="3.0"/>

    <route id="NS" edges="NC CS"/>
    <route id="EW" edges="EC CW"/>

    <vehicle id="prio"   route="NS" depart="0" departPos="-60" departSpeed="max"/>
    <vehicle id="noprio" route="EW" depart="0" departPos="-0.1" departSpeed="0"/>
</routes>
