<?xml version="1.0" encoding="UTF-8"?>

<!-- generated on 2022-06-01 15:33:06 by Eclipse SUMO netedit Version v1_13_0+0541-af1312cc9f7
-->

<routes xmlns:xsi="http://www.w3.org/2001/XMLSchema-instance" xsi:noNamespaceSchemaLocation="http://sumo.dlr.de/xsd/routes_file.xsd">
    <!-- Vehicles, persons and containers (sorted by depart) -->
    <personFlow id="p_5" begin="0.00" number="30" personsPerHour="1200.00">
        <personTrip from="gneE2" to="gneE5"/>
    </personFlow>
</routes>
