<routes>
<vehicle id="213" depart="triggered" >
  <route edges="1fi" />
</vehicle>
<person id="4" depart="1" />
</routes>
