<?xml version="1.0" encoding="UTF-8"?>

<!-- generated on 2022-06-03 15:47:48 by Eclipse SUMO netedit Version v1_13_0+0610-e5b7f68bfcb
-->

<additional xmlns:xsi="http://www.w3.org/2001/XMLSchema-instance" xsi:noNamespaceSchemaLocation="http://sumo.dlr.de/xsd/additional_file.xsd">
    <!-- Detectors -->
    <inductionLoop id="customID" lane="gneE0_0" pos="14.00" period="300.00" file="customID.xml"/>
    <inductionLoop id="e1_0" lane="gneE0_0" pos="5.00" period="300.00" file="e1_0.xml"/>
</additional>
