<?xml version="1.0" encoding="UTF-8"?>

<!-- generated on 2022-01-20 14:33:49 by Eclipse SUMO sumo Version v1_11_0+1329-95d2bce
This data file and the accompanying materials
are made available under the terms of the Eclipse Public License v2.0
which accompanies this distribution, and is available at
http://www.eclipse.org/legal/epl-v20.html
SPDX-License-Identifier: EPL-2.0
<configuration xmlns:xsi="http://www.w3.org/2001/XMLSchema-instance" xsi:noNamespaceSchemaLocation="http://sumo.dlr.de/xsd/sumoConfiguration.xsd">

    <input>
        <net-file value="net.net.xml"/>
        <route-files value="input_routes.rou.xml"/>
        <additional-files value="input_additional.add.xml"/>
    </input>

    <output>
        <write-license value="true"/>
        <stop-output value="stopinfos.xml"/>
    </output>

    <processing>
        <default.speeddev value="0"/>
    </processing>

    <report>
        <verbose value="true"/>
        <xml-validation value="never"/>
        <xml-validation.routes value="never"/>
        <duration-log.disable value="true"/>
        <duration-log.statistics value="true"/>
        <no-step-log value="true"/>
    </report>

</configuration>
-->

<stops xmlns:xsi="http://www.w3.org/2001/XMLSchema-instance" xsi:noNamespaceSchemaLocation="http://sumo.dlr.de/xsd/stopinfo_file.xsd">
    <stopinfo id="f_0.0" type="DEFAULT_VEHTYPE" lane="E0_0" pos="247.98" parking="1" started="27.00" ended="87.00" delay="-1.00" initialPersons="0" loadedPersons="0" unloadedPersons="0" initialContainers="0" loadedContainers="0" unloadedContainers="0" parkingArea="pa_0"/>
    <stopinfo id="f_0.1" type="DEFAULT_VEHTYPE" lane="E0_0" pos="263.97" parking="1" started="39.00" ended="99.00" delay="-1.00" initialPersons="0" loadedPersons="0" unloadedPersons="0" initialContainers="0" loadedContainers="0" unloadedContainers="0" parkingArea="pa_0"/>
    <stopinfo id="f_0.2" type="DEFAULT_VEHTYPE" lane="E0_0" pos="272.00" parking="1" started="46.00" ended="106.00" delay="-1.00" initialPersons="0" loadedPersons="0" unloadedPersons="0" initialContainers="0" loadedContainers="0" unloadedContainers="0" parkingArea="pa_0"/>
    <stopinfo id="f_0.3" type="DEFAULT_VEHTYPE" lane="E0_0" pos="279.99" parking="1" started="52.00" ended="112.00" delay="-1.00" initialPersons="0" loadedPersons="0" unloadedPersons="0" initialContainers="0" loadedContainers="0" unloadedContainers="0" parkingArea="pa_0"/>
    <stopinfo id="f_0.4" type="DEFAULT_VEHTYPE" lane="E0_0" pos="288.00" parking="1" started="59.00" ended="119.00" delay="-1.00" initialPersons="0" loadedPersons="0" unloadedPersons="0" initialContainers="0" loadedContainers="0" unloadedContainers="0" parkingArea="pa_0"/>
    <stopinfo id="f_0.5" type="DEFAULT_VEHTYPE" lane="E0_0" pos="303.98" parking="1" started="71.00" ended="131.00" delay="-1.00" initialPersons="0" loadedPersons="0" unloadedPersons="0" initialContainers="0" loadedContainers="0" unloadedContainers="0" parkingArea="pa_0"/>
    <stopinfo id="f_0.6" type="DEFAULT_VEHTYPE" lane="E0_0" pos="328.00" parking="1" started="88.00" ended="148.00" delay="-1.00" initialPersons="0" loadedPersons="0" unloadedPersons="0" initialContainers="0" loadedContainers="0" unloadedContainers="0" parkingArea="pa_0"/>
    <stopinfo id="f_0.7" type="DEFAULT_VEHTYPE" lane="E0_0" pos="335.99" parking="1" started="93.00" ended="153.00" delay="-1.00" initialPersons="0" loadedPersons="0" unloadedPersons="0" initialContainers="0" loadedContainers="0" unloadedContainers="0" parkingArea="pa_0"/>
    <stopinfo id="f_1.0" type="DEFAULT_VEHTYPE" lane="E0_0" pos="255.98" parking="1" started="34.00" ended="154.00" delay="-1.00" initialPersons="0" loadedPersons="0" unloadedPersons="0" initialContainers="0" loadedContainers="0" unloadedContainers="0" parkingArea="pa_0"/>
    <stopinfo id="f_0.8" type="DEFAULT_VEHTYPE" lane="E0_0" pos="352.00" parking="1" started="106.00" ended="166.00" delay="-1.00" initialPersons="0" loadedPersons="0" unloadedPersons="0" initialContainers="0" loadedContainers="0" unloadedContainers="0" parkingArea="pa_0"/>
    <stopinfo id="f_0.9" type="DEFAULT_VEHTYPE" lane="E0_0" pos="263.99" parking="1" started="111.00" ended="171.00" delay="-1.00" initialPersons="0" loadedPersons="0" unloadedPersons="0" initialContainers="0" loadedContainers="0" unloadedContainers="0" parkingArea="pa_0"/>
    <stopinfo id="f_0.10" type="DEFAULT_VEHTYPE" lane="E0_0" pos="272.00" parking="1" started="119.00" ended="179.00" delay="-1.00" initialPersons="0" loadedPersons="0" unloadedPersons="0" initialContainers="0" loadedContainers="0" unloadedContainers="0" parkingArea="pa_0"/>
    <stopinfo id="f_1.1" type="DEFAULT_VEHTYPE" lane="E0_0" pos="295.98" parking="1" started="65.00" ended="185.00" delay="-1.00" initialPersons="0" loadedPersons="0" unloadedPersons="0" initialContainers="0" loadedContainers="0" unloadedContainers="0" parkingArea="pa_0"/>
    <stopinfo id="f_1.2" type="DEFAULT_VEHTYPE" lane="E0_0" pos="311.99" parking="1" started="76.00" ended="196.00" delay="-1.00" initialPersons="0" loadedPersons="0" unloadedPersons="0" initialContainers="0" loadedContainers="0" unloadedContainers="0" parkingArea="pa_0"/>
    <stopinfo id="f_1.3" type="DEFAULT_VEHTYPE" lane="E0_0" pos="319.99" parking="1" started="82.00" ended="202.00" delay="-1.00" initialPersons="0" loadedPersons="0" unloadedPersons="0" initialContainers="0" loadedContainers="0" unloadedContainers="0" parkingArea="pa_0"/>
    <stopinfo id="f_1.6" type="DEFAULT_VEHTYPE" lane="E0_0" pos="247.98" parking="1" started="96.00" ended="216.00" delay="-1.00" initialPersons="0" loadedPersons="0" unloadedPersons="0" initialContainers="0" loadedContainers="0" unloadedContainers="0" parkingArea="pa_0"/>
    <stopinfo id="f_1.4" type="DEFAULT_VEHTYPE" lane="E0_0" pos="343.99" parking="1" started="99.00" ended="219.00" delay="-1.00" initialPersons="0" loadedPersons="0" unloadedPersons="0" initialContainers="0" loadedContainers="0" unloadedContainers="0" parkingArea="pa_0"/>
    <stopinfo id="f_1.5" type="DEFAULT_VEHTYPE" lane="E0_0" pos="359.99" parking="1" started="113.00" ended="233.00" delay="-1.00" initialPersons="0" loadedPersons="0" unloadedPersons="0" initialContainers="0" loadedContainers="0" unloadedContainers="0" parkingArea="pa_0"/>
    <stopinfo id="f_1.7" type="DEFAULT_VEHTYPE" lane="E0_0" pos="368.00" parking="1" started="119.00" ended="239.00" delay="-1.00" initialPersons="0" loadedPersons="0" unloadedPersons="0" initialContainers="0" loadedContainers="0" unloadedContainers="0" parkingArea="pa_0"/>
</stops>
