<?xml version="1.0" encoding="UTF-8"?>

<!-- generated on 2022-12-04 14:19:42 by Eclipse SUMO sumo Version v1_15_0+0751-db72905
This data file and the accompanying materials
are made available under the terms of the Eclipse Public License v2.0
which accompanies this distribution, and is available at
http://www.eclipse.org/legal/epl-v20.html
This file may also be made available under the following Secondary
Licenses when the conditions for such availability set forth in the Eclipse
Public License 2.0 are satisfied: GNU General Public License, version 2
or later which is available at
https://www.gnu.org/licenses/old-licenses/gpl-2.0-standalone.html
SPDX-License-Identifier: EPL-2.0 OR GPL-2.0-or-later
<configuration xmlns:xsi="http://www.w3.org/2001/XMLSchema-instance" xsi:noNamespaceSchemaLocation="http://sumo.dlr.de/xsd/sumoConfiguration.xsd">

    <input>
        <net-file value="net.net.xml"/>
        <route-files value="input_routes.rou.xml"/>
        <additional-files value="input_additional.add.xml"/>
    </input>

    <output>
        <write-license value="true"/>
        <stop-output value="stopinfos.xml"/>
    </output>

    <processing>
        <default.speeddev value="0"/>
    </processing>

    <report>
        <xml-validation value="never"/>
        <duration-log.disable value="true"/>
        <duration-log.statistics value="true"/>
        <no-step-log value="true"/>
    </report>

</configuration>
-->

<stops xmlns:xsi="http://www.w3.org/2001/XMLSchema-instance" xsi:noNamespaceSchemaLocation="http://sumo.dlr.de/xsd/stopinfo_file.xsd">
    <stopinfo id="f_0.0" type="DEFAULT_VEHTYPE" lane="E0_0" pos="247.98" parking="1" started="27.00" ended="87.00" delay="-1.00" initialPersons="0" loadedPersons="0" unloadedPersons="0" initialContainers="0" loadedContainers="0" unloadedContainers="0" parkingArea="pa_0"/>
    <stopinfo id="f_0.1" type="DEFAULT_VEHTYPE" lane="E0_0" pos="263.98" parking="1" started="38.00" ended="98.00" delay="-1.00" initialPersons="0" loadedPersons="0" unloadedPersons="0" initialContainers="0" loadedContainers="0" unloadedContainers="0" parkingArea="pa_0"/>
    <stopinfo id="f_0.2" type="DEFAULT_VEHTYPE" lane="E0_0" pos="271.98" parking="1" started="41.00" ended="101.00" delay="-1.00" initialPersons="0" loadedPersons="0" unloadedPersons="0" initialContainers="0" loadedContainers="0" unloadedContainers="0" parkingArea="pa_0"/>
    <stopinfo id="f_0.3" type="DEFAULT_VEHTYPE" lane="E0_0" pos="280.00" parking="1" started="46.00" ended="106.00" delay="-1.00" initialPersons="0" loadedPersons="0" unloadedPersons="0" initialContainers="0" loadedContainers="0" unloadedContainers="0" parkingArea="pa_0"/>
    <stopinfo id="f_0.4" type="DEFAULT_VEHTYPE" lane="E0_0" pos="287.99" parking="1" started="52.00" ended="112.00" delay="-1.00" initialPersons="0" loadedPersons="0" unloadedPersons="0" initialContainers="0" loadedContainers="0" unloadedContainers="0" parkingArea="pa_0"/>
    <stopinfo id="f_0.5" type="DEFAULT_VEHTYPE" lane="E0_0" pos="304.00" parking="1" started="62.00" ended="122.00" delay="-1.00" initialPersons="0" loadedPersons="0" unloadedPersons="0" initialContainers="0" loadedContainers="0" unloadedContainers="0" parkingArea="pa_0"/>
    <stopinfo id="f_0.6" type="DEFAULT_VEHTYPE" lane="E0_0" pos="328.00" parking="1" started="74.00" ended="134.00" delay="-1.00" initialPersons="0" loadedPersons="0" unloadedPersons="0" initialContainers="0" loadedContainers="0" unloadedContainers="0" parkingArea="pa_0"/>
    <stopinfo id="f_0.7" type="DEFAULT_VEHTYPE" lane="E0_0" pos="336.00" parking="1" started="79.00" ended="139.00" delay="-1.00" initialPersons="0" loadedPersons="0" unloadedPersons="0" initialContainers="0" loadedContainers="0" unloadedContainers="0" parkingArea="pa_0"/>
    <stopinfo id="f_0.8" type="DEFAULT_VEHTYPE" lane="E0_0" pos="351.99" parking="1" started="90.00" ended="150.00" delay="-1.00" initialPersons="0" loadedPersons="0" unloadedPersons="0" initialContainers="0" loadedContainers="0" unloadedContainers="0" parkingArea="pa_0"/>
    <stopinfo id="f_1.0" type="DEFAULT_VEHTYPE" lane="E0_0" pos="255.95" parking="1" started="34.00" ended="154.00" delay="-1.00" initialPersons="0" loadedPersons="0" unloadedPersons="0" initialContainers="0" loadedContainers="0" unloadedContainers="0" parkingArea="pa_0"/>
    <stopinfo id="f_0.9" type="DEFAULT_VEHTYPE" lane="E0_0" pos="272.00" parking="1" started="111.00" ended="171.00" delay="-1.00" initialPersons="0" loadedPersons="0" unloadedPersons="0" initialContainers="0" loadedContainers="0" unloadedContainers="0" parkingArea="pa_0"/>
    <stopinfo id="f_1.1" type="DEFAULT_VEHTYPE" lane="E0_0" pos="296.00" parking="1" started="57.00" ended="177.00" delay="-1.00" initialPersons="0" loadedPersons="0" unloadedPersons="0" initialContainers="0" loadedContainers="0" unloadedContainers="0" parkingArea="pa_0"/>
    <stopinfo id="f_0.10" type="DEFAULT_VEHTYPE" lane="E0_0" pos="279.99" parking="1" started="118.00" ended="178.00" delay="-1.00" initialPersons="0" loadedPersons="0" unloadedPersons="0" initialContainers="0" loadedContainers="0" unloadedContainers="0" parkingArea="pa_0"/>
    <stopinfo id="f_1.2" type="DEFAULT_VEHTYPE" lane="E0_0" pos="312.00" parking="1" started="66.00" ended="186.00" delay="-1.00" initialPersons="0" loadedPersons="0" unloadedPersons="0" initialContainers="0" loadedContainers="0" unloadedContainers="0" parkingArea="pa_0"/>
    <stopinfo id="f_1.3" type="DEFAULT_VEHTYPE" lane="E0_0" pos="319.98" parking="1" started="70.00" ended="190.00" delay="-1.00" initialPersons="0" loadedPersons="0" unloadedPersons="0" initialContainers="0" loadedContainers="0" unloadedContainers="0" parkingArea="pa_0"/>
    <stopinfo id="f_1.4" type="DEFAULT_VEHTYPE" lane="E0_0" pos="344.00" parking="1" started="85.00" ended="205.00" delay="-1.00" initialPersons="0" loadedPersons="0" unloadedPersons="0" initialContainers="0" loadedContainers="0" unloadedContainers="0" parkingArea="pa_0"/>
    <stopinfo id="f_1.5" type="DEFAULT_VEHTYPE" lane="E0_0" pos="359.98" parking="1" started="95.00" ended="215.00" delay="-1.00" initialPersons="0" loadedPersons="0" unloadedPersons="0" initialContainers="0" loadedContainers="0" unloadedContainers="0" parkingArea="pa_0"/>
    <stopinfo id="f_1.6" type="DEFAULT_VEHTYPE" lane="E0_0" pos="247.99" parking="1" started="97.00" ended="217.00" delay="-1.00" initialPersons="0" loadedPersons="0" unloadedPersons="0" initialContainers="0" loadedContainers="0" unloadedContainers="0" parkingArea="pa_0"/>
    <stopinfo id="f_1.7" type="DEFAULT_VEHTYPE" lane="E0_0" pos="263.98" parking="1" started="105.00" ended="225.00" delay="-1.00" initialPersons="0" loadedPersons="0" unloadedPersons="0" initialContainers="0" loadedContainers="0" unloadedContainers="0" parkingArea="pa_0"/>
</stops>
