<?xml version="1.0" encoding="UTF-8"?>
<!-- generated on 2020-10-02 09:27:47.871044 by routeSampler.py v1_7_0+0417-5fedd06455
  options: -r input_routes2.rou.xml -t input_turns.xml -o out.rou.xml <doubleminus>optimize 5 <doubleminus>minimize-vehicles 0.5 -I -f number
-->
<routes xmlns:xsi="http://www.w3.org/2001/XMLSchema-instance" xsi:noNamespaceSchemaLocation="http://sumo.dlr.de/xsd/routes_file.xsd">
<!-- begin="0.0" end="99.0" -->
    <route id="4" edges="-131 -131.180.00 -109 -109.80.00 -11 -11.80.00 3 3.180.00 27"/> <!-- 3 -->
    <route id="8" edges="-15 -15.180.00 15 15.180.00"/> <!-- 1 -->
    <route id="11" edges="-27 -27.80.00 27 27.80.00 43 68 -45"/> <!-- 1 -->
    <route id="12" edges="-27.80.00 -3 -3.180.00 11 11.80.00 23 23.80.00 31 31.80.00 60 60.80.00 75 75.121.42"/> <!-- 2 -->
    <route id="13" edges="-3.180.00 11 11.80.00 109 109.80.00 123"/> <!-- 2 -->
    <route id="14" edges="-37 -37.80.00 -23 -23.80.00 109 109.80.00 131 131.180.00"/> <!-- 4 -->
    <route id="16" edges="-43 -43.80.00 -27 -27.80.00 -3 -3.180.00 11 11.80.00 23 23.80.00 31 31.80.00 60 60.80.00 -60 -60.80.00"/> <!-- 1 -->
    <route id="17" edges="-45 -45.80.00 -27 -27.80.00 -3 -3.180.00 3"/> <!-- 1 -->
    <route id="18" edges="-58 -58.121.42 -31 -31.80.00 -23 -23.80.00 -11 -11.80.00 3 3.180.00 27 27.80.00 43 68 -45 -45.80.00"/> <!-- 2 -->
    <route id="19" edges="-58.121.42 -31 -31.80.00 -23 -23.80.00 -11 -11.80.00 3 3.180.00 27"/> <!-- 1 -->
    <route id="20" edges="-60 -60.80.00 -31 -31.80.00 -23 -23.80.00 -11 -11.80.00 3 3.180.00 -3 -3.180.00"/> <!-- 5 -->
    <route id="22" edges="-75 -75.121.42 -60 -60.80.00 -31 -31.80.00 -23 -23.80.00 23 23.80.00"/> <!-- 1 -->
    <route id="23" edges="-79 -79.80.00 75 75.121.42 120 120.180.00 -120 -120.180.00"/> <!-- 2 -->
    <route id="24" edges="-92 -92.180.00 75 75.121.42 120 120.180.00 123 123.121.42 -15 -15.180.00"/> <!-- 1 -->
    <route id="25" edges="-92.180.00 -60 -60.80.00 -31 -31.80.00 -23 -23.80.00 -11 -11.80.00 3 3.180.00 -3 -3.180.00"/> <!-- 1 -->
    <route id="26" edges="109.80.00 -109 -109.80.00 -11 -11.80.00 5"/> <!-- 2 -->
    <route id="27" edges="120 120.180.00 -109 -109.80.00 23 23.80.00 -23"/> <!-- 1 -->
    <route id="28" edges="123 123.121.42 -123 -123.121.42 -109 -109.80.00 23 23.80.00 31 31.80.00 64 64.80.00"/> <!-- 1 -->
    <route id="31" edges="144 144.121.42 -123 -123.121.42 -120 -120.180.00 120"/> <!-- 2 -->
    <route id="32" edges="144 144.121.42 -15 -15.180.00 3 3.180.00 -71 -55 -55.80.00"/> <!-- 4 -->
    <route id="35" edges="15 15.180.00 -123 -123.121.42 -120 -120.180.00 -75 -75.121.42 -60"/> <!-- 2 -->
    <route id="39" edges="27 27.80.00 -27 -27.80.00 -3 -3.180.00 15 15.180.00 -144 -144.121.42 -131"/> <!-- 2 -->
    <route id="42" edges="31.80.00 -31 -31.80.00 -23 -23.80.00 -11 -11.80.00 3 3.180.00 27 27.80.00 -27 -27.80.00"/> <!-- 2 -->
    <route id="43" edges="43 68 -45 -45.80.00 -27 -27.80.00 27 27.80.00 45"/> <!-- 1 -->
    <route id="44" edges="45 -68 -43 -43.80.00 -27 -27.80.00 -3 -3.180.00 15 15.180.00"/> <!-- 3 -->
    <route id="48" edges="75.121.42 -64 -64.80.00 -31 -31.80.00 -23 -23.80.00 -11"/> <!-- 1 -->

    <flow id="20" begin="0.00" end="94.96" number="5" route="20"/>
    <flow id="4" begin="2.02" end="84.86" number="3" route="4"/>
    <flow id="12" begin="6.06" end="58.59" number="2" route="12"/>
    <flow id="13" begin="8.08" end="62.63" number="2" route="13"/>
    <flow id="32" begin="10.10" end="86.88" number="4" route="32"/>
    <flow id="31" begin="12.12" end="66.67" number="2" route="31"/>
    <flow id="14" begin="14.14" end="76.78" number="4" route="14"/>
    <flow id="39" begin="16.16" end="48.49" number="2" route="39"/>
    <flow id="22" begin="24.24" end="25.24" number="1" route="22"/>
    <flow id="35" begin="26.27" end="38.39" number="2" route="35"/>
    <flow id="16" begin="28.29" end="29.29" number="1" route="16"/>
    <flow id="17" begin="30.31" end="31.31" number="1" route="17"/>
    <flow id="44" begin="32.33" end="92.94" number="3" route="44"/>
    <flow id="26" begin="34.35" end="64.65" number="2" route="26"/>
    <flow id="42" begin="36.37" end="88.90" number="2" route="42"/>
    <flow id="23" begin="40.41" end="90.92" number="2" route="23"/>
    <flow id="19" begin="44.45" end="45.45" number="1" route="19"/>
    <flow id="48" begin="46.47" end="47.47" number="1" route="48"/>
    <flow id="18" begin="50.51" end="70.71" number="2" route="18"/>
    <flow id="28" begin="52.53" end="53.53" number="1" route="28"/>
    <flow id="43" begin="54.55" end="55.55" number="1" route="43"/>
    <flow id="24" begin="56.57" end="57.57" number="1" route="24"/>
    <flow id="11" begin="72.73" end="73.73" number="1" route="11"/>
    <flow id="25" begin="80.82" end="81.82" number="1" route="25"/>
    <flow id="27" begin="82.84" end="83.84" number="1" route="27"/>
    <flow id="8" begin="96.98" end="97.98" number="1" route="8"/>
</routes>
