<?xml version="1.0" encoding="UTF-8"?>

<!-- generated on 2023-07-06 14:34:27 by Eclipse SUMO netedit Version v1_18_0+0154-2cecf1f1665
-->

<routes xmlns:xsi="http://www.w3.org/2001/XMLSchema-instance" xsi:noNamespaceSchemaLocation="http://sumo.dlr.de/xsd/routes_file.xsd">
    <!-- Vehicles, persons and containers (sorted by depart) -->
    <containerFlow id="cf_0" begin="0.00" end="3600.00" period="2.00">
        <tranship from="Edge0" containerStop="containerStopA" departPos="0.00"/>
    </containerFlow>
    <containerFlow id="cf_1" begin="0.00" end="3600.00" period="20.50">
        <tranship from="Edge0" containerStop="containerStopA" departPos="0.00"/>
    </containerFlow>
    <containerFlow id="cf_2" begin="0.00" end="3600.00" period="22.00">
        <tranship from="Edge0" containerStop="containerStopA" departPos="0.00"/>
    </containerFlow>
</routes>
