<?xml version="1.0" encoding="UTF-8"?>

<!-- generated on 2023-04-24 14:50:59 by Eclipse SUMO netedit Version v1_16_0+2366-f1efea7ef7d
-->

<routes xmlns:xsi="http://www.w3.org/2001/XMLSchema-instance" xsi:noNamespaceSchemaLocation="http://sumo.dlr.de/xsd/routes_file.xsd">
    <!-- Routes -->
    <route id="r_0" edges="center1 E5 top E0 E1 bot E4 center0"/>
    <!-- Vehicles, persons and containers (sorted by depart) -->
    <flow id="f_0" begin="0.00" route="r_0" end="3600.00" vehsPerHour="180.00"/>
</routes>
