<?xml version="1.0" encoding="UTF-8"?>

<!-- generated on 2024-04-29 21:03:49 by Eclipse SUMO sumo Version v1_19_0+1989-e5b78432182
This data file and the accompanying materials
are made available under the terms of the Eclipse Public License v2.0
which accompanies this distribution, and is available at
http://www.eclipse.org/legal/epl-v20.html
This file may also be made available under the following Secondary
Licenses when the conditions for such availability set forth in the Eclipse
Public License 2.0 are satisfied: GNU General Public License, version 2
or later which is available at
https://www.gnu.org/licenses/old-licenses/gpl-2.0-standalone.html
SPDX-License-Identifier: EPL-2.0 OR GPL-2.0-or-later
<configuration xmlns:xsi="http://www.w3.org/2001/XMLSchema-instance" xsi:noNamespaceSchemaLocation="http://sumo.dlr.de/xsd/sumoConfiguration.xsd">

    <input>
        <net-file value="elechybrid_2.net.xml"/>
        <route-files value="trolleybuses.rou.xml"/>
        <additional-files value="overheadwires.add.xml"/>
    </input>

    <output>
        <write-license value="true"/>
        <elechybrid-output value="elechybrid_out"/>
        <elechybrid-output.precision value="4"/>
        <elechybrid-output.aggregated value="false"/>
        <overheadwiresegments-output value="overheadwires_out.xml"/>
        <substations-output value="substation_out.xml"/>
        <tripinfo-output.write-unfinished value="true"/>
        <stop-output value="stopinfo_out.xml"/>
    </output>

    <time>
        <end value="50"/>
    </time>

    <processing>
        <no-internal-links value="true"/>
        <ignore-route-errors value="true"/>
        <default.speeddev value="0"/>
        <overhead-wire.solver value="true"/>
    </processing>

    <report>
        <xml-validation value="never"/>
        <duration-log.disable value="true"/>
        <no-step-log value="true"/>
    </report>

    <elechybrid_device>
        <device.elechybrid.explicit value="test1,test2"/>
    </elechybrid_device>

    <mesoscopic>
        <mesosim value="true"/>
    </mesoscopic>

</configuration>
-->

<elecHybrid-export vehicle="test2" maximumBatteryCapacity="46000.00" recuperationEnabled="1">
    <timestep time="0.00" actualBatteryCapacity="23000.0000" energyConsumed="0.0000" energyCharged="0.0000" power="nan" overheadWireId="" tractionSubstationId="" current="nan" circuitVoltage="nan" alphaCircuitSolver="nan" speed="13.8868" acceleration="0.0000" distance="0.0000" x="36.1600" y="33.7600" z="0.0000" slope="0.0000" posOnLane="0.0000"/>
    <timestep time="1.00" actualBatteryCapacity="23000.0000" energyConsumed="0.0000" energyCharged="0.0000" power="nan" overheadWireId="" tractionSubstationId="" current="nan" circuitVoltage="nan" alphaCircuitSolver="nan" speed="13.8868" acceleration="0.0000" distance="0.0000" x="36.1600" y="33.7600" z="0.0000" slope="0.0000" posOnLane="0.0000"/>
    <timestep time="2.00" actualBatteryCapacity="23000.0000" energyConsumed="0.0000" energyCharged="0.0000" power="nan" overheadWireId="" tractionSubstationId="" current="nan" circuitVoltage="nan" alphaCircuitSolver="nan" speed="13.8864" acceleration="0.0000" distance="26.0600" x="47.1100" y="-4.8900" z="0.0000" slope="0.0000" posOnLane="0.0000"/>
</elecHybrid-export>
