<?xml version="1.0" encoding="UTF-8"?>

<!-- generated on Thu Sep  6 09:32:33 2018 by Eclipse SUMO netconvert Version v1_0_0+0032-77a1026
-->

<configuration xmlns:xsi="http://www.w3.org/2001/XMLSchema-instance" xsi:noNamespaceSchemaLocation="http://sumo.dlr.de/xsd/netconvertConfiguration.xsd">

    <input>
        <node-files value="../../../../networkInputs/bell_pfe/bell_pfe_koeln.nod.xml"/>
        <edge-files value="../../../../networkInputs/bell_pfe/bell_pfe_koeln.edg.xml"/>
        <connection-files value="../../../../networkInputs/bell_pfe/bell_pfe_koeln.con.xml"/>
    </input>

    <output>
        <output-file value="input_net.net.xml"/>
    </output>

    <junctions>
        <no-internal-links value="true"/>
        <no-turnarounds value="true"/>
    </junctions>

</configuration>
