<?xml version="1.0" encoding="UTF-8"?>

<!-- generated on 2022-03-28 11:35:46 by Eclipse SUMO netedit Version v1_12_0+1694-dbcee7b494b
-->

<routes xmlns:xsi="http://www.w3.org/2001/XMLSchema-instance" xsi:noNamespaceSchemaLocation="http://sumo.dlr.de/xsd/routes_file.xsd">
    <!-- Vehicles, persons and containers (sorted by depart) -->
    <trip id="t_0" depart="0.00" arrivalLane="random" fromJunction="gneJ4" toJunction="gneJ7"/>
    <trip id="t_1" depart="0.00" arrivalLane="20" fromJunction="gneJ4" toJunction="gneJ7"/>
</routes>
