<?xml version="1.0"?>

<!-- generated on 01/05/10 14:16:53 by SUMO polyconvert Version dev-SVN-r8106
<configuration>

    <input>
        <net-file value="input_net.net.xml"/>
        <dlr-navteq-poly-files value="dlr_navteq_polygons.txt"/>
    </input>

    <output>
        <output value="pois.poi.xml"/>
    </output>

    <projection>
        <proj.shift value="5"/>
        <proj value="+proj=utm +zone=33 +ellps=WGS84 +datum=WGS84 +units=m +no_defs"/>
    </projection>

    <processing>
        <x-offset-to-apply value="-328248"/>
        <y-offset-to-apply value="-5.77662e+006"/>
    </processing>

    <report>
        <verbose value="true"/>
    </report>

</configuration>
-->

<shapes>
    <poly id="noname#0" type="unknown" color="0.20,0.50,1.00" fill="0" layer="-1" shape="38161.38,9358.00 38184.03,9311.00 38301.22,9271.00"/>
    <poly id="noname#1" type="unknown" color="0.20,0.50,1.00" fill="0" layer="-1" shape="39893.88,3159.50 40328.84,2834.00 40363.50,2953.50 40369.97,3146.00"/>
</shapes>
