<edges>
   <edge id="1fi" priority="100"/>
</edges>
