<routes xmlns:xsi="http://www.w3.org/2001/XMLSchema-instance" xsi:noNamespaceSchemaLocation="http://sumo.dlr.de/xsd/routes_file.xsd">
   <vType id="DEFAULT_VEHTYPE" sigma="0"/>
    <vehicle id="v1" depart="triggered" departPos="15" line="v1">
        <route edges="beg middle end"/>
    </vehicle>
    <person id="p1" depart="3">
        <ride from="beg" to="end" lines="v1"/>
    </person>
</routes>
