<?xml version="1.0"?>

<!-- generated on 09/24/09 13:16:04 by SUMO duarouter Version dev-SVN-r7781
<configuration>

    <input>
        <net-file value="input_net.net.xml"/>
        <sumo-input value="input_routes.rou.xml"/>
    </input>

    <output>
        <output-file value="routes.rou.xml"/>
    </output>

</configuration>
-->

<routes>
   <vtype id="KRAUSS_DEFAULT" length="5.00" maxspeed="70.00" color="1.00,1.00,0.00">
      <carFollowing-Krauss accel="2.60" decel="4.50" sigma="0.50"/>
   </vtype>
   <vehicle id="0" type="KRAUSS_DEFAULT" depart="0.00">
      <route edges="beg middle end rend"/>
   </vehicle>
   <vehicle id="1" type="KRAUSS_DEFAULT" depart="10.00">
      <route color="1.00,0.00,0.00" edges="beg middle end rend"/>
   </vehicle>
   <vehicle id="2" type="KRAUSS_DEFAULT" depart="20.00" color="1.00,0.00,0.00">
      <route edges="beg middle end rend"/>
   </vehicle>
   <vehicle id="3" type="KRAUSS_DEFAULT" depart="30.00" color="1.00,0.00,0.00">
      <route color="1.00,0.00,0.00" edges="beg middle end rend"/>
   </vehicle>
</routes>
