<routes>
    <vType id="tEgo" vClass="motorcycle" latAlignment="right" sigma="0"/>
    <vType id="tSlow" vClass="motorcycle" latAlignment="right" speedFactor="0.5" sigma="0"/>

    <route id="r0" edges="beg"/>

    <vehicle id="ego" type="tEgo" route="r0" departPos="0" departPosLat="right" depart="0" departSpeed="max"/>
    <vehicle id="leader"  type="tSlow"  route="r0" departPos="100"  departPosLat="right" depart="0" departSpeed="max"/>

</routes>
