<tazs>
    <taz id="1" edges="">
    </taz>
    <taz id="2" edges="end rend">
    </taz>
</tazs>

