<?xml version="1.0"?>

<!-- generated on 11/24/11 12:39:38 by SUMO sumo Version dev-SVN-r11538
<?xml version="1.0" encoding="UTF-8"?>

<configuration xmlns:xsi="http://www.w3.org/2001/XMLSchema-instance" xsi:noNamespaceSchemaLocation="http://sumo.sf.net/xsd/sumoConfiguration.xsd">

    <input>
        <net-file value="net.net.xml"/>
        <additional-files value="input_routes.rou.xml,input_additional.add.xml,input_additional2.add.xml"/>
    </input>

    <time>
        <begin value="0"/>
        <end value="150"/>
    </time>

    <report>
        <no-duration-log value="true"/>
        <no-step-log value="true"/>
    </report>

</configuration>
-->

<netstats>
    <interval begin="15.00" end="30.00" id="dump_15">
        <edge id="4/1to3/1">
            <lane id="4/1to3/1_0" sampledSeconds="30.00" CO_abs="0" CO2_abs="50402.120093" HC_abs="8.825910" PMx_abs="2.938365" NOx_abs="79.970640" fuel_abs="20.094561"
            CO_normed="0" CO2_normed="30976.975217" HC_normed="5.424375" PMx_normed="1.805909" NOx_normed="49.149689" fuel_normed="12.350051"
            traveltime="39.05" CO_perVeh="0" CO2_perVeh="65606.759655" HC_perVeh="11.488393" PMx_perVeh="3.824771" NOx_perVeh="104.095116" fuel_perVeh="26.156421"/>
        </edge>
    </interval>
    <interval begin="45.00" end="60.00" id="dump_15">
        <edge id="3/1to2/1">
            <lane id="3/1to2/1_0" sampledSeconds="30.00" CO_abs="0" CO2_abs="50402.120093" HC_abs="8.825910" PMx_abs="2.938365" NOx_abs="79.970640" fuel_abs="20.094561"
            CO_normed="0" CO2_normed="30976.975217" HC_normed="5.424375" PMx_normed="1.805909" NOx_normed="49.149689" fuel_normed="12.350051"
            traveltime="39.05" CO_perVeh="0" CO2_perVeh="65606.759655" HC_perVeh="11.488393" PMx_perVeh="3.824771" NOx_perVeh="104.095116" fuel_perVeh="26.156421"/>
        </edge>
    </interval>
</netstats>
