<?xml version="1.0" encoding="UTF-8"?>

<!-- generated on 2021-08-30 13:44:43 by Eclipse SUMO netedit Version v1_10_0+0379-37f06a2396
<configuration xmlns:xsi="http://www.w3.org/2001/XMLSchema-instance" xsi:noNamespaceSchemaLocation="http://sumo.dlr.de/xsd/netconvertConfiguration.xsd">

    <input>
        <sumo-net-file value="C:\Users\SUMO-Test\.texttest\tmp\netedit.gui.30Aug124629.4172\netedit.gui\additionalElements\busstop\load\lines\input_net.net.xml"/>
    </input>

    <output>
        <output-file value="C:\Users\SUMO-Test\.texttest\tmp\netedit.gui.30Aug124629.4172\netedit.gui\additionalElements\busstop\load\lines\net.net.xml"/>
    </output>

    <processing>
        <geometry.min-radius.fix.railways value="false"/>
        <geometry.max-grade.fix value="false"/>
        <offset.disable-normalization value="true"/>
        <lefthand value="false"/>
    </processing>

    <junctions>
        <no-turnarounds value="true"/>
        <junctions.corner-detail value="5"/>
        <junctions.limit-turn-speed value="5.5"/>
        <rectangular-lane-cut value="false"/>
    </junctions>

    <pedestrian>
        <walkingareas value="false"/>
    </pedestrian>

    <netedit>
        <additional-files value="C:\Users\SUMO-Test\.texttest\tmp\netedit.gui.30Aug124629.4172\netedit.gui\additionalElements\busstop\load\lines\additionals.xml"/>
        <additionals-output value="C:\Users\SUMO-Test\.texttest\tmp\netedit.gui.30Aug124629.4172\netedit.gui\additionalElements\busstop\load\lines\additionals.xml"/>
        <route-files value="C:\Users\SUMO-Test\.texttest\tmp\netedit.gui.30Aug124629.4172\netedit.gui\additionalElements\busstop\load\lines\routes.xml"/>
        <demandelements-output value="C:\Users\SUMO-Test\.texttest\tmp\netedit.gui.30Aug124629.4172\netedit.gui\additionalElements\busstop\load\lines\routes.xml"/>
        <data-files value="C:\Users\SUMO-Test\.texttest\tmp\netedit.gui.30Aug124629.4172\netedit.gui\additionalElements\busstop\load\lines\datas.xml"/>
        <dataelements-output value="C:\Users\SUMO-Test\.texttest\tmp\netedit.gui.30Aug124629.4172\netedit.gui\additionalElements\busstop\load\lines\datas.xml"/>
    </netedit>

    <visualisation>
        <gui-settings-file value="C:\Users\SUMO-Test\.texttest\tmp\netedit.gui.30Aug124629.4172\netedit.gui\additionalElements\busstop\load\lines\gui-settings.xml"/>
        <window-size value="936,697"/>
        <window-pos value="50,50"/>
        <gui-testing value="true"/>
        <gui-testing-debug value="true"/>
        <gui-testing-debug-gl value="true"/>
        <gui-testing.setting-output value="C:\Users\SUMO-Test\.texttest\tmp\netedit.gui.30Aug124629.4172\netedit.gui\additionalElements\busstop\load\lines\guisettingsoutput.xml"/>
    </visualisation>

    <report>
        <no-warnings value="true"/>
        <aggregate-warnings value="5"/>
        <error-log value="C:\Users\SUMO-Test\.texttest\tmp\netedit.gui.30Aug124629.4172\netedit.gui\additionalElements\busstop\load\lines\log.txt"/>
    </report>

</configuration>
-->

<additional xmlns:xsi="http://www.w3.org/2001/XMLSchema-instance" xsi:noNamespaceSchemaLocation="http://sumo.dlr.de/xsd/additional_file.xsd">
    <busStop id="busStop_01" name="busStop" lane="gneE0_0" startPos="25.00" endPos="30.00"/>
    <busStop id="busStop_02" name="busStop" lane="gneE0_0" startPos="35.00" endPos="40.00" lines="line1, line2"/>
    <busStop id="busStop_03" name="busStop" lane="gneE0_0" startPos="45.00" endPos="50.00" lines="lineA lineB"/>
</additional>
