<?xml version="1.0" encoding="UTF-8"?>

<!-- generated on Mon Mar  5 10:04:46 2012 by SUMO netconvert Version dev-SVN-r12005
<?xml version="1.0" encoding="UTF-8"?>

<configuration xmlns:xsi="http://www.w3.org/2001/XMLSchema-instance" xsi:noNamespaceSchemaLocation="http://sumo.dlr.de/xsd/netconvertConfiguration.xsd">

    <input>
        <node-files value="input_nodes.nod.xml"/>
        <edge-files value="input_edges.edg.xml"/>
    </input>

    <output>
        <output-file value="net.net.xml"/>
        <junctions.join-output value="joined.nod.xml"/>
    </output>

    <processing>
        <junctions.join value="true"/>
    </processing>

</configuration>
-->

<nodes version="0.13" xmlns:xsi="http://www.w3.org/2001/XMLSchema-instance" xsi:noNamespaceSchemaLocation="http://sumo.dlr.de/xsd/nodes_file.xsd">
    <join nodes="301292612 38919945 56231397 59993001"/>
</nodes>
