<?xml version="1.0"?>

<!-- generated on 06/13/08 13:00:43 by SUMO netgen Version dev-SVN-r5584
<configuration>

   <grid_network>
      <grid-net>true</grid-net>
      <grid-y-number>2</grid-y-number>
   </grid_network>

</configuration>
-->

<net>

   <net-offset>0.000000,0.000000</net-offset>
   <conv-boundary>0.000000,0.000000,400.000000,100.000000</conv-boundary>
   <orig-boundary>0.000000,0.000000,400.000000,100.000000</orig-boundary>
   <orig-proj>!</orig-proj>

   <node_count>10</node_count>


   <edge id="0/0to0/1" from="0/0" to="0/1" priority="-1" type="netgen-default" function="normal">
      <lanes>
         <lane id="0/0to0/1_0" depart="1" vclasses="" maxspeed="13.90" length="93.50">1.65,3.25 1.65,96.75</lane>
      </lanes>
   </edge>

   <edge id="0/0to1/0" from="0/0" to="1/0" priority="-1" type="netgen-default" function="normal">
      <lanes>
         <lane id="0/0to1/0_0" depart="1" vclasses="" maxspeed="13.90" length="92.00">3.25,-1.65 95.25,-1.65</lane>
      </lanes>
   </edge>

   <edge id="0/1to0/0" from="0/1" to="0/0" priority="-1" type="netgen-default" function="normal">
      <lanes>
         <lane id="0/1to0/0_0" depart="1" vclasses="" maxspeed="13.90" length="93.50">-1.65,96.75 -1.65,3.25</lane>
      </lanes>
   </edge>

   <edge id="0/1to1/1" from="0/1" to="1/1" priority="-1" type="netgen-default" function="normal">
      <lanes>
         <lane id="0/1to1/1_0" depart="1" vclasses="" maxspeed="13.90" length="92.00">3.25,98.35 95.25,98.35</lane>
      </lanes>
   </edge>

   <edge id="1/0to0/0" from="1/0" to="0/0" priority="-1" type="netgen-default" function="normal">
      <lanes>
         <lane id="1/0to0/0_0" depart="1" vclasses="" maxspeed="13.90" length="92.00">95.25,1.65 3.25,1.65</lane>
      </lanes>
   </edge>

   <edge id="1/0to1/1" from="1/0" to="1/1" priority="-1" type="netgen-default" function="normal">
      <lanes>
         <lane id="1/0to1/1_0" depart="1" vclasses="" maxspeed="13.90" length="90.50">101.65,4.75 101.65,95.25</lane>
      </lanes>
   </edge>

   <edge id="1/0to2/0" from="1/0" to="2/0" priority="-1" type="netgen-default" function="normal">
      <lanes>
         <lane id="1/0to2/0_0" depart="1" vclasses="" maxspeed="13.90" length="90.50">104.75,-1.65 195.25,-1.65</lane>
      </lanes>
   </edge>

   <edge id="1/1to0/1" from="1/1" to="0/1" priority="-1" type="netgen-default" function="normal">
      <lanes>
         <lane id="1/1to0/1_0" depart="1" vclasses="" maxspeed="13.90" length="92.00">95.25,101.65 3.25,101.65</lane>
      </lanes>
   </edge>

   <edge id="1/1to1/0" from="1/1" to="1/0" priority="-1" type="netgen-default" function="normal">
      <lanes>
         <lane id="1/1to1/0_0" depart="1" vclasses="" maxspeed="13.90" length="90.50">98.35,95.25 98.35,4.75</lane>
      </lanes>
   </edge>

   <edge id="1/1to2/1" from="1/1" to="2/1" priority="-1" type="netgen-default" function="normal">
      <lanes>
         <lane id="1/1to2/1_0" depart="1" vclasses="" maxspeed="13.90" length="90.50">104.75,98.35 195.25,98.35</lane>
      </lanes>
   </edge>

   <edge id="2/0to1/0" from="2/0" to="1/0" priority="-1" type="netgen-default" function="normal">
      <lanes>
         <lane id="2/0to1/0_0" depart="1" vclasses="" maxspeed="13.90" length="90.50">195.25,1.65 104.75,1.65</lane>
      </lanes>
   </edge>

   <edge id="2/0to2/1" from="2/0" to="2/1" priority="-1" type="netgen-default" function="normal">
      <lanes>
         <lane id="2/0to2/1_0" depart="1" vclasses="" maxspeed="13.90" length="90.50">201.65,4.75 201.65,95.25</lane>
      </lanes>
   </edge>

   <edge id="2/0to3/0" from="2/0" to="3/0" priority="-1" type="netgen-default" function="normal">
      <lanes>
         <lane id="2/0to3/0_0" depart="1" vclasses="" maxspeed="13.90" length="90.50">204.75,-1.65 295.25,-1.65</lane>
      </lanes>
   </edge>

   <edge id="2/1to1/1" from="2/1" to="1/1" priority="-1" type="netgen-default" function="normal">
      <lanes>
         <lane id="2/1to1/1_0" depart="1" vclasses="" maxspeed="13.90" length="90.50">195.25,101.65 104.75,101.65</lane>
      </lanes>
   </edge>

   <edge id="2/1to2/0" from="2/1" to="2/0" priority="-1" type="netgen-default" function="normal">
      <lanes>
         <lane id="2/1to2/0_0" depart="1" vclasses="" maxspeed="13.90" length="90.50">198.35,95.25 198.35,4.75</lane>
      </lanes>
   </edge>

   <edge id="2/1to3/1" from="2/1" to="3/1" priority="-1" type="netgen-default" function="normal">
      <lanes>
         <lane id="2/1to3/1_0" depart="1" vclasses="" maxspeed="13.90" length="90.50">204.75,98.35 295.25,98.35</lane>
      </lanes>
   </edge>

   <edge id="3/0to2/0" from="3/0" to="2/0" priority="-1" type="netgen-default" function="normal">
      <lanes>
         <lane id="3/0to2/0_0" depart="1" vclasses="" maxspeed="13.90" length="90.50">295.25,1.65 204.75,1.65</lane>
      </lanes>
   </edge>

   <edge id="3/0to3/1" from="3/0" to="3/1" priority="-1" type="netgen-default" function="normal">
      <lanes>
         <lane id="3/0to3/1_0" depart="1" vclasses="" maxspeed="13.90" length="90.50">301.65,4.75 301.65,95.25</lane>
      </lanes>
   </edge>

   <edge id="3/0to4/0" from="3/0" to="4/0" priority="-1" type="netgen-default" function="normal">
      <lanes>
         <lane id="3/0to4/0_0" depart="1" vclasses="" maxspeed="13.90" length="92.00">304.75,-1.65 396.75,-1.65</lane>
      </lanes>
   </edge>

   <edge id="3/1to2/1" from="3/1" to="2/1" priority="-1" type="netgen-default" function="normal">
      <lanes>
         <lane id="3/1to2/1_0" depart="1" vclasses="" maxspeed="13.90" length="90.50">295.25,101.65 204.75,101.65</lane>
      </lanes>
   </edge>

   <edge id="3/1to3/0" from="3/1" to="3/0" priority="-1" type="netgen-default" function="normal">
      <lanes>
         <lane id="3/1to3/0_0" depart="1" vclasses="" maxspeed="13.90" length="90.50">298.35,95.25 298.35,4.75</lane>
      </lanes>
   </edge>

   <edge id="3/1to4/1" from="3/1" to="4/1" priority="-1" type="netgen-default" function="normal">
      <lanes>
         <lane id="3/1to4/1_0" depart="1" vclasses="" maxspeed="13.90" length="92.00">304.75,98.35 396.75,98.35</lane>
      </lanes>
   </edge>

   <edge id="4/0to3/0" from="4/0" to="3/0" priority="-1" type="netgen-default" function="normal">
      <lanes>
         <lane id="4/0to3/0_0" depart="1" vclasses="" maxspeed="13.90" length="92.00">396.75,1.65 304.75,1.65</lane>
      </lanes>
   </edge>

   <edge id="4/0to4/1" from="4/0" to="4/1" priority="-1" type="netgen-default" function="normal">
      <lanes>
         <lane id="4/0to4/1_0" depart="1" vclasses="" maxspeed="13.90" length="93.50">401.65,3.25 401.65,96.75</lane>
      </lanes>
   </edge>

   <edge id="4/1to3/1" from="4/1" to="3/1" priority="-1" type="netgen-default" function="normal">
      <lanes>
         <lane id="4/1to3/1_0" depart="1" vclasses="" maxspeed="13.90" length="92.00">396.75,101.65 304.75,101.65</lane>
      </lanes>
   </edge>

   <edge id="4/1to4/0" from="4/1" to="4/0" priority="-1" type="netgen-default" function="normal">
      <lanes>
         <lane id="4/1to4/0_0" depart="1" vclasses="" maxspeed="13.90" length="93.50">398.35,96.75 398.35,3.25</lane>
      </lanes>
   </edge>


   <row-logic>
      <key>0/0</key>
      <requestsize>4</requestsize>
      <lanenumber>2</lanenumber>
      <logic>
         <logicitem request="0" response="0000" foes="1000"/>
         <logicitem request="1" response="0100" foes="0100"/>
         <logicitem request="2" response="0000" foes="0010"/>
         <logicitem request="3" response="0001" foes="0001"/>
      </logic>
   </row-logic>

   <row-logic>
      <key>0/1</key>
      <requestsize>4</requestsize>
      <lanenumber>2</lanenumber>
      <logic>
         <logicitem request="0" response="0000" foes="1000"/>
         <logicitem request="1" response="0100" foes="0100"/>
         <logicitem request="2" response="0000" foes="0010"/>
         <logicitem request="3" response="0001" foes="0001"/>
      </logic>
   </row-logic>

   <row-logic>
      <key>1/0</key>
      <requestsize>9</requestsize>
      <lanenumber>3</lanenumber>
      <logic>
         <logicitem request="0" response="000010000" foes="100010000"/>
         <logicitem request="1" response="011010000" foes="011110000"/>
         <logicitem request="2" response="010001000" foes="010001000"/>
         <logicitem request="3" response="000000000" foes="010000100"/>
         <logicitem request="4" response="000000000" foes="110000011"/>
         <logicitem request="5" response="001000010" foes="001000010"/>
         <logicitem request="6" response="000000000" foes="000100010"/>
         <logicitem request="7" response="000011000" foes="000011110"/>
         <logicitem request="8" response="000010001" foes="000010001"/>
      </logic>
   </row-logic>

   <row-logic>
      <key>1/1</key>
      <requestsize>9</requestsize>
      <lanenumber>3</lanenumber>
      <logic>
         <logicitem request="0" response="000000000" foes="100010000"/>
         <logicitem request="1" response="011000000" foes="011110000"/>
         <logicitem request="2" response="010001000" foes="010001000"/>
         <logicitem request="3" response="010000000" foes="010000100"/>
         <logicitem request="4" response="010000011" foes="110000011"/>
         <logicitem request="5" response="001000010" foes="001000010"/>
         <logicitem request="6" response="000000000" foes="000100010"/>
         <logicitem request="7" response="000000000" foes="000011110"/>
         <logicitem request="8" response="000010001" foes="000010001"/>
      </logic>
   </row-logic>

   <row-logic>
      <key>2/0</key>
      <requestsize>9</requestsize>
      <lanenumber>3</lanenumber>
      <logic>
         <logicitem request="0" response="000010000" foes="100010000"/>
         <logicitem request="1" response="011010000" foes="011110000"/>
         <logicitem request="2" response="010001000" foes="010001000"/>
         <logicitem request="3" response="000000000" foes="010000100"/>
         <logicitem request="4" response="000000000" foes="110000011"/>
         <logicitem request="5" response="001000010" foes="001000010"/>
         <logicitem request="6" response="000000000" foes="000100010"/>
         <logicitem request="7" response="000011000" foes="000011110"/>
         <logicitem request="8" response="000010001" foes="000010001"/>
      </logic>
   </row-logic>

   <row-logic>
      <key>2/1</key>
      <requestsize>9</requestsize>
      <lanenumber>3</lanenumber>
      <logic>
         <logicitem request="0" response="000000000" foes="100010000"/>
         <logicitem request="1" response="011000000" foes="011110000"/>
         <logicitem request="2" response="010001000" foes="010001000"/>
         <logicitem request="3" response="010000000" foes="010000100"/>
         <logicitem request="4" response="010000011" foes="110000011"/>
         <logicitem request="5" response="001000010" foes="001000010"/>
         <logicitem request="6" response="000000000" foes="000100010"/>
         <logicitem request="7" response="000000000" foes="000011110"/>
         <logicitem request="8" response="000010001" foes="000010001"/>
      </logic>
   </row-logic>

   <row-logic>
      <key>3/0</key>
      <requestsize>9</requestsize>
      <lanenumber>3</lanenumber>
      <logic>
         <logicitem request="0" response="000010000" foes="100010000"/>
         <logicitem request="1" response="011010000" foes="011110000"/>
         <logicitem request="2" response="010001000" foes="010001000"/>
         <logicitem request="3" response="000000000" foes="010000100"/>
         <logicitem request="4" response="000000000" foes="110000011"/>
         <logicitem request="5" response="001000010" foes="001000010"/>
         <logicitem request="6" response="000000000" foes="000100010"/>
         <logicitem request="7" response="000011000" foes="000011110"/>
         <logicitem request="8" response="000010001" foes="000010001"/>
      </logic>
   </row-logic>

   <row-logic>
      <key>3/1</key>
      <requestsize>9</requestsize>
      <lanenumber>3</lanenumber>
      <logic>
         <logicitem request="0" response="000000000" foes="100010000"/>
         <logicitem request="1" response="011000000" foes="011110000"/>
         <logicitem request="2" response="010001000" foes="010001000"/>
         <logicitem request="3" response="010000000" foes="010000100"/>
         <logicitem request="4" response="010000011" foes="110000011"/>
         <logicitem request="5" response="001000010" foes="001000010"/>
         <logicitem request="6" response="000000000" foes="000100010"/>
         <logicitem request="7" response="000000000" foes="000011110"/>
         <logicitem request="8" response="000010001" foes="000010001"/>
      </logic>
   </row-logic>

   <row-logic>
      <key>4/0</key>
      <requestsize>4</requestsize>
      <lanenumber>2</lanenumber>
      <logic>
         <logicitem request="0" response="0000" foes="1000"/>
         <logicitem request="1" response="0100" foes="0100"/>
         <logicitem request="2" response="0000" foes="0010"/>
         <logicitem request="3" response="0001" foes="0001"/>
      </logic>
   </row-logic>

   <row-logic>
      <key>4/1</key>
      <requestsize>4</requestsize>
      <lanenumber>2</lanenumber>
      <logic>
         <logicitem request="0" response="0000" foes="1000"/>
         <logicitem request="1" response="0100" foes="0100"/>
         <logicitem request="2" response="0000" foes="0010"/>
         <logicitem request="3" response="0001" foes="0001"/>
      </logic>
   </row-logic>



   <junction id="0/0" type="priority" x="0.00" y="0.00">
      <inclanes>0/1to0/0_0 1/0to0/0_0</inclanes>
      <shape>-3.25,3.25 3.25,3.25 3.25,-3.25</shape>
   </junction>

   <junction id="0/1" type="priority" x="0.00" y="100.00">
      <inclanes>1/1to0/1_0 0/0to0/1_0</inclanes>
      <shape>3.25,103.25 3.25,96.75 -3.25,96.75</shape>
   </junction>

   <junction id="1/0" type="priority" x="100.00" y="0.00">
      <inclanes>1/1to1/0_0 2/0to1/0_0 0/0to1/0_0</inclanes>
      <shape>96.75,4.75 103.25,4.75 104.75,3.25 104.75,-3.25 95.25,-3.25 95.25,3.25</shape>
   </junction>

   <junction id="1/1" type="priority" x="100.00" y="100.00">
      <inclanes>2/1to1/1_0 1/0to1/1_0 0/1to1/1_0</inclanes>
      <shape>104.75,103.25 104.75,96.75 103.25,95.25 96.75,95.25 95.25,96.75 95.25,103.25</shape>
   </junction>

   <junction id="2/0" type="priority" x="200.00" y="0.00">
      <inclanes>2/1to2/0_0 3/0to2/0_0 1/0to2/0_0</inclanes>
      <shape>196.75,4.75 203.25,4.75 204.75,3.25 204.75,-3.25 195.25,-3.25 195.25,3.25</shape>
   </junction>

   <junction id="2/1" type="priority" x="200.00" y="100.00">
      <inclanes>3/1to2/1_0 2/0to2/1_0 1/1to2/1_0</inclanes>
      <shape>204.75,103.25 204.75,96.75 203.25,95.25 196.75,95.25 195.25,96.75 195.25,103.25</shape>
   </junction>

   <junction id="3/0" type="priority" x="300.00" y="0.00">
      <inclanes>3/1to3/0_0 4/0to3/0_0 2/0to3/0_0</inclanes>
      <shape>296.75,4.75 303.25,4.75 304.75,3.25 304.75,-3.25 295.25,-3.25 295.25,3.25</shape>
   </junction>

   <junction id="3/1" type="priority" x="300.00" y="100.00">
      <inclanes>4/1to3/1_0 3/0to3/1_0 2/1to3/1_0</inclanes>
      <shape>304.75,103.25 304.75,96.75 303.25,95.25 296.75,95.25 295.25,96.75 295.25,103.25</shape>
   </junction>

   <junction id="4/0" type="priority" x="400.00" y="0.00">
      <inclanes>4/1to4/0_0 3/0to4/0_0</inclanes>
      <shape>396.75,3.25 403.25,3.25 396.75,-3.25 396.75,3.25</shape>
   </junction>

   <junction id="4/1" type="priority" x="400.00" y="100.00">
      <inclanes>4/0to4/1_0 3/1to4/1_0</inclanes>
      <shape>403.25,96.75 396.75,96.75 396.75,103.25</shape>
   </junction>


   <succ edge="0/0to0/1" lane="0/0to0/1_0" junction="0/1">
      <succlane lane="0/1to1/1_0" yield="0" dir="r" state="M"/>
      <succlane lane="0/1to0/0_0" yield="1" dir="t" state="m"/>
   </succ>

   <succ edge="0/0to1/0" lane="0/0to1/0_0" junction="1/0">
      <succlane lane="1/0to2/0_0" yield="0" dir="s" state="M"/>
      <succlane lane="1/0to1/1_0" yield="1" dir="l" state="m"/>
      <succlane lane="1/0to0/0_0" yield="1" dir="t" state="m"/>
   </succ>

   <succ edge="0/1to0/0" lane="0/1to0/0_0" junction="0/0">
      <succlane lane="0/0to1/0_0" yield="0" dir="l" state="M"/>
      <succlane lane="0/0to0/1_0" yield="1" dir="t" state="m"/>
   </succ>

   <succ edge="0/1to1/1" lane="0/1to1/1_0" junction="1/1">
      <succlane lane="1/1to1/0_0" yield="0" dir="r" state="M"/>
      <succlane lane="1/1to2/1_0" yield="0" dir="s" state="M"/>
      <succlane lane="1/1to0/1_0" yield="1" dir="t" state="m"/>
   </succ>

   <succ edge="1/0to0/0" lane="1/0to0/0_0" junction="0/0">
      <succlane lane="0/0to0/1_0" yield="0" dir="r" state="M"/>
      <succlane lane="0/0to1/0_0" yield="1" dir="t" state="m"/>
   </succ>

   <succ edge="1/0to1/1" lane="1/0to1/1_0" junction="1/1">
      <succlane lane="1/1to2/1_0" yield="1" dir="r" state="m"/>
      <succlane lane="1/1to0/1_0" yield="1" dir="l" state="m"/>
      <succlane lane="1/1to1/0_0" yield="1" dir="t" state="m"/>
   </succ>

   <succ edge="1/0to2/0" lane="1/0to2/0_0" junction="2/0">
      <succlane lane="2/0to3/0_0" yield="0" dir="s" state="M"/>
      <succlane lane="2/0to2/1_0" yield="1" dir="l" state="m"/>
      <succlane lane="2/0to1/0_0" yield="1" dir="t" state="m"/>
   </succ>

   <succ edge="1/1to0/1" lane="1/1to0/1_0" junction="0/1">
      <succlane lane="0/1to0/0_0" yield="0" dir="l" state="M"/>
      <succlane lane="0/1to1/1_0" yield="1" dir="t" state="m"/>
   </succ>

   <succ edge="1/1to1/0" lane="1/1to1/0_0" junction="1/0">
      <succlane lane="1/0to0/0_0" yield="1" dir="r" state="m"/>
      <succlane lane="1/0to2/0_0" yield="1" dir="l" state="m"/>
      <succlane lane="1/0to1/1_0" yield="1" dir="t" state="m"/>
   </succ>

   <succ edge="1/1to2/1" lane="1/1to2/1_0" junction="2/1">
      <succlane lane="2/1to2/0_0" yield="0" dir="r" state="M"/>
      <succlane lane="2/1to3/1_0" yield="0" dir="s" state="M"/>
      <succlane lane="2/1to1/1_0" yield="1" dir="t" state="m"/>
   </succ>

   <succ edge="2/0to1/0" lane="2/0to1/0_0" junction="1/0">
      <succlane lane="1/0to1/1_0" yield="0" dir="r" state="M"/>
      <succlane lane="1/0to0/0_0" yield="0" dir="s" state="M"/>
      <succlane lane="1/0to2/0_0" yield="1" dir="t" state="m"/>
   </succ>

   <succ edge="2/0to2/1" lane="2/0to2/1_0" junction="2/1">
      <succlane lane="2/1to3/1_0" yield="1" dir="r" state="m"/>
      <succlane lane="2/1to1/1_0" yield="1" dir="l" state="m"/>
      <succlane lane="2/1to2/0_0" yield="1" dir="t" state="m"/>
   </succ>

   <succ edge="2/0to3/0" lane="2/0to3/0_0" junction="3/0">
      <succlane lane="3/0to4/0_0" yield="0" dir="s" state="M"/>
      <succlane lane="3/0to3/1_0" yield="1" dir="l" state="m"/>
      <succlane lane="3/0to2/0_0" yield="1" dir="t" state="m"/>
   </succ>

   <succ edge="2/1to1/1" lane="2/1to1/1_0" junction="1/1">
      <succlane lane="1/1to0/1_0" yield="0" dir="s" state="M"/>
      <succlane lane="1/1to1/0_0" yield="1" dir="l" state="m"/>
      <succlane lane="1/1to2/1_0" yield="1" dir="t" state="m"/>
   </succ>

   <succ edge="2/1to2/0" lane="2/1to2/0_0" junction="2/0">
      <succlane lane="2/0to1/0_0" yield="1" dir="r" state="m"/>
      <succlane lane="2/0to3/0_0" yield="1" dir="l" state="m"/>
      <succlane lane="2/0to2/1_0" yield="1" dir="t" state="m"/>
   </succ>

   <succ edge="2/1to3/1" lane="2/1to3/1_0" junction="3/1">
      <succlane lane="3/1to3/0_0" yield="0" dir="r" state="M"/>
      <succlane lane="3/1to4/1_0" yield="0" dir="s" state="M"/>
      <succlane lane="3/1to2/1_0" yield="1" dir="t" state="m"/>
   </succ>

   <succ edge="3/0to2/0" lane="3/0to2/0_0" junction="2/0">
      <succlane lane="2/0to2/1_0" yield="0" dir="r" state="M"/>
      <succlane lane="2/0to1/0_0" yield="0" dir="s" state="M"/>
      <succlane lane="2/0to3/0_0" yield="1" dir="t" state="m"/>
   </succ>

   <succ edge="3/0to3/1" lane="3/0to3/1_0" junction="3/1">
      <succlane lane="3/1to4/1_0" yield="1" dir="r" state="m"/>
      <succlane lane="3/1to2/1_0" yield="1" dir="l" state="m"/>
      <succlane lane="3/1to3/0_0" yield="1" dir="t" state="m"/>
   </succ>

   <succ edge="3/0to4/0" lane="3/0to4/0_0" junction="4/0">
      <succlane lane="4/0to4/1_0" yield="0" dir="l" state="M"/>
      <succlane lane="4/0to3/0_0" yield="1" dir="t" state="m"/>
   </succ>

   <succ edge="3/1to2/1" lane="3/1to2/1_0" junction="2/1">
      <succlane lane="2/1to1/1_0" yield="0" dir="s" state="M"/>
      <succlane lane="2/1to2/0_0" yield="1" dir="l" state="m"/>
      <succlane lane="2/1to3/1_0" yield="1" dir="t" state="m"/>
   </succ>

   <succ edge="3/1to3/0" lane="3/1to3/0_0" junction="3/0">
      <succlane lane="3/0to2/0_0" yield="1" dir="r" state="m"/>
      <succlane lane="3/0to4/0_0" yield="1" dir="l" state="m"/>
      <succlane lane="3/0to3/1_0" yield="1" dir="t" state="m"/>
   </succ>

   <succ edge="3/1to4/1" lane="3/1to4/1_0" junction="4/1">
      <succlane lane="4/1to4/0_0" yield="0" dir="r" state="M"/>
      <succlane lane="4/1to3/1_0" yield="1" dir="t" state="m"/>
   </succ>

   <succ edge="4/0to3/0" lane="4/0to3/0_0" junction="3/0">
      <succlane lane="3/0to3/1_0" yield="0" dir="r" state="M"/>
      <succlane lane="3/0to2/0_0" yield="0" dir="s" state="M"/>
      <succlane lane="3/0to4/0_0" yield="1" dir="t" state="m"/>
   </succ>

   <succ edge="4/0to4/1" lane="4/0to4/1_0" junction="4/1">
      <succlane lane="4/1to3/1_0" yield="0" dir="l" state="M"/>
      <succlane lane="4/1to4/0_0" yield="1" dir="t" state="m"/>
   </succ>

   <succ edge="4/1to3/1" lane="4/1to3/1_0" junction="3/1">
      <succlane lane="3/1to2/1_0" yield="0" dir="s" state="M"/>
      <succlane lane="3/1to3/0_0" yield="1" dir="l" state="m"/>
      <succlane lane="3/1to4/1_0" yield="1" dir="t" state="m"/>
   </succ>

   <succ edge="4/1to4/0" lane="4/1to4/0_0" junction="4/0">
      <succlane lane="4/0to3/0_0" yield="0" dir="r" state="M"/>
      <succlane lane="4/0to4/1_0" yield="1" dir="t" state="m"/>
   </succ>


</net>
