<?xml version="1.0" encoding="UTF-8"?>

<!-- generated on 2023-07-21 16:14:21 by Eclipse SUMO netedit Version v1_18_0+0449-f16c790925c
-->

<routes xmlns:xsi="http://www.w3.org/2001/XMLSchema-instance" xsi:noNamespaceSchemaLocation="http://sumo.dlr.de/xsd/routes_file.xsd">
    <!-- Vehicles, persons and containers (sorted by depart) -->
    <vehicle id="vehicle_0" depart="0.00">
        <route edges="Edge0 Edge1 Edge2" color="yellow"/>
        <stop parkingArea="parkingAreaA" duration="60.00" parking="1" line="customLine" speed="13.89"/>
    </vehicle>
</routes>
