<routes>
    <vehicle id="lane_change_before_leaving" depart="0" departLane="0" arrivalLane="1">
        <route edges="1si"/>
        <stop lane="1si_0" endPos="150" duration="0"/>
    </vehicle>
</routes>
