<routes xmlns:xsi="http://www.w3.org/2001/XMLSchema-instance" xsi:noNamespaceSchemaLocation="http://sumo.dlr.de/xsd/routes_file.xsd">
    <personFlow id="p" begin="0" end="20" number="10" departPos="-10">
        <walk edges="SC CN"/>
    </personFlow>
    <personFlow id="p2" begin="40" end="60" number="10" departPos="-10">
        <walk edges="WC CE"/>
    </personFlow>
</routes>
