<?xml version="1.0" encoding="UTF-8"?>

<!-- generated on 2023-07-25 11:02:06 by Eclipse SUMO netedit Version v1_18_0+0511-d8469bdc8ac
-->

<routes xmlns:xsi="http://www.w3.org/2001/XMLSchema-instance" xsi:noNamespaceSchemaLocation="http://sumo.dlr.de/xsd/routes_file.xsd">
    <!-- VTypes -->
    <vType id="t_0"/>
</routes>
