<?xml version="1.0" encoding="UTF-8"?>

<!-- generated on 2025-06-11 12:34:15 by Eclipse SUMO netconvert Version v1_23_1+0498-a01d940de87
This data file and the accompanying materials
are made available under the terms of the Eclipse Public License v2.0
which accompanies this distribution, and is available at
http://www.eclipse.org/legal/epl-v20.html
This file may also be made available under the following Secondary
Licenses when the conditions for such availability set forth in the Eclipse
Public License 2.0 are satisfied: GNU General Public License, version 2
or later which is available at
https://www.gnu.org/licenses/old-licenses/gpl-2.0-standalone.html
SPDX-License-Identifier: EPL-2.0 OR GPL-2.0-or-later
<netconvertConfiguration xmlns:xsi="http://www.w3.org/2001/XMLSchema-instance" xsi:noNamespaceSchemaLocation="http://sumo.dlr.de/xsd/netconvertConfiguration.xsd">

    <input>
        <osm-files value="osm.xml"/>
    </input>

    <output>
        <write-license value="true"/>
        <ptstop-output value="additional.xml"/>
        <ptline-output value="ptlines.xml"/>
    </output>

    <projection>
        <proj.utm value="true"/>
    </projection>

    <processing>
        <geometry.remove value="true"/>
    </processing>

    <edge_removal>
        <keep-edges.components value="1"/>
        <remove-edges.by-type value="highway.service"/>
    </edge_removal>

    <junctions>
        <no-internal-links value="true"/>
        <junctions.join value="true"/>
    </junctions>

    <report>
        <xml-validation value="never"/>
    </report>

</netconvertConfiguration>
-->

<ptLines xmlns:xsi="http://www.w3.org/2001/XMLSchema-instance" xsi:noNamespaceSchemaLocation="http://sumo.dlr.de/xsd/ptlines_file.xsd">
    <ptLine id="2653085" name="Linie 113 via Schwülper Baunschweiger Straße" line="113" type="bus" vClass="bus" completeness="0.04" missingAfter="23">
        <route edges="24803131#0 24803131#1"/>
        <busStop id="2078032882" name="Heideblick"/>
    </ptLine>
    <ptLine id="2656639" name="Linie 113 via Rothemühle" line="113" type="bus" vClass="bus" completeness="0.08" missingAfter="11">
        <route edges="24803131#0 24803131#1"/>
        <busStop id="2078032882" name="Heideblick"/>
    </ptLine>
    <ptLine id="2657421" name="Linie 112" line="112" type="bus" vClass="bus" completeness="0.07" missingAfter="14">
        <route edges="23187673#1 53650436#1 53650436#3 53650436#4 24803131#0 24803131#1"/>
        <busStop id="250749715" name="Heideblick"/>
    </ptLine>
    <ptLine id="2777015" name="Tram 1: Wenden =&gt; Stöckheim" line="1" type="tram" vClass="tram" period="600" color="227,0,11" completeness="0.06" missingAfter="32">
        <route edges="859066434#3 859066433#1 859066433#2 859066433#3 859066431#1 859066431#2 859066431#3 859066427#2"/>
        <busStop id="54142977" name="Heideblick"/>
        <busStop id="54143009" name="Veltenhöfer Straße"/>
    </ptLine>
    <ptLine id="31366" name="Tram 1: Stöckheim =&gt; Wenden" line="1" type="tram" vClass="tram" period="600" color="227,0,11" completeness="0.06" missingBefore="32">
        <route edges="859066429#0 859066429#1 859066429#3 859066430#1 859066430#2 859066434#1 859066434#2 859066434#3"/>
        <busStop id="54143012" name="Veltenhöfer Straße"/>
        <busStop id="54142977" name="Heideblick"/>
    </ptLine>
    <ptLine id="4599998" name="Tram 1: Stöckheim =&gt; Anklamstraße =&gt; Wenden" line="1" type="tram" vClass="tram" color="227,0,11" completeness="0.05" missingBefore="35">
        <route edges="859066429#0 859066429#1 859066429#3 859066430#1 859066430#2 859066434#1 859066434#2 859066434#3"/>
        <busStop id="54143012" name="Veltenhöfer Straße"/>
        <busStop id="54142977" name="Heideblick"/>
    </ptLine>
    <ptLine id="4599999" name="Tram 1: Wenden =&gt; Anklamstraße =&gt; Stöckheim" line="1" type="tram" vClass="tram" color="227,0,11" completeness="0.05" missingAfter="35">
        <route edges="859066434#3 859066433#1 859066433#2 859066433#3 859066431#1 859066431#2 859066431#3 859066427#2"/>
        <busStop id="54142977" name="Heideblick"/>
        <busStop id="54143009" name="Veltenhöfer Straße"/>
    </ptLine>
    <ptLine id="4617961" name="Bus 464: Harxbüttel =&gt; Volkmarode" line="464" type="bus" vClass="bus" color="215,181,46" completeness="0.02" missingBefore="14" missingAfter="47">
        <route edges="23187673#0 23187673#1 53650436#1 53650436#3 53650436#4 24803131#0 24803131#1"/>
        <busStop id="4539421794" name="Heideblick"/>
    </ptLine>
    <ptLine id="6768240" name="Bus 414: Stadion (Schwarzer Berg) =&gt; Heideblick" line="414" type="bus" vClass="bus" color="91,197,242" completeness="0.06" missingBefore="25" missingAfter="7">
        <busStop id="4539420388" name="Veltenhöfer Straße"/>
        <busStop id="91556880" name="Brandenburgstraße"/>
    </ptLine>
    <ptLine id="6768729" name="Bus 434: Heideblick =&gt; Krugplatz" line="434" type="bus" vClass="bus" color="163,16,8" completeness="0.14" missingAfter="6">
        <route edges="23187673#1 53650436#1 53650436#3 53650436#4 24803131#0 24803131#1"/>
        <busStop id="250749715" name="Heideblick"/>
    </ptLine>
    <ptLine id="6768731" name="Bus 434: Krugplatz =&gt; Heideblick" line="434" type="bus" vClass="bus" color="163,16,8" completeness="0.14" missingBefore="6">
        <route edges="23187673#0 23187673#1"/>
        <busStop id="4539421794" name="Heideblick"/>
    </ptLine>
    <ptLine id="6974398" name="Bus 424: Bevenrode =&gt; Heideblick" line="424" type="bus" vClass="bus" color="225,182,0" completeness="0.04" missingBefore="24">
        <route edges="23187673#0 23187673#1"/>
        <busStop id="4539421794" name="Heideblick"/>
    </ptLine>
    <ptLine id="6975161" name="Bus 434: Heideblick =&gt; Hänflingstraße" line="434" type="bus" vClass="bus" color="163,16,8" completeness="0.07" missingAfter="14">
        <route edges="23187673#1 53650436#1 53650436#3 53650436#4 24803131#0 24803131#1"/>
        <busStop id="250749715" name="Heideblick"/>
    </ptLine>
    <ptLine id="6975162" name="Bus 434: Heideblick =&gt; Schmiedegasse" line="434" type="bus" vClass="bus" color="163,16,8" completeness="0.04" missingAfter="22">
        <route edges="23187673#1 53650436#1 53650436#3 53650436#4 24803131#0 24803131#1"/>
        <busStop id="250749715" name="Heideblick"/>
    </ptLine>
    <ptLine id="6975163" name="Bus 434: Hänflingstraße =&gt; Heideblick" line="434" type="bus" vClass="bus" color="163,16,8" completeness="0.07" missingBefore="14">
        <route edges="23187673#0 23187673#1"/>
        <busStop id="4539421794" name="Heideblick"/>
    </ptLine>
    <ptLine id="6975164" name="Bus 434: Lagesbüttel Schule =&gt; Heideblick" line="434" type="bus" vClass="bus" color="163,16,8" completeness="0.05" missingBefore="20">
        <route edges="23187673#0 23187673#1"/>
        <busStop id="4539421794" name="Heideblick"/>
    </ptLine>
    <ptLine id="7090404" name="Tram 1: Rathaus =&gt; Wenden" line="1" type="tram" vClass="tram" color="227,0,11" completeness="0.12" missingBefore="15">
        <route edges="859066429#0 859066429#1 859066429#3 859066430#1 859066430#2 859066434#1 859066434#2 859066434#3"/>
        <busStop id="54143012" name="Veltenhöfer Straße"/>
        <busStop id="54142977" name="Heideblick"/>
    </ptLine>
    <ptLine id="7090406" name="Tram 1: Wenden =&gt; Rathaus" line="1" type="tram" vClass="tram" color="227,0,11" completeness="0.12" missingAfter="15">
        <route edges="859066434#3 859066433#1 859066433#2 859066433#3 859066431#1 859066431#2 859066431#3 859066427#2"/>
        <busStop id="54142977" name="Heideblick"/>
        <busStop id="54143009" name="Veltenhöfer Straße"/>
    </ptLine>
    <ptLine id="7378840" name="Bus 191: Gifhorn, Steinweg =&gt; Wenden, Heideblick" line="191" type="bus" vClass="bus" completeness="0.03" missingBefore="37">
        <route edges="23187673#0 23187673#1"/>
        <busStop id="4539421794" name="Heideblick"/>
    </ptLine>
    <ptLine id="7378841" name="Bus 191: Wenden, Heideblick =&gt; Gifhorn, Steinweg" line="191" type="bus" vClass="bus" completeness="0.03" missingAfter="37">
        <route edges="23187673#1 53650436#1 53650436#3 53650436#4 24803131#0 24803131#1"/>
        <busStop id="250749715" name="Heideblick"/>
    </ptLine>
    <ptLine id="7392814" name="Bus 191: Gifhorn, Bahnhof (Süd) =&gt; Wenden, Heideblick" line="191" type="bus" vClass="bus" completeness="0.03" missingBefore="28">
        <route edges="23187673#0 23187673#1"/>
        <busStop id="4539421794" name="Heideblick"/>
    </ptLine>
    <ptLine id="7392821" name="Bus 191: Wenden, Heideblick =&gt; Gifhorn, Bahnhof (Süd)" line="191" type="bus" vClass="bus" completeness="0.03" missingAfter="30">
        <route edges="23187673#1 53650436#1 53650436#3 53650436#4 24803131#0 24803131#1"/>
        <busStop id="250749715" name="Heideblick"/>
    </ptLine>
    <ptLine id="7393653" name="Bus 111: Gifhorn, Gesundheitsamt =&gt; Wenden, Heideblick" line="111" type="bus" vClass="bus" completeness="0.02" missingBefore="54" missingAfter="1">
        <route edges="23187673#0 23187673#1"/>
        <busStop id="4539421794" name="Heideblick"/>
    </ptLine>
    <ptLine id="7393662" name="Bus 111: Wenden, Heideblick =&gt; Gifhorn, Gesundheitsamt" line="111" type="bus" vClass="bus" completeness="0.02" missingAfter="60">
        <route edges="23187673#1 53650436#1 53650436#3 53650436#4 24803131#0 24803131#1"/>
        <busStop id="250749715" name="Heideblick"/>
    </ptLine>
    <ptLine id="76955" name="Bus 414: Heideblick =&gt; Stadion (Schwarzer Berg)" line="414" type="bus" vClass="bus" color="91,197,242" completeness="0.03" missingAfter="32">
        <route edges="23187673#1 53650436#1 53650436#3 53650436#4 24803131#0 24803131#1"/>
        <busStop id="250749715" name="Heideblick"/>
    </ptLine>
</ptLines>
