<?xml version="1.0" encoding="UTF-8"?>

<!-- generated on Tue Feb 19 09:11:16 2019 by Eclipse SUMO netconvert Version v1_1_0+0919-80296dbfce
<configuration xmlns:xsi="http://www.w3.org/2001/XMLSchema-instance" xsi:noNamespaceSchemaLocation="http://sumo.dlr.de/xsd/netconvertConfiguration.xsd">

    <input>
        <node-files value=".\netedit\netElements\edges\load\shapestart\input_net.nod.xml"/>
        <edge-files value=".\netedit\netElements\edges\load\shapestart\input_net.edg.xml"/>
        <connection-files value=".\netedit\netElements\edges\load\shapestart\input_net.con.xml"/>
    </input>

    <output>
        <output-file value=".\netedit\netElements\edges\load\shapestart\input_net.net.xml"/>
    </output>

    <report>
        <verbose value="true"/>
    </report>

</configuration>
-->

<net version="1.1" junctionCornerDetail="5" limitTurnSpeed="5.50" xmlns:xsi="http://www.w3.org/2001/XMLSchema-instance" xsi:noNamespaceSchemaLocation="http://sumo.dlr.de/xsd/net_file.xsd">

    <location netOffset="0.00,-44.32" convBoundary="0.00,0.00,50.00,12.65" origBoundary="-10000000000.00,-10000000000.00,10000000000.00,10000000000.00" projParameter="!"/>

    <edge id="gneE12" from="gneJ21" to="gneJ22" priority="-1" shape="14.31,0.00 50.00,5.68">
        <lane id="gneE12_0" index="0" speed="13.89" length="49.38" shape="1.49,-3.66 50.25,4.10"/>
    </edge>
    <edge id="gneE13" from="gneJ22" to="gneJ21" priority="-1" shape="40.53,12.65 0.00,5.68">
        <lane id="gneE13_0" index="0" speed="13.89" length="49.27" shape="48.29,15.61 -0.27,7.26"/>
    </edge>

    <junction id="gneJ21" type="dead_end" x="0.00" y="5.68" incLanes="gneE13_0" intLanes="" shape="1.74,-5.24 -0.54,8.83 0.00,5.68"/>
    <junction id="gneJ22" type="dead_end" x="50.00" y="5.68" incLanes="gneE12_0" intLanes="" shape="48.02,17.19 50.50,2.52 50.00,5.68"/>

</net>
