<?xml version="1.0" encoding="UTF-8"?>

<!-- generated on Fri Dec 14 09:27:49 2018 by Eclipse SUMO netconvert Version v1_0_1+0645-93703db
This data file and the accompanying materials
are made available under the terms of the Eclipse Public License v2.0
which accompanies this distribution, and is available at
http://www.eclipse.org/legal/epl-v20.html
SPDX-License-Identifier: EPL-2.0
<configuration xmlns:xsi="http://www.w3.org/2001/XMLSchema-instance" xsi:noNamespaceSchemaLocation="http://sumo.dlr.de/xsd/netconvertConfiguration.xsd">

    <input>
        <sumo-net-file value="input_net.net.xml"/>
    </input>

    <output>
        <write-license value="true"/>
        <output-file value="net.net.xml"/>
        <plain-output-prefix value="plain"/>
    </output>

    <processing>
        <geometry.max-grade.fix value="false"/>
        <offset.disable-normalization value="true"/>
        <lefthand value="false"/>
    </processing>

    <junctions>
        <no-turnarounds value="true"/>
        <junctions.corner-detail value="0"/>
        <junctions.limit-turn-speed value="-1"/>
        <rectangular-lane-cut value="false"/>
    </junctions>

    <pedestrian>
        <walkingareas value="false"/>
    </pedestrian>

    <report>
        <xml-validation value="never"/>
    </report>

</configuration>
-->

<connections version="1.3" xmlns:xsi="http://www.w3.org/2001/XMLSchema-instance" xsi:noNamespaceSchemaLocation="http://sumo.dlr.de/xsd/connections_file.xsd">
    <connection from="1fi" to="3o" fromLane="0" toLane="0"/>
    <connection from="1fi" to="2o" fromLane="0" toLane="0"/>
    <connection from="1fi" to="4o" fromLane="1" toLane="0"/>
    <connection from="1fi" to="1o" fromLane="1" toLane="0"/>

    <connection from="1o" to="1fi" fromLane="0" toLane="1"/>

    <connection from="2fi" to="4o" fromLane="0" toLane="0"/>
    <connection from="2fi" to="1o" fromLane="0" toLane="0"/>
    <connection from="2fi" to="3o" fromLane="1" toLane="0"/>
    <connection from="2fi" to="2o" fromLane="1" toLane="0"/>

    <connection from="2o" to="2fi" fromLane="0" toLane="1"/>

    <connection from="3fi" to="2o" fromLane="0" toLane="0"/>
    <connection from="3fi" to="4o" fromLane="0" toLane="0"/>
    <connection from="3fi" to="1o" fromLane="1" toLane="0"/>
    <connection from="3fi" to="3o" fromLane="1" toLane="0"/>

    <connection from="3o" to="3fi" fromLane="0" toLane="1"/>

    <connection from="4fi" to="1o" fromLane="0" toLane="0"/>
    <connection from="4fi" to="3o" fromLane="0" toLane="0"/>
    <connection from="4fi" to="2o" fromLane="1" toLane="0"/>
    <connection from="4fi" to="4o" fromLane="1" toLane="0"/>

    <connection from="4o" to="4fi" fromLane="0" toLane="1"/>

</connections>
