<?xml version="1.0" encoding="UTF-8"?>

<!-- generated on Sun Mar  8 00:01:22 2015 by SUMO polyconvert Version dev-SVN-r18045
<?xml version="1.0" encoding="UTF-8"?>

<configuration xmlns:xsi="http://www.w3.org/2001/XMLSchema-instance" xsi:noNamespaceSchemaLocation="http://sumo.dlr.de/xsd/polyconvertConfiguration.xsd">

    <input>
        <dlr-navteq-poi-files value="dlr_navteq_pois.txt"/>
    </input>

    <output>
        <output-file value="pois.poi.xml"/>
    </output>

    <projection>
        <proj.scale value="5"/>
        <proj.utm value="true"/>
    </projection>

    <report>
        <verbose value="true"/>
        <xml-validation value="never"/>
    </report>

</configuration>
-->

<additional xmlns:xsi="http://www.w3.org/2001/XMLSchema-instance" xsi:noNamespaceSchemaLocation="http://sumo.dlr.de/xsd/additional_file.xsd">
    <location netOffset="0.00,0.00" convBoundary="360180.57,5781233.23,363758.16,5788908.83" origBoundary="1295257.000000,5216475.000000,1300801.000000,5223282.000000" projParameter="+proj=utm +zone=33 +ellps=WGS84 +datum=WGS84 +units=m +no_defs"/>

    <poi id="1" type="unknown" color="51,128,255" layer="-1.00" x="363758.16" y="5781233.23"/>
    <poi id="2" type="unknown" color="51,128,255" layer="-1.00" x="360180.57" y="5788908.83"/>
</additional>
