<?xml version="1.0" encoding="UTF-8"?>

<!-- generated on 2022-03-04 10:31:04 by Eclipse SUMO netedit Version v1_12_0+1137-e9106068858
-->

<additional xmlns:xsi="http://www.w3.org/2001/XMLSchema-instance" xsi:noNamespaceSchemaLocation="http://sumo.dlr.de/xsd/additional_file.xsd">
    <!-- Detectors -->
    <e1Detector id="e1_0" lane="gneE1_0" pos="33.00" freq="300.00" file="e1_0.xml">
        <param key="keyFinal1" value="value1"/>
        <param key="keyFinal2" value="value2"/>
        <param key="keyFinal3" value="value3"/>
    </e1Detector>
</additional>
