<?xml version="1.0" encoding="UTF-8"?>

<!-- generated on Wed Apr 20 15:44:31 2016 by SUMO netconvert Version dev-SVN-r20491
<?xml version="1.0" encoding="UTF-8"?>

<configuration xmlns:xsi="http://www.w3.org/2001/XMLSchema-instance" xsi:noNamespaceSchemaLocation="http://sumo.dlr.de/xsd/netconvertConfiguration.xsd">

    <input>
        <sumo-net-file value="input_net.net.xml"/>
    </input>

    <output>
        <output-file value="net.net.xml"/>
    </output>

    <processing>
        <no-turnarounds value="true"/>
        <offset.disable-normalization value="true"/>
        <offset.x value="100"/>
        <offset.y value="-200"/>
        <lefthand value="false"/>
        <junctions.corner-detail value="0"/>
    </processing>

    <report>
        <xml-validation value="never"/>
    </report>

</configuration>
-->

<net version="0.27" xmlns:xsi="http://www.w3.org/2001/XMLSchema-instance" xsi:noNamespaceSchemaLocation="http://sumo.dlr.de/xsd/net_file.xsd">

    <location netOffset="100.00,-200.00" convBoundary="100.00,-200.00,140.00,-180.00" origBoundary="0.00,0.00,40.00,20.00" projParameter="!"/>

    <edge id=":node_left_0" function="internal">
        <lane id=":node_left_0_0" index="0" speed="13.90" length="13.36" shape="94.17,-194.17 90.34,-199.87 90.04,-204.13 93.26,-206.92 100.00,-208.25"/>
        <lane id=":node_left_0_1" index="1" speed="13.90" length="13.36" shape="96.50,-196.50 94.21,-199.92 94.02,-202.48 95.96,-204.15 100.00,-204.95"/>
        <lane id=":node_left_0_2" index="2" speed="13.90" length="13.36" shape="98.83,-198.83 98.07,-199.97 98.01,-200.83 98.65,-201.38 100.00,-201.65"/>
    </edge>
    <edge id=":node_right_0" function="internal">
        <lane id=":node_right_0_0" index="0" allow="bus" speed="13.90" length="14.36" shape="140.00,-208.25 146.74,-206.92 149.96,-204.13 149.66,-199.87 145.83,-194.17"/>
        <lane id=":node_right_0_1" index="1" disallow="bicycle" speed="13.90" length="14.36" shape="137.00,-204.95 140.00,-204.95 144.04,-204.15 145.98,-202.47 145.79,-199.92 143.50,-196.50"/>
        <lane id=":node_right_0_2" index="2" speed="13.90" length="14.36" shape="140.00,-201.65 141.35,-201.38 141.99,-200.82 141.93,-199.97 141.17,-198.83"/>
    </edge>

    <edge id="edge_with_shape" from="node_right" to="node_left" priority="-1" type="testType" shape="140.00,-200.00 120.00,-180.00 100.00,-200.00">
        <lane id="edge_with_shape_0" index="0" allow="bus" speed="13.90" length="66.47" shape="145.83,-194.17 120.00,-168.33 94.17,-194.17"/>
        <lane id="edge_with_shape_1" index="1" disallow="bicycle" speed="13.90" length="66.47" shape="143.50,-196.50 120.00,-173.00 96.50,-196.50"/>
        <lane id="edge_with_shape_2" index="2" speed="13.90" length="66.47" shape="141.17,-198.83 120.00,-177.67 98.83,-198.83"/>
    </edge>
    <edge id="reverse_edge" from="node_left" to="node_right" priority="-1">
        <lane id="reverse_edge_0" index="0" speed="13.90" length="40.00" shape="100.00,-208.25 140.00,-208.25"/>
        <lane id="reverse_edge_1" index="1" speed="13.90" length="37.00" endOffset="3.00" shape="100.00,-204.95 137.00,-204.95"/>
        <lane id="reverse_edge_2" index="2" speed="13.90" length="40.00" shape="100.00,-201.65 140.00,-201.65"/>
    </edge>

    <junction id="node_left" type="priority" x="100.00" y="-200.00" incLanes="edge_with_shape_0 edge_with_shape_1 edge_with_shape_2" intLanes=":node_left_0_0 :node_left_0_1 :node_left_0_2" shape="100.00,-200.05 100.00,-209.85 93.03,-193.03 99.96,-199.96">
        <request index="0" response="000" foes="000" cont="0"/>
        <request index="1" response="000" foes="000" cont="0"/>
        <request index="2" response="000" foes="000" cont="0"/>
    </junction>
    <junction id="node_right" type="priority" x="140.00" y="-200.00" incLanes="reverse_edge_0 reverse_edge_1 reverse_edge_2" intLanes=":node_right_0_0 :node_right_0_1 :node_right_0_2" shape="140.04,-199.96 146.97,-193.03 140.00,-209.85 140.00,-200.05">
        <request index="0" response="000" foes="000" cont="0"/>
        <request index="1" response="000" foes="000" cont="0"/>
        <request index="2" response="000" foes="000" cont="0"/>
    </junction>

    <connection from="edge_with_shape" to="reverse_edge" fromLane="0" toLane="0" via=":node_left_0_0" dir="t" state="M"/>
    <connection from="edge_with_shape" to="reverse_edge" fromLane="1" toLane="1" via=":node_left_0_1" dir="t" state="M"/>
    <connection from="edge_with_shape" to="reverse_edge" fromLane="2" toLane="2" via=":node_left_0_2" dir="t" state="M"/>
    <connection from="reverse_edge" to="edge_with_shape" fromLane="0" toLane="0" via=":node_right_0_0" dir="t" state="M"/>
    <connection from="reverse_edge" to="edge_with_shape" fromLane="1" toLane="1" via=":node_right_0_1" dir="t" state="M"/>
    <connection from="reverse_edge" to="edge_with_shape" fromLane="2" toLane="2" via=":node_right_0_2" dir="t" state="M"/>

    <connection from=":node_left_0" to="reverse_edge" fromLane="0" toLane="0" dir="s" state="M"/>
    <connection from=":node_left_0" to="reverse_edge" fromLane="1" toLane="1" dir="s" state="M"/>
    <connection from=":node_left_0" to="reverse_edge" fromLane="2" toLane="2" dir="s" state="M"/>
    <connection from=":node_right_0" to="edge_with_shape" fromLane="0" toLane="0" dir="s" state="M"/>
    <connection from=":node_right_0" to="edge_with_shape" fromLane="1" toLane="1" dir="s" state="M"/>
    <connection from=":node_right_0" to="edge_with_shape" fromLane="2" toLane="2" dir="s" state="M"/>

</net>
