<routes xmlns:xsi="http://www.w3.org/2001/XMLSchema-instance" xsi:noNamespaceSchemaLocation="http://sumo.dlr.de/xsd/routes_file.xsd">
	<flow id="f1" begin="10" end="10" number="5" route="1" departSpeed="max" departLane="free"/>
</routes>
