<?xml version="1.0"?>

<!-- generated on 08/13/10 09:41:15 by SUMO netconvert Version dev-SVN-r8487
<configuration>

    <input>
        <xml-node-files value="input_nodes.nod.xml"/>
        <xml-edge-files value="input_edges.edg.xml"/>
    </input>

    <tls_building>
        <explicite-tls value="15031750"/>
    </tls_building>

    <report>
        <verbose value="true"/>
    </report>

</configuration>
-->

<net>

   <location netOffset="-13039.00,-18241.00" convBoundary="0.00,0.00,255.00,96.00" origBoundary="13039.00,18241.00,13294.00,18337.00" projParameter="!"/>

   <edge id=":15031750_0" function="internal">
      <lanes>
         <lane id=":15031750_0_0" depart="0" maxspeed="13.89" length="5.08" shape="216.04,63.94 214.68,63.74 213.58,64.04 212.73,64.82 212.13,66.10"/>
      </lanes>
   </edge>
   <edge id=":15031750_1" function="internal">
      <lanes>
         <lane id=":15031750_1_0" depart="0" maxspeed="13.89" length="9.52" shape="216.04,63.94 206.90,61.25"/>
      </lanes>
   </edge>
   <edge id=":15031750_2" function="internal">
      <lanes>
         <lane id=":15031750_2_0" depart="0" maxspeed="13.89" length="0.10" shape="216.04,63.94 215.15,62.87"/>
      </lanes>
   </edge>
   <edge id=":15031750_9" function="internal">
      <lanes>
         <lane id=":15031750_9_0" depart="0" maxspeed="13.89" length="4.72" shape="215.15,62.87 215.09,62.80 214.93,61.89 215.57,61.22 216.99,60.78"/>
      </lanes>
   </edge>
   <edge id=":15031750_3" function="internal">
      <lanes>
         <lane id=":15031750_3_0" depart="0" maxspeed="13.89" length="9.57" shape="207.81,58.08 216.99,60.78"/>
      </lanes>
   </edge>
   <edge id=":15031750_4" function="internal">
      <lanes>
         <lane id=":15031750_4_0" depart="0" maxspeed="13.89" length="7.19" shape="207.81,58.08 210.43,59.26 212.12,61.35"/>
      </lanes>
   </edge>
   <edge id=":15031750_10" function="internal">
      <lanes>
         <lane id=":15031750_10_0" depart="0" maxspeed="13.89" length="3.25" shape="212.12,61.35 212.59,63.27 212.13,66.10"/>
      </lanes>
   </edge>
   <edge id=":15031750_5" function="internal">
      <lanes>
         <lane id=":15031750_5_0" depart="0" maxspeed="13.89" length="0.10" shape="207.81,58.08 208.71,59.14"/>
      </lanes>
   </edge>
   <edge id=":15031750_11" function="internal">
      <lanes>
         <lane id=":15031750_11_0" depart="0" maxspeed="13.89" length="4.72" shape="208.71,59.14 208.78,59.21 208.94,60.12 208.32,60.80 206.90,61.25"/>
      </lanes>
   </edge>
   <edge id=":15031750_6" function="internal">
      <lanes>
         <lane id=":15031750_6_0" depart="0" maxspeed="13.89" length="5.03" shape="208.98,65.11 209.20,63.75 208.93,62.65 208.16,61.82 206.90,61.25"/>
      </lanes>
   </edge>
   <edge id=":15031750_7" function="internal">
      <lanes>
         <lane id=":15031750_7_0" depart="0" maxspeed="13.89" length="3.20" shape="208.98,65.11 211.69,61.18"/>
      </lanes>
   </edge>
   <edge id=":15031750_12" function="internal">
      <lanes>
         <lane id=":15031750_12_0" depart="0" maxspeed="13.89" length="7.16" shape="211.69,61.18 211.95,60.95 214.21,60.37 216.99,60.78"/>
      </lanes>
   </edge>
   <edge id=":15031750_8" function="internal">
      <lanes>
         <lane id=":15031750_8_0" depart="0" maxspeed="13.89" length="0.10" shape="208.98,65.11 210.06,64.24"/>
      </lanes>
   </edge>
   <edge id=":15031750_13" function="internal">
      <lanes>
         <lane id=":15031750_13_0" depart="0" maxspeed="13.89" length="4.72" shape="210.06,64.24 210.14,64.18 211.05,64.03 211.71,64.67 212.13,66.10"/>
      </lanes>
   </edge>
   <edge id=":15031754_0" function="internal">
      <lanes>
         <lane id=":15031754_0_0" depart="0" maxspeed="13.89" length="4.82" shape="-0.46,1.59 -1.42,0.45 -1.59,-0.46 -0.96,-1.14 0.46,-1.59"/>
      </lanes>
   </edge>
   <edge id=":15031788_0" function="internal">
      <lanes>
         <lane id=":15031788_0_0" depart="0" maxspeed="13.89" length="4.82" shape="255.48,72.42 256.42,73.57 256.58,74.48 255.95,75.15 254.52,75.58"/>
      </lanes>
   </edge>
   <edge id=":15031789_0" function="internal">
      <lanes>
         <lane id=":15031789_0_0" depart="0" maxspeed="13.89" length="4.82" shape="202.57,96.49 201.42,97.43 200.51,97.57 199.84,96.93 199.43,95.51"/>
      </lanes>
   </edge>

   <edge id="-15033077" from="15031754" to="15031750" priority="-1" type="" function="normal">
      <lanes>
         <lane id="-15033077_0" depart="1" maxspeed="13.89" length="215.77" shape="0.46,-1.59 207.81,58.08"/>
      </lanes>
   </edge>
   <edge id="-15033109" from="15031788" to="15031750" priority="-1" type="" function="normal">
      <lanes>
         <lane id="-15033109_0" depart="1" maxspeed="13.89" length="40.21" shape="254.52,75.58 216.04,63.94"/>
      </lanes>
   </edge>
   <edge id="-15033110" from="15031789" to="15031750" priority="-1" type="" function="normal">
      <lanes>
         <lane id="-15033110_0" depart="1" maxspeed="13.89" length="31.86" shape="199.43,95.51 208.98,65.11"/>
      </lanes>
   </edge>
   <edge id="15033077" from="15031750" to="15031754" priority="-1" type="" function="normal">
      <lanes>
         <lane id="15033077_0" depart="1" maxspeed="13.89" length="215.77" shape="206.90,61.25 -0.46,1.59"/>
      </lanes>
   </edge>
   <edge id="15033109" from="15031750" to="15031788" priority="-1" type="" function="normal">
      <lanes>
         <lane id="15033109_0" depart="1" maxspeed="13.89" length="40.21" shape="216.99,60.78 255.48,72.42"/>
      </lanes>
   </edge>
   <edge id="15033110" from="15031750" to="15031789" priority="-1" type="" function="normal">
      <lanes>
         <lane id="15033110_0" depart="1" maxspeed="13.89" length="31.86" shape="212.13,66.10 202.57,96.49"/>
      </lanes>
   </edge>

   <row-logic id="15031750" requestSize="9" laneNumber="3">
      <logic>
         <logicitem request="0" response="000000000" foes="100010000" cont="0"/>
         <logicitem request="1" response="000000000" foes="011110000" cont="0"/>
         <logicitem request="2" response="010001000" foes="010001000" cont="1"/>
         <logicitem request="3" response="000000000" foes="010000100" cont="0"/>
         <logicitem request="4" response="000000011" foes="110000011" cont="1"/>
         <logicitem request="5" response="001000010" foes="001000010" cont="1"/>
         <logicitem request="6" response="000000010" foes="000100010" cont="0"/>
         <logicitem request="7" response="000011010" foes="000011110" cont="1"/>
         <logicitem request="8" response="000010001" foes="000010001" cont="1"/>
      </logic>
   </row-logic>
   <row-logic id="15031754" requestSize="1" laneNumber="1">
      <logic>
         <logicitem request="0" response="0" foes="0" cont="0"/>
      </logic>
   </row-logic>
   <row-logic id="15031788" requestSize="1" laneNumber="1">
      <logic>
         <logicitem request="0" response="0" foes="0" cont="0"/>
      </logic>
   </row-logic>
   <row-logic id="15031789" requestSize="1" laneNumber="1">
      <logic>
         <logicitem request="0" response="0" foes="0" cont="0"/>
      </logic>
   </row-logic>

   <tl-logic id="15031750" type="static" programID="0" offset="0">
      <phase duration="31" state="GGgGggrrr"/>
      <phase duration="4" state="yygyggrrr"/>
      <phase duration="6" state="rrGrGGrrr"/>
      <phase duration="4" state="rryryyrrr"/>
      <phase duration="31" state="GrrrrrGGg"/>
      <phase duration="4" state="yrrrrryyy"/>
   </tl-logic>

   <junction id="15031750" type="priority" x="212.00" y="61.00" incLanes="-15033109_0 -15033077_0 -15033110_0" intLanes=":15031750_0_0 :15031750_1_0 :15031750_9_0 :15031750_3_0 :15031750_10_0 :15031750_11_0 :15031750_6_0 :15031750_12_0 :15031750_13_0" shape="215.57,65.48 217.45,59.25 208.26,56.54 206.46,62.79 207.45,64.63 213.65,66.58"/>
   <junction id="15031754" type="priority" x="0.00" y="0.00" incLanes="15033077_0" intLanes=":15031754_0_0" shape="0.01,-0.05 0.90,-3.12 -0.90,3.12 -0.01,0.05"/>
   <junction id="15031788" type="priority" x="255.00" y="74.00" incLanes="15033109_0" intLanes=":15031788_0_0" shape="254.99,74.05 254.06,77.11 255.94,70.89 255.01,73.95"/>
   <junction id="15031789" type="priority" x="201.00" y="96.00" incLanes="15033110_0" intLanes=":15031789_0_0" shape="200.95,95.99 197.90,95.03 204.10,96.97 201.05,96.01"/>

   <junction id=":15031750_9_0" type="internal" x="215.97" y="63.87" incLanes=":15031750_2_0 -15033077_0" intLanes=":15031750_3_0" shape=""/>
   <junction id=":15031750_10_0" type="internal" x="212.50" y="62.90" incLanes=":15031750_4_0 -15033109_0" intLanes=":15031750_0_0 :15031750_1_0" shape=""/>
   <junction id=":15031750_11_0" type="internal" x="207.88" y="58.16" incLanes=":15031750_5_0 -15033109_0" intLanes=":15031750_1_0" shape=""/>
   <junction id=":15031750_12_0" type="internal" x="210.46" y="62.30" incLanes=":15031750_7_0 -15033109_0" intLanes=":15031750_1_0" shape=""/>
   <junction id=":15031750_13_0" type="internal" x="209.06" y="65.05" incLanes=":15031750_8_0 -15033109_0" intLanes=":15031750_0_0" shape=""/>

   <succ edge="-15033077" lane="-15033077_0" junction="15031750">
      <succlane lane="15033109_0" via=":15031750_3_0" tl="15031750" linkno="3" yield="1" dir="s" state="t"/>
      <succlane lane="15033110_0" via=":15031750_4_0" tl="15031750" linkno="4" yield="1" dir="l" state="t" int_end="x"/>
      <succlane lane="15033077_0" via=":15031750_5_0" tl="15031750" linkno="5" yield="1" dir="t" state="t" int_end="x"/>
   </succ>
   <succ edge="-15033109" lane="-15033109_0" junction="15031750">
      <succlane lane="15033110_0" via=":15031750_0_0" tl="15031750" linkno="0" yield="1" dir="r" state="t"/>
      <succlane lane="15033077_0" via=":15031750_1_0" tl="15031750" linkno="1" yield="1" dir="s" state="t"/>
      <succlane lane="15033109_0" via=":15031750_2_0" tl="15031750" linkno="2" yield="1" dir="t" state="t" int_end="x"/>
   </succ>
   <succ edge="-15033110" lane="-15033110_0" junction="15031750">
      <succlane lane="15033077_0" via=":15031750_6_0" tl="15031750" linkno="6" yield="1" dir="r" state="t"/>
      <succlane lane="15033109_0" via=":15031750_7_0" tl="15031750" linkno="7" yield="1" dir="l" state="t" int_end="x"/>
      <succlane lane="15033110_0" via=":15031750_8_0" tl="15031750" linkno="8" yield="1" dir="t" state="t" int_end="x"/>
   </succ>
   <succ edge="15033077" lane="15033077_0" junction="15031754">
      <succlane lane="-15033077_0" via=":15031754_0_0" yield="0" dir="t" state="M"/>
   </succ>
   <succ edge="15033109" lane="15033109_0" junction="15031788">
      <succlane lane="-15033109_0" via=":15031788_0_0" yield="0" dir="t" state="M"/>
   </succ>
   <succ edge="15033110" lane="15033110_0" junction="15031789">
      <succlane lane="-15033110_0" via=":15031789_0_0" yield="0" dir="t" state="M"/>
   </succ>

   <succ edge=":15031750_0" lane=":15031750_0_0" junction="15031750">
      <succlane lane="15033110_0" tl="" linkno="" yield="0" dir="s" state="M"/>
   </succ>
   <succ edge=":15031750_1" lane=":15031750_1_0" junction="15031750">
      <succlane lane="15033077_0" tl="" linkno="" yield="0" dir="s" state="M"/>
   </succ>
   <succ edge=":15031750_2" lane=":15031750_2_0" junction="15031750">
      <succlane lane="15033109_0" via=":15031750_9_0" tl="" linkno="" yield="1" dir="s" state="M"/>
   </succ>
   <succ edge=":15031750_9" lane=":15031750_9_0" junction=":15031750_9">
      <succlane lane="15033109_0" tl="" linkno="0" yield="0" dir="s" state="M"/>
   </succ>
   <succ edge=":15031750_3" lane=":15031750_3_0" junction="15031750">
      <succlane lane="15033109_0" tl="" linkno="" yield="0" dir="s" state="M"/>
   </succ>
   <succ edge=":15031750_4" lane=":15031750_4_0" junction="15031750">
      <succlane lane="15033110_0" via=":15031750_10_0" tl="" linkno="" yield="1" dir="s" state="M"/>
   </succ>
   <succ edge=":15031750_10" lane=":15031750_10_0" junction=":15031750_10">
      <succlane lane="15033110_0" tl="" linkno="0" yield="0" dir="s" state="M"/>
   </succ>
   <succ edge=":15031750_5" lane=":15031750_5_0" junction="15031750">
      <succlane lane="15033077_0" via=":15031750_11_0" tl="" linkno="" yield="1" dir="s" state="M"/>
   </succ>
   <succ edge=":15031750_11" lane=":15031750_11_0" junction=":15031750_11">
      <succlane lane="15033077_0" tl="" linkno="0" yield="0" dir="s" state="M"/>
   </succ>
   <succ edge=":15031750_6" lane=":15031750_6_0" junction="15031750">
      <succlane lane="15033077_0" tl="" linkno="" yield="0" dir="s" state="M"/>
   </succ>
   <succ edge=":15031750_7" lane=":15031750_7_0" junction="15031750">
      <succlane lane="15033109_0" via=":15031750_12_0" tl="" linkno="" yield="1" dir="s" state="M"/>
   </succ>
   <succ edge=":15031750_12" lane=":15031750_12_0" junction=":15031750_12">
      <succlane lane="15033109_0" tl="" linkno="0" yield="0" dir="s" state="M"/>
   </succ>
   <succ edge=":15031750_8" lane=":15031750_8_0" junction="15031750">
      <succlane lane="15033110_0" via=":15031750_13_0" tl="" linkno="" yield="1" dir="s" state="M"/>
   </succ>
   <succ edge=":15031750_13" lane=":15031750_13_0" junction=":15031750_13">
      <succlane lane="15033110_0" tl="" linkno="0" yield="0" dir="s" state="M"/>
   </succ>
   <succ edge=":15031754_0" lane=":15031754_0_0" junction="15031754">
      <succlane lane="-15033077_0" tl="" linkno="" yield="0" dir="s" state="M"/>
   </succ>
   <succ edge=":15031788_0" lane=":15031788_0_0" junction="15031788">
      <succlane lane="-15033109_0" tl="" linkno="" yield="0" dir="s" state="M"/>
   </succ>
   <succ edge=":15031789_0" lane=":15031789_0_0" junction="15031789">
      <succlane lane="-15033110_0" tl="" linkno="" yield="0" dir="s" state="M"/>
   </succ>

</net>
