<routes>
    <vTypeDistribution id="vtd">
		<vType id="normal" accel="1.5" decel="3.0" speedFactor="0.9" speedDev="0.2" sigma="0.5" probability="7"/>
		<vType id="sporty" accel="2.5" decel="4.5" speedFactor="1.3" speedDev="0.1" sigma="0.1" probability="2"/>
		<vType id="trailer" accel="1.2" decel="3.0" vClass="trailer" speedDev="0.1" sigma="0.1" probability="0.7"/>
		<vType id="bus" accel="1.5" decel="3.0" vClass="bus" speedDev="0.1" sigma="0.1" probability="0.3"/>
    </vTypeDistribution>

	<flow id="SN" end="3600" from="Sin" to="Nout" type="vtd" probability="0.05"/>
	<flow id="SE" end="3600" from="Sin" to="Eout" type="vtd" probability="0.01"/>
	<flow id="SW" end="3600" from="Sin" to="Wout" type="vtd" probability="0.01"/>

	<flow id="NS" end="3600" from="Nin" to="Sout" type="vtd" probability="0.05"/>
	<flow id="NE" end="3600" from="Nin" to="Eout" type="vtd" probability="0.01"/>
	<flow id="NW" end="3600" from="Nin" to="Wout" type="vtd" probability="0.01"/>

	<flow id="WE" end="3600" from="Win" to="Eout" type="vtd" probability="0.01"/>
	<flow id="WN" end="3600" from="Win" to="Nout" type="vtd" probability="0.005"/>
	<flow id="WS" end="3600" from="Win" to="Sout" type="vtd" probability="0.01"/>

	<flow id="EW" end="3600" from="Ein" to="Wout" type="vtd" probability="0.01"/>
	<flow id="EN" end="3600" from="Ein" to="Nout" type="vtd" probability="0.01"/>
    <flow id="ES" end="3600" from="Ein" to="Sout" type="vtd" probability="0.005"/>

    <!-- <personFlow id="p" end="3600" period="2">
        <walk from="-gneE1" to="gneE5" />
    </personFlow> -->

    <person id="person1" depart="0" departPos="0" arrivalPos="-1">
        <walk edges="gneE5 -gneE1" />
    </person>
    <person id="person2" depart="0" departPos="-1" arrivalPos="0">
        <walk edges="-gneE1 gneE5" />
    </person>
</routes>
