<additional xmlns:xsi="http://www.w3.org/2001/XMLSchema-instance" xsi:noNamespaceSchemaLocation="https://sumo.dlr.de/xsd/additional_file.xsd">
    <parkingArea id="pa1" lane="left_0" startPos="20" endPos="40" roadsideCapacity="3"/>
</additional>
