<?xml version="1.0" encoding="UTF-8"?>

<!-- generated on 07.12.2018 13:57:23 by Eclipse SUMO netedit Version v1_0_0+1208-d42a3cd999
<configuration xmlns:xsi="http://www.w3.org/2001/XMLSchema-instance" xsi:noNamespaceSchemaLocation="http://sumo.dlr.de/xsd/netconvertConfiguration.xsd">

    <input>
        <sumo-net-file value="D:\sumo\tests\netedit\netElements\crossings\load\pedestrian\input_net.net.xml"/>
    </input>

    <output>
        <output-file value="D:\sumo\tests\netedit\netElements\crossings\load\pedestrian\input_net.net.xml"/>
        <plain-output-prefix value="D:\sumo\tests\netedit\netElements\crossings\load\pedestrian\input_net"/>
    </output>

    <processing>
        <geometry.max-grade.fix value="false"/>
        <offset.disable-normalization value="true"/>
        <lefthand value="false"/>
    </processing>

    <junctions>
        <no-internal-links value="false"/>
        <no-turnarounds value="true"/>
        <junctions.corner-detail value="5"/>
        <junctions.limit-turn-speed value="5.5"/>
        <rectangular-lane-cut value="false"/>
    </junctions>

    <pedestrian>
        <walkingareas value="false"/>
    </pedestrian>

</configuration>
-->

<edges version="1.0" xmlns:xsi="http://www.w3.org/2001/XMLSchema-instance" xsi:noNamespaceSchemaLocation="http://sumo.dlr.de/xsd/edges_file.xsd">
    <edge id="CE" from="C" to="E" priority="3" numLanes="5" speed="13.89">
        <lane index="0" allow="pedestrian" width="3.75"/>
        <lane index="1" disallow="all" width="1.50"/>
        <lane index="2" allow="bicycle" width="1.00"/>
        <lane index="3" allow="passenger"/>
        <lane index="4" allow="passenger"/>
    </edge>
    <edge id="CN" from="C" to="N" priority="2" numLanes="5" speed="13.89">
        <lane index="0" allow="pedestrian" width="3.00"/>
        <lane index="1" disallow="all" width="1.50"/>
        <lane index="2" allow="bicycle" width="1.00"/>
        <lane index="3" allow="passenger"/>
        <lane index="4" allow="passenger"/>
    </edge>
    <edge id="CS" from="C" to="S" priority="2" numLanes="5" speed="13.89">
        <lane index="0" allow="pedestrian" width="3.00"/>
        <lane index="1" disallow="all" width="1.50"/>
        <lane index="2" allow="bicycle" width="1.00"/>
        <lane index="3" allow="passenger"/>
        <lane index="4" allow="passenger"/>
    </edge>
    <edge id="CW" from="C" to="W" priority="3" numLanes="5" speed="13.89">
        <lane index="0" allow="pedestrian" width="2.25"/>
        <lane index="1" disallow="all" width="1.50"/>
        <lane index="2" allow="bicycle" width="1.00"/>
        <lane index="3" allow="passenger"/>
        <lane index="4" allow="passenger"/>
    </edge>
    <edge id="EC" from="E" to="C" priority="3" numLanes="5" speed="13.89">
        <lane index="0" allow="pedestrian" width="1.50"/>
        <lane index="1" disallow="all" width="1.50"/>
        <lane index="2" allow="bicycle" width="1.00"/>
        <lane index="3" allow="passenger"/>
        <lane index="4" allow="passenger"/>
    </edge>
    <edge id="NC" from="N" to="C" priority="2" numLanes="5" speed="13.89">
        <lane index="0" allow="pedestrian" width="3.00"/>
        <lane index="1" disallow="all" width="1.50"/>
        <lane index="2" allow="bicycle" width="1.00"/>
        <lane index="3" allow="passenger"/>
        <lane index="4" allow="passenger"/>
    </edge>
    <edge id="SC" from="S" to="C" priority="2" numLanes="5" speed="13.89">
        <lane index="0" allow="pedestrian" width="3.00"/>
        <lane index="1" disallow="all" width="1.50"/>
        <lane index="2" allow="bicycle" width="1.00"/>
        <lane index="3" allow="passenger"/>
        <lane index="4" allow="passenger"/>
    </edge>
    <edge id="WC" from="W" to="C" priority="3" numLanes="5" speed="13.89">
        <lane index="0" allow="pedestrian" width="3.00"/>
        <lane index="1" disallow="all" width="1.50"/>
        <lane index="2" allow="bicycle" width="1.00"/>
        <lane index="3" allow="passenger"/>
        <lane index="4" allow="passenger"/>
    </edge>
</edges>
