<?xml version="1.0" encoding="UTF-8"?>

<!-- generated on Thu 14 Feb 2019 10:37:15 PM CET by Eclipse SUMO netedit Version v1_1_0+0435-678c69824b
<configuration xmlns:xsi="http://www.w3.org/2001/XMLSchema-instance" xsi:noNamespaceSchemaLocation="http://sumo.dlr.de/xsd/netconvertConfiguration.xsd">

    <output>
        <plain-output-prefix value="/home/kobo/dlr/debug/5193/input_plain2"/>
    </output>

    <processing>
        <offset.disable-normalization value="true"/>
    </processing>

    <junctions>
        <no-turnarounds value="true"/>
    </junctions>

</configuration>
-->

<edges version="1.1" xmlns:xsi="http://www.w3.org/2001/XMLSchema-instance" xsi:noNamespaceSchemaLocation="http://sumo.dlr.de/xsd/edges_file.xsd">
    <edge id="gneE0" from="C" to="gneJ0" priority="-1" numLanes="1" speed="13.89" shape="100.00,-25.00 200.00,-25.00" allow="tram"/>
    <edge id="gneE1" from="C" to="gneJ3" priority="-1" numLanes="1" speed="13.89" shape="100.00,-30.00 200.00,-30.00" allow="passenger"/>
    <edge id="gneE2" from="gneJ5" to="C" priority="-1" numLanes="1" speed="13.89" shape="200.00,-15.00 100.00,-15.00" allow="tram"/>
    <edge id="gneE3" from="gneJ6" to="C" priority="-1" numLanes="1" speed="13.89" shape="200.00,-10.00 100.00,-10.00" allow="passenger"/>
    <edge id="gneE4" from="gneJ8" to="C" priority="-1" numLanes="1" speed="13.89" shape="-20.00,-30.00 80.00,-30.00" allow="passenger"/>
    <edge id="gneE5" from="gneJ11" to="C" priority="-1" numLanes="1" speed="13.89" shape="-20.00,-25.00 80.00,-25.00" allow="tram"/>
    <edge id="gneE6" from="C" to="gneJ12" priority="-1" numLanes="1" speed="13.89" shape="80.00,-15.00 -20.00,-15.00" allow="tram"/>
    <edge id="gneE7" from="C" to="gneJ15" priority="-1" numLanes="1" speed="13.89" shape="80.00,-10.00 -20.00,-10.00" allow="passenger"/>
</edges>
