<routes>
    <vType id="t0" speedDev="0.1" lcExperimental1="0.0" lcAssertive="1.5"/>
</routes>
