<?xml version="1.0" encoding="UTF-8"?>

<!-- generated on 2022-04-11 14:59:00 by Eclipse SUMO sumo Version v1_12_0+2081-d04c25f
This data file and the accompanying materials
are made available under the terms of the Eclipse Public License v2.0
which accompanies this distribution, and is available at
http://www.eclipse.org/legal/epl-v20.html
This file may also be made available under the following Secondary
Licenses when the conditions for such availability set forth in the Eclipse
Public License 2.0 are satisfied: GNU General Public License, version 2
or later which is available at
https://www.gnu.org/licenses/old-licenses/gpl-2.0-standalone.html
SPDX-License-Identifier: EPL-2.0 OR GPL-2.0-or-later
<configuration xmlns:xsi="http://www.w3.org/2001/XMLSchema-instance" xsi:noNamespaceSchemaLocation="http://sumo.dlr.de/xsd/sumoConfiguration.xsd">

    <input>
        <net-file value="net.net.xml"/>
        <route-files value="input_routes.rou.xml"/>
        <additional-files value="input_additional.add.xml"/>
    </input>

    <output>
        <write-license value="true"/>
    </output>

    <processing>
        <default.carfollowmodel value="IDMM"/>
        <default.speeddev value="0"/>
    </processing>

    <report>
        <xml-validation value="never"/>
        <xml-validation.routes value="never"/>
        <no-step-log value="true"/>
    </report>

</configuration>
-->

<instantE1 xmlns:xsi="http://www.w3.org/2001/XMLSchema-instance" xsi:noNamespaceSchemaLocation="http://sumo.dlr.de/xsd/instant_e1_file.xsd">
    <instantOut id="e1i_0" time="4.03" state="enter" vehID="flow.0" speed="2.60" length="5.00" type="t"/>
    <instantOut id="e1i_0" time="5.00" state="stay" vehID="flow.0" speed="2.60" length="5.00" type="t"/>
    <instantOut id="e1i_0" time="5.48" state="leave" vehID="flow.0" speed="5.19" length="5.00" type="t" occupancy="1.45"/>
    <instantOut id="e1i_0" time="7.39" state="enter" vehID="flow.1" speed="5.82" length="5.00" type="t" gap="1.91"/>
    <instantOut id="e1i_0" time="8.00" state="stay" vehID="flow.1" speed="5.82" length="5.00" type="t"/>
    <instantOut id="e1i_0" time="8.18" state="leave" vehID="flow.1" speed="7.92" length="5.00" type="t" occupancy="0.79"/>
    <instantOut id="e1i_0" time="9.94" state="enter" vehID="flow.2" speed="6.64" length="5.00" type="t" gap="1.76"/>
    <instantOut id="e1i_0" time="10.00" state="stay" vehID="flow.2" speed="6.64" length="5.00" type="t"/>
    <instantOut id="e1i_0" time="10.54" state="leave" vehID="flow.2" speed="8.45" length="5.00" type="t" occupancy="0.60"/>
    <instantOut id="e1i_0" time="12.23" state="enter" vehID="flow.3" speed="8.99" length="5.00" type="t" gap="1.69"/>
    <instantOut id="e1i_0" time="12.79" state="leave" vehID="flow.3" speed="8.99" length="5.00" type="t" occupancy="0.56"/>
    <instantOut id="e1i_0" time="14.42" state="enter" vehID="flow.4" speed="9.45" length="5.00" type="t" gap="1.63"/>
    <instantOut id="e1i_0" time="14.95" state="leave" vehID="flow.4" speed="9.45" length="5.00" type="t" occupancy="0.53"/>
    <instantOut id="e1i_0" time="16.54" state="enter" vehID="flow.5" speed="9.82" length="5.00" type="t" gap="1.60"/>
    <instantOut id="e1i_0" time="17.00" state="stay" vehID="flow.5" speed="9.82" length="5.00" type="t"/>
    <instantOut id="e1i_0" time="17.05" state="leave" vehID="flow.5" speed="10.55" length="5.00" type="t" occupancy="0.51"/>
    <instantOut id="e1i_0" time="18.63" state="enter" vehID="flow.6" speed="10.09" length="5.00" type="t" gap="1.58"/>
    <instantOut id="e1i_0" time="19.00" state="stay" vehID="flow.6" speed="10.09" length="5.00" type="t"/>
    <instantOut id="e1i_0" time="19.12" state="leave" vehID="flow.6" speed="10.64" length="5.00" type="t" occupancy="0.49"/>
    <instantOut id="e1i_0" time="20.69" state="enter" vehID="flow.7" speed="10.28" length="5.00" type="t" gap="1.57"/>
    <instantOut id="e1i_0" time="21.00" state="stay" vehID="flow.7" speed="10.28" length="5.00" type="t"/>
    <instantOut id="e1i_0" time="21.17" state="leave" vehID="flow.7" speed="10.69" length="5.00" type="t" occupancy="0.48"/>
    <instantOut id="e1i_0" time="22.73" state="enter" vehID="flow.8" speed="10.40" length="5.00" type="t" gap="1.56"/>
    <instantOut id="e1i_0" time="23.00" state="stay" vehID="flow.8" speed="10.40" length="5.00" type="t"/>
    <instantOut id="e1i_0" time="23.20" state="leave" vehID="flow.8" speed="10.70" length="5.00" type="t" occupancy="0.47"/>
    <instantOut id="e1i_0" time="24.76" state="enter" vehID="flow.9" speed="10.46" length="5.00" type="t" gap="1.55"/>
    <instantOut id="e1i_0" time="25.00" state="stay" vehID="flow.9" speed="10.46" length="5.00" type="t"/>
    <instantOut id="e1i_0" time="25.23" state="leave" vehID="flow.9" speed="10.70" length="5.00" type="t" occupancy="0.47"/>
</instantE1>
