<?xml version="1.0" encoding="UTF-8"?>

<!-- generated on 2022-06-03 16:21:46 by Eclipse SUMO netedit Version v1_13_0+0610-e5b7f68bfcb
-->

<additional xmlns:xsi="http://www.w3.org/2001/XMLSchema-instance" xsi:noNamespaceSchemaLocation="http://sumo.dlr.de/xsd/additional_file.xsd">
    <!-- RouteProbes -->
    <routeProbe id="RouteProbeA" begin="0.00" period="3600.00" edge="gneE0" file="RouteProbeA.xml"/>
    <routeProbe id="RouteProbeB" begin="0.00" period="3600.00" edge="gneE0" file="RouteProbeB.xml"/>
    <routeProbe id="customRouteProbeName" begin="0.00" period="3600.00" edge="gneE0" file="RouteProbeB.xml"/>
    <!-- Calibrators -->
    <calibrator id="calibratorA" edge="gneE2" pos="20.00" period="30.00" name="NameA" output="fileA.txt" routeProbe="RouteProbeA">
        <param key="keyFinal1" value="value1"/>
        <param key="keyFinal2" value="value2"/>
        <param key="keyFinal3" value="value3"/>
    </calibrator>
    <calibrator id="calibratorB" edge="gneE3" pos="30.00" period="40.00" name="NameB" output="fileB.txt" routeProbe="RouteProbeB">
        <param key="keyFinal1" value="value1"/>
        <param key="keyFinal2" value="value2"/>
        <param key="keyFinal3" value="value3"/>
    </calibrator>
</additional>
