<?xml version="1.0" encoding="UTF-8"?>

<!-- generated on 2024-06-05 16:31:36 by Eclipse SUMO netedit Version v1_20_0+0359-09f6b58d48b
-->

<additional xmlns:xsi="http://www.w3.org/2001/XMLSchema-instance" xsi:noNamespaceSchemaLocation="http://sumo.dlr.de/xsd/additional_file.xsd">
    <!-- Detectors -->
    <entryExitDetector id="E3_0" pos="7.50,3.00" period="100.00" file="fileA.txt">
        <detExit lane="EdgeCenter1_1" pos="32.82" friendlyPos="1"/>
        <detEntry lane="EdgeCenter1_0" pos="15.00"/>
    </entryExitDetector>
    <entryExitDetector id="E3_1" pos="17.50,3.00" period="100.00" file="fileB.txt">
        <detExit lane="EdgeCenter1_1" pos="20.00" friendlyPos="1"/>
        <detEntry lane="EdgeCenter1_0" pos="25.00"/>
    </entryExitDetector>
</additional>
