<?xml version="1.0" encoding="UTF-8"?>

<!-- generated on 2024-03-20 09:21:10 by Eclipse SUMO netedit Version v1_19_0+1384-d9d645c5078
-->

<routes xmlns:xsi="http://www.w3.org/2001/XMLSchema-instance" xsi:noNamespaceSchemaLocation="http://sumo.dlr.de/xsd/routes_file.xsd">
    <!-- Vehicles, persons and containers (sorted by depart) -->
    <vehicle id="t_1" type="DEFAULT_RAILTYPE" depart="0.00">
        <route edges="a b c d e"/>
        <stop busStop="1@OCP" duration="10.00" arrival="290" until="300"/>
    </vehicle>
    <vehicle id="t_0" type="DEFAULT_RAILTYPE" depart="100.00" from="a2" to="e2">
        <route edges="a2 b2 c d2 e2"/>
        <stop busStop="3@OCP" duration="10.00" arrival="190" until="200"/>
    </vehicle>
</routes>
