<?xml version="1.0" encoding="UTF-8"?>

<!-- generated on Thu Apr 12 00:04:58 2018 by SUMO netgenerate Version c8481b0
This data file and the accompanying materials
are made available under the terms of the Eclipse Public License v2.0
which accompanies this distribution, and is available at
http://www.eclipse.org/legal/epl-v20.html
SPDX-License-Identifier: EPL-2.0
<configuration xmlns:xsi="http://www.w3.org/2001/XMLSchema-instance" xsi:noNamespaceSchemaLocation="http://sumo.dlr.de/xsd/netgenerateConfiguration.xsd">

    <random_network>
        <rand value="true"/>
        <rand.iterations value="200"/>
        <rand.bidi-probability value="0"/>
    </random_network>

    <output>
        <write-license value="true"/>
        <output-file value="net.net.xml"/>
    </output>

    <report>
        <verbose value="true"/>
        <xml-validation value="never"/>
    </report>

</configuration>
-->

<net version="0.27" xmlns:xsi="http://www.w3.org/2001/XMLSchema-instance" xsi:noNamespaceSchemaLocation="http://sumo.dlr.de/xsd/net_file.xsd">

    <location netOffset="1263.68,1880.98" convBoundary="0.00,0.00,2463.28,3477.43" origBoundary="-1263.68,-1880.98,1199.60,1596.45" projParameter="!"/>

    <edge id=":10_0" function="internal">
        <lane id=":10_0_0" index="0" speed="13.90" length="5.50" shape="1106.41,1931.45 1105.17,1932.08 1104.46,1933.03 1104.26,1934.31 1104.59,1935.91"/>
    </edge>
    <edge id=":10_1" function="internal">
        <lane id=":10_1_0" index="0" speed="13.90" length="8.30" shape="1106.41,1931.45 1104.09,1932.23 1102.57,1933.00 1101.30,1934.14 1099.75,1936.02"/>
    </edge>
    <edge id=":10_2" function="internal">
        <lane id=":10_2_0" index="0" speed="13.90" length="7.42" shape="1106.41,1931.45 1103.95,1932.09 1101.93,1932.33 1100.35,1932.18 1099.22,1931.63"/>
    </edge>
    <edge id=":1004_0" function="internal">
        <lane id=":1004_0_0" index="0" speed="13.90" length="7.19" shape="1127.46,2183.08 1125.07,2182.52 1123.15,2182.44 1121.70,2182.83 1120.72,2183.70"/>
    </edge>
    <edge id=":1004_1" function="internal">
        <lane id=":1004_1_0" index="0" speed="13.90" length="3.75" shape="1122.02,2177.47 1122.50,2178.66 1122.44,2180.10 1122.09,2181.07"/>
    </edge>
    <edge id=":1004_2" function="internal">
        <lane id=":1004_2_0" index="0" speed="13.90" length="2.98" shape="1122.09,2181.07 1121.84,2181.78 1120.72,2183.70"/>
    </edge>
    <edge id=":1010_0" function="internal">
        <lane id=":1010_0_0" index="0" speed="13.90" length="7.58" shape="1152.60,2440.90 1151.40,2443.22 1150.21,2444.93 1149.02,2446.02 1147.84,2446.49"/>
    </edge>
    <edge id=":1010_1" function="internal">
        <lane id=":1010_1_0" index="0" speed="13.90" length="1.87" shape="1148.33,2441.68 1149.52,2443.12"/>
    </edge>
    <edge id=":1010_2" function="internal">
        <lane id=":1010_2_0" index="0" speed="13.90" length="5.10" shape="1149.52,2443.12 1149.88,2443.54 1150.31,2444.96 1149.63,2445.95 1147.84,2446.49"/>
    </edge>
    <edge id=":1026_0" function="internal">
        <lane id=":1026_0_0" index="0" speed="13.90" length="6.20" shape="976.81,2072.21 976.74,2074.04 976.83,2075.30 977.04,2076.55 977.35,2078.36"/>
    </edge>
    <edge id=":1026_1" function="internal">
        <lane id=":1026_1_0" index="0" speed="13.90" length="5.07" shape="976.81,2072.21 976.54,2073.62 975.94,2074.67 975.03,2075.37 973.80,2075.72"/>
    </edge>
    <edge id=":1056_0" function="internal">
        <lane id=":1056_0_0" index="0" speed="13.90" length="2.86" shape="1841.03,1429.71 1841.81,1429.88 1842.43,1429.74 1842.87,1429.29 1843.15,1428.54"/>
    </edge>
    <edge id=":1092_0" function="internal">
        <lane id=":1092_0_0" index="0" speed="13.90" length="4.79" shape="1028.59,2319.14 1028.02,2320.29 1027.90,2321.39 1028.23,2322.45 1029.01,2323.47"/>
    </edge>
    <edge id=":1092_1" function="internal">
        <lane id=":1092_1_0" index="0" speed="13.90" length="11.49" shape="1028.59,2319.14 1026.53,2321.33 1024.71,2321.47 1023.14,2319.55 1021.82,2315.58"/>
    </edge>
    <edge id=":118_0" function="internal">
        <lane id=":118_0_0" index="0" speed="13.90" length="7.54" shape="1034.86,1559.77 1032.74,1560.36 1031.22,1560.43 1029.66,1560.23 1027.43,1559.99"/>
    </edge>
    <edge id=":118_1" function="internal">
        <lane id=":118_1_0" index="0" speed="13.90" length="6.72" shape="1034.86,1559.77 1033.54,1559.91 1032.23,1559.39 1030.93,1558.22 1029.64,1556.39"/>
    </edge>
    <edge id=":12_0" function="internal">
        <lane id=":12_0_0" index="0" speed="13.90" length="10.76" shape="1338.52,1707.57 1336.85,1705.00 1335.94,1702.91 1335.26,1700.70 1334.26,1697.76"/>
    </edge>
    <edge id=":12_1" function="internal">
        <lane id=":12_1_0" index="0" speed="13.90" length="2.93" shape="1338.52,1707.57 1338.08,1706.29 1338.28,1704.73"/>
    </edge>
    <edge id=":12_2" function="internal">
        <lane id=":12_2_0" index="0" speed="13.90" length="3.01" shape="1338.52,1707.57 1337.87,1706.04 1338.40,1704.80"/>
    </edge>
    <edge id=":12_6" function="internal">
        <lane id=":12_6_0" index="0" speed="13.90" length="5.66" shape="1338.28,1704.73 1338.31,1704.54 1339.22,1702.35 1340.81,1699.69"/>
    </edge>
    <edge id=":12_7" function="internal">
        <lane id=":12_7_0" index="0" speed="13.90" length="4.94" shape="1338.40,1704.80 1340.12,1703.85 1343.02,1703.19"/>
    </edge>
    <edge id=":12_3" function="internal">
        <lane id=":12_3_0" index="0" speed="13.90" length="6.48" shape="1331.32,1700.67 1333.30,1701.20 1334.45,1700.89 1334.77,1699.75 1334.26,1697.76"/>
    </edge>
    <edge id=":12_4" function="internal">
        <lane id=":12_4_0" index="0" speed="13.90" length="10.33" shape="1331.32,1700.67 1334.53,1701.65 1337.18,1701.81 1339.27,1701.16 1340.81,1699.69"/>
    </edge>
    <edge id=":12_5" function="internal">
        <lane id=":12_5_0" index="0" speed="13.90" length="12.17" shape="1331.32,1700.67 1334.41,1701.94 1337.06,1702.89 1339.76,1703.36 1343.02,1703.19"/>
    </edge>
    <edge id=":1200_0" function="internal">
        <lane id=":1200_0_0" index="0" speed="13.90" length="7.23" shape="785.49,2099.80 783.42,2099.87 782.03,2099.44 780.73,2098.61 778.91,2097.44"/>
    </edge>
    <edge id=":1200_1" function="internal">
        <lane id=":1200_1_0" index="0" speed="13.90" length="6.56" shape="785.49,2099.80 783.40,2099.83 782.36,2099.25 782.36,2098.05 783.41,2096.25"/>
    </edge>
    <edge id=":122_0" function="internal">
        <lane id=":122_0_0" index="0" speed="13.90" length="6.37" shape="1703.41,1671.01 1703.87,1669.22 1703.87,1667.93 1703.56,1666.63 1703.09,1664.79"/>
    </edge>
    <edge id=":122_1" function="internal">
        <lane id=":122_1_0" index="0" speed="13.90" length="5.55" shape="1703.41,1671.01 1704.11,1669.49 1705.01,1668.47 1706.11,1667.94 1707.41,1667.90"/>
    </edge>
    <edge id=":124_0" function="internal">
        <lane id=":124_0_0" index="0" speed="13.90" length="5.34" shape="1790.40,1951.12 1789.11,1951.94 1788.52,1952.92 1788.61,1954.06 1789.39,1955.37"/>
    </edge>
    <edge id=":124_1" function="internal">
        <lane id=":124_1_0" index="0" speed="13.90" length="10.55" shape="1782.47,1947.41 1789.39,1955.37"/>
    </edge>
    <edge id=":124_2" function="internal">
        <lane id=":124_2_0" index="0" speed="13.90" length="5.49" shape="1781.88,1951.75 1783.50,1951.28 1785.29,1951.72 1786.90,1952.85"/>
    </edge>
    <edge id=":124_3" function="internal">
        <lane id=":124_3_0" index="0" speed="13.90" length="3.55" shape="1786.90,1952.85 1787.25,1953.09 1789.39,1955.37"/>
    </edge>
    <edge id=":127_0" function="internal">
        <lane id=":127_0_0" index="0" speed="13.90" length="7.27" shape="1609.34,2177.32 1609.92,2178.69 1611.12,2179.37 1612.95,2179.35 1615.42,2178.64"/>
    </edge>
    <edge id=":127_1" function="internal">
        <lane id=":127_1_0" index="0" speed="13.90" length="7.99" shape="1609.34,2177.32 1609.66,2180.10 1609.69,2182.33 1609.42,2184.01 1608.87,2185.14"/>
    </edge>
    <edge id=":1322_0" function="internal">
        <lane id=":1322_0_0" index="0" speed="13.90" length="7.19" shape="1098.54,907.01 1098.21,904.92 1097.76,903.54 1097.13,902.20 1096.26,900.25"/>
    </edge>
    <edge id=":1322_1" function="internal">
        <lane id=":1322_1_0" index="0" speed="13.90" length="7.54" shape="1098.54,907.01 1098.46,904.83 1098.81,903.35 1099.55,901.94 1100.64,899.98"/>
    </edge>
    <edge id=":1322_2" function="internal">
        <lane id=":1322_2_0" index="0" speed="13.90" length="6.33" shape="1098.54,907.01 1098.55,904.98 1099.13,903.83 1100.28,903.56 1101.99,904.19"/>
    </edge>
    <edge id=":1344_0" function="internal">
        <lane id=":1344_0_0" index="0" speed="13.90" length="7.15" shape="946.50,2474.53 944.49,2474.99 943.24,2475.69 942.13,2476.74 940.57,2478.20"/>
    </edge>
    <edge id=":1344_1" function="internal">
        <lane id=":1344_1_0" index="0" speed="13.90" length="5.92" shape="946.50,2474.53 944.65,2474.58 943.33,2474.14 942.53,2473.21 942.26,2471.78"/>
    </edge>
    <edge id=":1356_0" function="internal">
        <lane id=":1356_0_0" index="0" speed="13.90" length="5.75" shape="1605.76,1120.85 1606.84,1121.66 1608.06,1121.89 1609.40,1121.52 1610.88,1120.56"/>
    </edge>
    <edge id=":1356_1" function="internal">
        <lane id=":1356_1_0" index="0" speed="13.90" length="7.10" shape="1605.76,1120.85 1607.27,1122.34 1608.34,1123.44 1609.01,1124.69 1609.30,1126.69"/>
    </edge>
    <edge id=":1362_0" function="internal">
        <lane id=":1362_0_0" index="0" speed="13.90" length="4.60" shape="1032.46,746.48 1031.86,745.43 1031.05,744.69 1030.05,744.28 1028.84,744.17"/>
    </edge>
    <edge id=":1362_1" function="internal">
        <lane id=":1362_1_0" index="0" speed="13.90" length="7.00" shape="1032.46,746.48 1031.73,744.19 1031.66,742.42 1032.26,741.18 1033.52,740.47"/>
    </edge>
    <edge id=":137_0" function="internal">
        <lane id=":137_0_0" index="0" speed="13.90" length="7.15" shape="1414.66,2194.38 1412.51,2195.28 1411.14,2194.44 1410.55,2191.86 1410.57,2191.29"/>
    </edge>
    <edge id=":137_2" function="internal">
        <lane id=":137_2_0" index="0" speed="13.90" length="3.76" shape="1410.57,2191.29 1410.74,2187.54"/>
    </edge>
    <edge id=":137_1" function="internal">
        <lane id=":137_1_0" index="0" speed="13.90" length="5.78" shape="1406.84,2189.29 1408.37,2190.09 1409.53,2190.06 1410.32,2189.21 1410.74,2187.54"/>
    </edge>
    <edge id=":1372_0" function="internal">
        <lane id=":1372_0_0" index="0" speed="13.90" length="11.08" shape="1203.09,692.85 1206.10,691.95 1208.33,691.07 1210.42,689.90 1213.03,688.14"/>
    </edge>
    <edge id=":1372_1" function="internal">
        <lane id=":1372_1_0" index="0" speed="13.90" length="12.45" shape="1203.09,692.85 1206.35,692.08 1209.21,691.79 1212.07,691.94 1215.37,692.54"/>
    </edge>
    <edge id=":1372_2" function="internal">
        <lane id=":1372_2_0" index="0" speed="13.90" length="11.21" shape="1203.09,692.85 1206.26,692.33 1208.97,692.66 1211.22,693.85 1213.00,695.90"/>
    </edge>
    <edge id=":1372_3" function="internal">
        <lane id=":1372_3_0" index="0" speed="13.90" length="10.95" shape="1205.70,696.06 1207.24,693.35 1208.69,691.51 1210.48,689.97 1213.03,688.14"/>
    </edge>
    <edge id=":1372_4" function="internal">
        <lane id=":1372_4_0" index="0" speed="13.90" length="2.50" shape="1205.70,696.06 1207.20,694.06"/>
    </edge>
    <edge id=":1372_5" function="internal">
        <lane id=":1372_5_0" index="0" speed="13.90" length="2.46" shape="1205.70,696.06 1207.11,694.04"/>
    </edge>
    <edge id=":1372_6" function="internal">
        <lane id=":1372_6_0" index="0" speed="13.90" length="8.66" shape="1207.20,694.06 1207.29,693.93 1209.43,692.64 1212.12,692.17 1215.37,692.54"/>
    </edge>
    <edge id=":1372_7" function="internal">
        <lane id=":1372_7_0" index="0" speed="13.90" length="7.57" shape="1207.11,694.04 1207.41,693.62 1209.20,692.78 1211.06,693.54 1213.00,695.90"/>
    </edge>
    <edge id=":1387_0" function="internal">
        <lane id=":1387_0_0" index="0" speed="13.90" length="7.05" shape="2177.56,2400.18 2177.85,2402.26 2178.06,2403.71 2178.03,2405.14 2177.58,2407.15"/>
    </edge>
    <edge id=":1387_1" function="internal">
        <lane id=":1387_1_0" index="0" speed="13.90" length="2.49" shape="2174.23,2402.95 2176.02,2403.67 2176.45,2404.03"/>
    </edge>
    <edge id=":1387_2" function="internal">
        <lane id=":1387_2_0" index="0" speed="13.90" length="3.58" shape="2176.45,2404.03 2177.17,2404.61 2177.69,2405.77 2177.58,2407.15"/>
    </edge>
    <edge id=":14_0" function="internal">
        <lane id=":14_0_0" index="0" speed="13.90" length="4.90" shape="1149.38,1522.92 1148.68,1521.79 1147.78,1521.13 1146.67,1520.92 1145.37,1521.18"/>
    </edge>
    <edge id=":14_1" function="internal">
        <lane id=":14_1_0" index="0" speed="13.90" length="12.98" shape="1149.38,1522.92 1148.82,1520.12 1150.04,1518.26 1153.03,1517.33 1157.80,1517.34"/>
    </edge>
    <edge id=":1403_0" function="internal">
        <lane id=":1403_0_0" index="0" speed="13.90" length="4.57" shape="843.85,2560.75 842.87,2561.81 842.68,2562.63 843.29,2563.21 844.69,2563.55"/>
    </edge>
    <edge id=":1424_0" function="internal">
        <lane id=":1424_0_0" index="0" speed="13.90" length="5.18" shape="1766.59,993.68 1767.50,992.67 1767.86,991.58 1767.67,990.39 1766.93,989.12"/>
    </edge>
    <edge id=":1424_1" function="internal">
        <lane id=":1424_1_0" index="0" speed="13.90" length="6.69" shape="1766.59,993.68 1768.14,992.45 1769.20,991.58 1770.13,990.58 1771.28,988.98"/>
    </edge>
    <edge id=":1428_0" function="internal">
        <lane id=":1428_0_0" index="0" speed="13.90" length="5.21" shape="912.40,749.15 910.97,749.42 910.04,750.09 909.62,751.15 909.72,752.61"/>
    </edge>
    <edge id=":1428_1" function="internal">
        <lane id=":1428_1_0" index="0" speed="13.90" length="9.33" shape="912.40,749.15 909.67,749.34 907.79,749.76 906.11,750.68 903.93,752.36"/>
    </edge>
    <edge id=":1428_2" function="internal">
        <lane id=":1428_2_0" index="0" speed="13.90" length="11.61" shape="912.40,749.15 909.39,748.82 907.13,747.54 905.61,745.30 904.85,742.12"/>
    </edge>
    <edge id=":1428_3" function="internal">
        <lane id=":1428_3_0" index="0" speed="13.90" length="10.77" shape="912.40,749.15 908.80,748.94 907.00,747.90 907.00,746.04 908.79,743.36"/>
    </edge>
    <edge id=":1430_0" function="internal">
        <lane id=":1430_0_0" index="0" speed="13.90" length="5.56" shape="1328.51,606.91 1329.38,606.03 1329.88,604.89 1330.00,603.50 1329.75,601.83"/>
    </edge>
    <edge id=":1430_1" function="internal">
        <lane id=":1430_1_0" index="0" speed="13.90" length="9.69" shape="1328.51,606.91 1330.90,605.38 1332.74,604.67 1334.74,604.46 1337.61,604.42"/>
    </edge>
    <edge id=":1430_2" function="internal">
        <lane id=":1430_2_0" index="0" speed="13.90" length="8.28" shape="1328.51,606.91 1330.61,605.82 1332.48,605.66 1334.12,606.44 1335.54,608.15"/>
    </edge>
    <edge id=":1440_0" function="internal">
        <lane id=":1440_0_0" index="0" speed="13.90" length="8.45" shape="1409.63,731.62 1411.02,733.53 1412.61,734.93 1414.38,735.80 1416.35,736.17"/>
    </edge>
    <edge id=":1440_1" function="internal">
        <lane id=":1440_1_0" index="0" speed="13.90" length="8.53" shape="1409.63,731.62 1411.09,734.30 1411.98,736.51 1412.32,738.26 1412.08,739.56"/>
    </edge>
    <edge id=":1440_2" function="internal">
        <lane id=":1440_2_0" index="0" speed="13.90" length="9.22" shape="1407.22,734.97 1409.89,735.54 1411.74,735.85 1413.61,736.02 1416.35,736.17"/>
    </edge>
    <edge id=":1440_3" function="internal">
        <lane id=":1440_3_0" index="0" speed="13.90" length="2.82" shape="1407.22,734.97 1409.92,735.79"/>
    </edge>
    <edge id=":1440_4" function="internal">
        <lane id=":1440_4_0" index="0" speed="13.90" length="4.95" shape="1409.92,735.79 1411.63,736.82 1412.35,738.08 1412.08,739.56"/>
    </edge>
    <edge id=":1446_0" function="internal">
        <lane id=":1446_0_0" index="0" speed="13.90" length="5.57" shape="1339.70,899.07 1338.26,898.30 1337.10,898.30 1336.23,899.06 1335.65,900.58"/>
    </edge>
    <edge id=":1446_1" function="internal">
        <lane id=":1446_1_0" index="0" speed="13.90" length="11.20" shape="1339.26,890.01 1337.93,892.88 1337.06,895.16 1336.38,897.51 1335.65,900.58"/>
    </edge>
    <edge id=":1446_2" function="internal">
        <lane id=":1446_2_0" index="0" speed="13.90" length="6.92" shape="1335.01,890.25 1335.88,892.22 1336.28,894.60 1336.21,896.95"/>
    </edge>
    <edge id=":1446_3" function="internal">
        <lane id=":1446_3_0" index="0" speed="13.90" length="3.68" shape="1336.21,896.95 1336.20,897.38 1335.65,900.58"/>
    </edge>
    <edge id=":1463_0" function="internal">
        <lane id=":1463_0_0" index="0" speed="13.90" length="6.50" shape="2152.16,2495.22 2151.82,2497.25 2152.23,2498.37 2153.41,2498.57 2155.34,2497.85"/>
    </edge>
    <edge id=":1463_1" function="internal">
        <lane id=":1463_1_0" index="0" speed="13.90" length="10.49" shape="2152.16,2495.22 2151.39,2498.66 2151.25,2501.48 2151.75,2503.65 2152.88,2505.20"/>
    </edge>
    <edge id=":1463_2" function="internal">
        <lane id=":1463_2_0" index="0" speed="13.90" length="14.52" shape="2152.16,2495.22 2151.11,2498.74 2150.02,2502.16 2148.80,2505.53 2147.39,2508.92"/>
    </edge>
    <edge id=":1463_3" function="internal">
        <lane id=":1463_3_0" index="0" speed="13.90" length="13.33" shape="2152.16,2495.22 2150.67,2499.41 2148.94,2502.54 2146.97,2504.62 2144.75,2505.64"/>
    </edge>
    <edge id=":1482_0" function="internal">
        <lane id=":1482_0_0" index="0" speed="13.90" length="6.59" shape="1840.52,892.18 1839.47,890.53 1838.71,889.43 1837.88,888.37 1836.66,886.84"/>
    </edge>
    <edge id=":1482_1" function="internal">
        <lane id=":1482_1_0" index="0" speed="13.90" length="5.68" shape="1836.20,892.11 1837.03,890.59 1837.38,889.20 1837.26,887.96 1836.66,886.84"/>
    </edge>
    <edge id=":1492_0" function="internal">
        <lane id=":1492_0_0" index="0" speed="13.90" length="5.29" shape="1662.57,853.57 1661.49,852.53 1660.41,852.16 1659.31,852.49 1658.20,853.49"/>
    </edge>
    <edge id=":1492_1" function="internal">
        <lane id=":1492_1_0" index="0" speed="13.90" length="10.44" shape="1662.57,853.57 1660.70,851.17 1659.29,849.51 1657.74,847.97 1655.49,845.94"/>
    </edge>
    <edge id=":1492_2" function="internal">
        <lane id=":1492_2_0" index="0" speed="13.90" length="9.80" shape="1662.57,853.57 1660.96,851.16 1659.91,848.85 1659.43,846.65 1659.51,844.54"/>
    </edge>
    <edge id=":1498_0" function="internal">
        <lane id=":1498_0_0" index="0" speed="13.90" length="5.81" shape="879.93,507.74 879.52,506.05 878.73,505.19 877.57,505.17 876.03,505.99"/>
    </edge>
    <edge id=":1498_1" function="internal">
        <lane id=":1498_1_0" index="0" speed="13.90" length="10.98" shape="879.93,507.74 879.74,503.31 880.31,500.68 881.63,499.86 883.71,500.84"/>
    </edge>
    <edge id=":1500_0" function="internal">
        <lane id=":1500_0_0" index="0" speed="13.90" length="5.63" shape="795.86,839.43 794.72,840.63 794.42,841.75 794.95,842.78 796.32,843.72"/>
    </edge>
    <edge id=":1500_1" function="internal">
        <lane id=":1500_1_0" index="0" speed="13.90" length="14.13" shape="795.86,839.43 793.99,841.57 792.76,844.48 792.18,848.14 792.25,852.56"/>
    </edge>
    <edge id=":1500_2" function="internal">
        <lane id=":1500_2_0" index="0" speed="13.90" length="9.49" shape="795.86,839.43 792.87,841.56 790.51,842.63 788.80,842.64 787.72,841.58"/>
    </edge>
    <edge id=":1516_0" function="internal">
        <lane id=":1516_0_0" index="0" speed="13.90" length="6.40" shape="1019.88,605.16 1021.61,606.19 1022.80,606.20 1023.44,605.20 1023.53,603.19"/>
    </edge>
    <edge id=":1516_1" function="internal">
        <lane id=":1516_1_0" index="0" speed="13.90" length="8.66" shape="1019.88,605.16 1022.50,606.93 1024.66,607.90 1026.37,608.05 1027.62,607.40"/>
    </edge>
    <edge id=":1516_2" function="internal">
        <lane id=":1516_2_0" index="0" speed="13.90" length="8.74" shape="1023.40,611.89 1023.67,611.05 1023.78,609.32 1023.73,606.70 1023.53,603.19"/>
    </edge>
    <edge id=":1516_3" function="internal">
        <lane id=":1516_3_0" index="0" speed="13.90" length="6.16" shape="1023.40,611.89 1027.62,607.40"/>
    </edge>
    <edge id=":1522_0" function="internal">
        <lane id=":1522_0_0" index="0" speed="13.90" length="11.60" shape="943.76,913.33 944.40,916.48 944.81,919.03 945.09,921.59 945.32,924.81"/>
    </edge>
    <edge id=":1522_1" function="internal">
        <lane id=":1522_1_0" index="0" speed="13.90" length="10.74" shape="943.76,913.33 944.12,916.32 943.85,918.99 942.96,921.33 941.44,923.35"/>
    </edge>
    <edge id=":1522_2" function="internal">
        <lane id=":1522_2_0" index="0" speed="13.90" length="2.41" shape="940.45,915.88 942.42,917.28"/>
    </edge>
    <edge id=":1522_3" function="internal">
        <lane id=":1522_3_0" index="0" speed="13.90" length="2.40" shape="940.45,915.88 942.42,917.26"/>
    </edge>
    <edge id=":1522_4" function="internal">
        <lane id=":1522_4_0" index="0" speed="13.90" length="8.24" shape="942.42,917.28 943.89,919.23 944.86,921.74 945.32,924.81"/>
    </edge>
    <edge id=":1522_5" function="internal">
        <lane id=":1522_5_0" index="0" speed="13.90" length="7.00" shape="942.42,917.26 942.61,917.40 943.49,919.15 943.10,921.14 941.44,923.35"/>
    </edge>
    <edge id=":1525_0" function="internal">
        <lane id=":1525_0_0" index="0" speed="13.90" length="6.26" shape="1290.20,440.14 1289.62,438.95 1288.56,438.14 1287.02,437.74 1285.01,437.73"/>
    </edge>
    <edge id=":1525_1" function="internal">
        <lane id=":1525_1_0" index="0" speed="13.90" length="8.14" shape="1290.20,440.14 1289.55,437.85 1288.82,436.35 1287.71,435.08 1285.94,433.46"/>
    </edge>
    <edge id=":1525_2" function="internal">
        <lane id=":1525_2_0" index="0" speed="13.90" length="7.23" shape="1290.20,440.14 1289.78,437.69 1289.86,435.78 1290.44,434.42 1291.52,433.60"/>
    </edge>
    <edge id=":1531_0" function="internal">
        <lane id=":1531_0_0" index="0" speed="13.90" length="2.98" shape="1570.53,600.69 1571.37,600.79 1571.91,601.15 1572.17,601.74 1572.13,602.59"/>
    </edge>
    <edge id=":1770_0" function="internal">
        <lane id=":1770_0_0" index="0" speed="13.90" length="5.75" shape="692.25,641.50 691.38,639.95 690.41,638.81 689.36,638.07 688.22,637.73"/>
    </edge>
    <edge id=":1770_1" function="internal">
        <lane id=":1770_1_0" index="0" speed="13.90" length="5.87" shape="693.80,636.94 692.36,637.80 691.20,638.07 689.95,637.97 688.22,637.73"/>
    </edge>
    <edge id=":1772_0" function="internal">
        <lane id=":1772_0_0" index="0" speed="13.90" length="7.21" shape="812.38,1054.21 807.33,1059.35"/>
    </edge>
    <edge id=":1772_1" function="internal">
        <lane id=":1772_1_0" index="0" speed="13.90" length="3.12" shape="808.48,1052.79 808.56,1055.06 808.48,1055.90"/>
    </edge>
    <edge id=":1772_2" function="internal">
        <lane id=":1772_2_0" index="0" speed="13.90" length="3.70" shape="808.48,1055.90 808.39,1056.91 807.98,1058.34 807.33,1059.35"/>
    </edge>
    <edge id=":1782_0" function="internal">
        <lane id=":1782_0_0" index="0" speed="13.90" length="5.37" shape="1186.17,445.83 1184.70,445.66 1183.82,445.01 1182.97,444.15 1181.58,443.36"/>
    </edge>
    <edge id=":1782_1" function="internal">
        <lane id=":1782_1_0" index="0" speed="13.90" length="5.62" shape="1182.55,447.57 1183.53,446.24 1183.69,445.09 1183.04,444.13 1181.58,443.36"/>
    </edge>
    <edge id=":1796_0" function="internal">
        <lane id=":1796_0_0" index="0" speed="13.90" length="7.08" shape="1008.31,384.31 1007.92,382.63 1007.00,381.32 1005.57,380.38 1003.61,379.81"/>
    </edge>
    <edge id=":1796_1" function="internal">
        <lane id=":1796_1_0" index="0" speed="13.90" length="8.82" shape="1008.31,384.31 1008.10,381.72 1007.76,379.94 1007.05,378.28 1005.73,376.03"/>
    </edge>
    <edge id=":1796_2" function="internal">
        <lane id=":1796_2_0" index="0" speed="13.90" length="7.88" shape="1008.31,384.31 1008.26,381.65 1008.54,379.52 1009.13,377.94 1010.03,376.90"/>
    </edge>
    <edge id=":1796_3" function="internal">
        <lane id=":1796_3_0" index="0" speed="13.90" length="8.39" shape="1011.76,381.71 1009.40,380.91 1007.75,380.49 1006.07,380.21 1003.61,379.81"/>
    </edge>
    <edge id=":1796_4" function="internal">
        <lane id=":1796_4_0" index="0" speed="13.90" length="1.95" shape="1011.76,381.71 1009.97,380.94"/>
    </edge>
    <edge id=":1796_5" function="internal">
        <lane id=":1796_5_0" index="0" speed="13.90" length="1.97" shape="1011.76,381.71 1009.98,380.86"/>
    </edge>
    <edge id=":1796_6" function="internal">
        <lane id=":1796_6_0" index="0" speed="13.90" length="6.61" shape="1009.97,380.94 1009.48,380.73 1008.10,379.67 1007.04,378.21 1005.73,376.03"/>
    </edge>
    <edge id=":1796_7" function="internal">
        <lane id=":1796_7_0" index="0" speed="13.90" length="5.18" shape="1009.98,380.86 1009.55,380.65 1008.53,379.50 1008.69,378.25 1010.03,376.90"/>
    </edge>
    <edge id=":18_0" function="internal">
        <lane id=":18_0_0" index="0" speed="13.90" length="5.79" shape="1649.16,1817.22 1650.66,1816.37 1651.27,1815.38 1650.98,1814.25 1649.79,1812.99"/>
    </edge>
    <edge id=":18_1" function="internal">
        <lane id=":18_1_0" index="0" speed="13.90" length="9.94" shape="1649.16,1817.22 1651.76,1815.95 1653.82,1814.45 1655.33,1812.72 1656.31,1810.75"/>
    </edge>
    <edge id=":18_2" function="internal">
        <lane id=":18_2_0" index="0" speed="13.90" length="9.64" shape="1649.16,1817.22 1652.52,1816.03 1655.18,1815.45 1657.14,1815.47 1658.38,1816.11"/>
    </edge>
    <edge id=":1881_0" function="internal">
        <lane id=":1881_0_0" index="0" speed="13.90" length="6.63" shape="960.19,1159.69 960.36,1161.65 960.50,1163.01 960.47,1164.35 960.16,1166.28"/>
    </edge>
    <edge id=":1881_1" function="internal">
        <lane id=":1881_1_0" index="0" speed="13.90" length="1.82" shape="957.13,1162.83 958.71,1163.10 958.89,1163.21"/>
    </edge>
    <edge id=":1881_2" function="internal">
        <lane id=":1881_2_0" index="0" speed="13.90" length="3.64" shape="958.89,1163.21 959.74,1163.76 960.22,1164.82 960.16,1166.28"/>
    </edge>
    <edge id=":1890_0" function="internal">
        <lane id=":1890_0_0" index="0" speed="13.90" length="5.62" shape="1484.82,353.31 1486.24,352.48 1486.85,351.49 1486.63,350.35 1485.59,349.07"/>
    </edge>
    <edge id=":1890_1" function="internal">
        <lane id=":1890_1_0" index="0" speed="13.90" length="10.03" shape="1484.82,353.31 1487.55,352.17 1489.37,351.12 1490.76,349.62 1492.20,347.08"/>
    </edge>
    <edge id=":1890_2" function="internal">
        <lane id=":1890_2_0" index="0" speed="13.90" length="12.71" shape="1484.82,353.31 1487.99,352.10 1490.85,351.31 1493.77,350.89 1497.16,350.79"/>
    </edge>
    <edge id=":1890_3" function="internal">
        <lane id=":1890_3_0" index="0" speed="13.90" length="11.44" shape="1484.82,353.31 1488.11,352.30 1490.98,352.16 1493.41,352.91 1495.41,354.55"/>
    </edge>
    <edge id=":1918_0" function="internal">
        <lane id=":1918_0_0" index="0" speed="13.90" length="6.38" shape="1358.15,2633.40 1357.49,2631.62 1357.01,2630.37 1356.31,2629.29 1354.96,2628.02"/>
    </edge>
    <edge id=":1918_1" function="internal">
        <lane id=":1918_1_0" index="0" speed="13.90" length="1.99" shape="1359.94,2628.40 1358.83,2629.11 1358.17,2629.21"/>
    </edge>
    <edge id=":1918_2" function="internal">
        <lane id=":1918_2_0" index="0" speed="13.90" length="3.53" shape="1358.17,2629.21 1357.63,2629.29 1356.34,2628.93 1354.96,2628.02"/>
    </edge>
    <edge id=":1929_0" function="internal">
        <lane id=":1929_0_0" index="0" speed="13.90" length="7.15" shape="1688.68,702.86 1687.33,701.22 1686.43,700.06 1685.72,698.80 1684.94,696.84"/>
    </edge>
    <edge id=":1929_1" function="internal">
        <lane id=":1929_1_0" index="0" speed="13.90" length="7.21" shape="1684.66,703.88 1685.13,701.79 1685.48,700.30 1685.49,698.85 1684.94,696.84"/>
    </edge>
    <edge id=":1934_0" function="internal">
        <lane id=":1934_0_0" index="0" speed="13.90" length="5.23" shape="457.64,610.80 456.34,610.86 455.28,611.36 454.46,612.30 453.88,613.69"/>
    </edge>
    <edge id=":1934_1" function="internal">
        <lane id=":1934_1_0" index="0" speed="13.90" length="9.45" shape="457.64,610.80 454.86,610.46 452.97,610.14 451.09,609.71 448.38,608.99"/>
    </edge>
    <edge id=":1934_2" function="internal">
        <lane id=":1934_2_0" index="0" speed="13.90" length="7.95" shape="457.64,610.80 454.71,610.23 453.02,609.33 452.57,608.10 453.37,606.55"/>
    </edge>
    <edge id=":1940_0" function="internal">
        <lane id=":1940_0_0" index="0" speed="13.90" length="6.44" shape="718.97,1150.92 717.74,1152.54 717.59,1153.71 718.52,1154.46 720.53,1154.76"/>
    </edge>
    <edge id=":1940_1" function="internal">
        <lane id=":1940_1_0" index="0" speed="13.90" length="12.86" shape="718.97,1150.92 715.53,1153.97 712.59,1155.46 710.15,1155.39 708.21,1153.78"/>
    </edge>
    <edge id=":1949_0" function="internal">
        <lane id=":1949_0_0" index="0" speed="13.90" length="6.10" shape="841.97,351.79 840.23,351.64 839.03,351.90 837.89,352.53 836.34,353.48"/>
    </edge>
    <edge id=":1949_1" function="internal">