<?xml version="1.0" encoding="UTF-8"?>

<!-- generated on Mon Feb 17 15:30:53 2020 by Eclipse SUMO netconvert Version v1_5_0+0130-ceb0a01
This data file and the accompanying materials
are made available under the terms of the Eclipse Public License v2.0
which accompanies this distribution, and is available at
http://www.eclipse.org/legal/epl-v20.html
SPDX-License-Identifier: EPL-2.0
<configuration xmlns:xsi="http://www.w3.org/2001/XMLSchema-instance" xsi:noNamespaceSchemaLocation="http://sumo.dlr.de/xsd/netconvertConfiguration.xsd">

    <input>
        <node-files value="input_plain.nod.xml"/>
        <edge-files value="input_plain.edg.xml"/>
    </input>

    <output>
        <write-license value="true"/>
        <output-file value="net.net.xml"/>
    </output>

    <junctions>
        <no-internal-links value="true"/>
        <no-turnarounds value="true"/>
    </junctions>

    <report>
        <xml-validation value="never"/>
        <aggregate-warnings value="5"/>
    </report>

</configuration>
-->

<net version="1.6" junctionCornerDetail="5" limitTurnSpeed="5.50" xmlns:xsi="http://www.w3.org/2001/XMLSchema-instance" xsi:noNamespaceSchemaLocation="http://sumo.dlr.de/xsd/net_file.xsd">

    <location netOffset="200.00,0.00" convBoundary="0.00,0.00,300.00,100.00" origBoundary="-10000000000.00,-10000000000.00,10000000000.00,10000000000.00" projParameter="!"/>

    <edge id="beg" from="gneJ0" to="W" priority="1">
        <lane id="beg_0" index="0" speed="13.89" length="100.00" shape="0.00,-4.80 96.00,-4.80"/>
        <lane id="beg_1" index="1" speed="13.89" length="100.00" shape="0.00,-1.60 96.00,-1.60"/>
    </edge>
    <edge id="end" from="C" to="E" priority="1">
        <lane id="end_0" index="0" speed="13.89" length="100.00" shape="207.20,-8.00 300.00,-8.00"/>
        <lane id="end_1" index="1" speed="13.89" length="100.00" shape="207.20,-4.80 300.00,-4.80"/>
        <lane id="end_2" index="2" speed="13.89" length="100.00" shape="207.20,-1.60 300.00,-1.60"/>
    </edge>
    <edge id="gneE0" from="C" to="gneJ2" priority="-1">
        <lane id="gneE0_0" index="0" speed="13.89" length="100.00" shape="201.60,4.00 201.60,100.00"/>
    </edge>
    <edge id="middle" from="W" to="C" priority="1">
        <lane id="middle_0" index="0" speed="13.89" length="100.00" shape="104.00,-11.20 196.00,-11.20"/>
        <lane id="middle_1" index="1" speed="13.89" length="100.00" shape="104.00,-8.00 196.00,-8.00"/>
        <lane id="middle_2" index="2" speed="13.89" length="100.00" shape="104.00,-4.80 196.00,-4.80"/>
        <lane id="middle_3" index="3" speed="13.89" length="100.00" shape="104.00,-1.60 196.00,-1.60"/>
    </edge>

    <junction id="C" type="priority" x="200.00" y="0.00" incLanes="middle_0 middle_1 middle_2 middle_3" intLanes="" shape="200.00,4.00 203.20,4.00 203.64,1.78 204.20,1.00 204.98,0.44 205.98,0.11 207.20,0.00 207.20,-9.60 204.75,-9.84 203.00,-10.43 200.20,-11.97 198.45,-12.56 196.00,-12.80 196.00,0.00 198.22,0.44 199.00,1.00 199.56,1.78 199.89,2.78">
        <request index="0" response="0000" foes="0000"/>
        <request index="1" response="0000" foes="0000"/>
        <request index="2" response="0000" foes="0000"/>
        <request index="3" response="0000" foes="0000"/>
    </junction>
    <junction id="E" type="dead_end" x="300.00" y="0.00" incLanes="end_0 end_1 end_2" intLanes="" shape="300.00,-9.60 300.00,0.00"/>
    <junction id="W" type="unregulated" x="100.00" y="0.00" incLanes="beg_0 beg_1" intLanes="" shape="104.00,0.00 104.00,-12.80 101.98,-12.33 100.79,-11.14 99.21,-8.06 98.02,-6.87 96.00,-6.40 96.00,0.00"/>
    <junction id="gneJ0" type="dead_end" x="0.00" y="0.00" incLanes="" intLanes="" shape="0.00,0.00 0.00,-6.40"/>
    <junction id="gneJ2" type="dead_end" x="200.00" y="100.00" incLanes="gneE0_0" intLanes="" shape="203.20,100.00 200.00,100.00"/>

    <connection from="beg" to="middle" fromLane="0" toLane="0" dir="s" state="M"/>
    <connection from="beg" to="middle" fromLane="1" toLane="1" dir="s" state="M"/>
    <connection from="beg" to="middle" fromLane="1" toLane="2" dir="s" state="M"/>
    <connection from="beg" to="middle" fromLane="1" toLane="3" dir="s" state="M"/>
    <connection from="middle" to="end" fromLane="0" toLane="0" dir="s" state="M"/>
    <connection from="middle" to="end" fromLane="1" toLane="1" dir="s" state="M"/>
    <connection from="middle" to="end" fromLane="2" toLane="2" dir="s" state="M"/>
    <connection from="middle" to="gneE0" fromLane="3" toLane="0" dir="l" state="M"/>

</net>
