<?xml version="1.0" encoding="UTF-8"?>

<!-- generated on Tue Sep  3 15:47:52 2013 by SUMO marouter Version dev-SVN-r14553
<?xml version="1.0" encoding="UTF-8"?>

<configuration xmlns:xsi="http://www.w3.org/2001/XMLSchema-instance" xsi:noNamespaceSchemaLocation="http://sumo.dlr.de/xsd/marouterConfiguration.xsd">

    <input>
        <net-file value="input_net.net.xml"/>
        <taz-files value="input_taz.taz.xml"/>
        <od-matrix-files value="input_od_v.fma"/>
    </input>

    <output>
        <output-file value="routes.rou.xml"/>
    </output>

    <processing>
        <timeline value="0.9,0.5,0.2,0.2,0.5,1.3,7.0,9.3,6.7,4.2,4.0,3.8,4.1,4.6,5.0,6.7,9.6,9.2,7.1,4.8,3.5,2.7,2.2,1.9"/>
        <timeline.day-in-hours value="true"/>
    </processing>

</configuration>
-->

<routes xmlns:xsi="http://www.w3.org/2001/XMLSchema-instance" xsi:noNamespaceSchemaLocation="http://sumo.dlr.de/xsd/routes_file.xsd">
    <routeDistribution id="0_1_0.00_3600.00">
        <route cost="41.80" probability="0.04500000" edges="top0to0/2 0/2to1/2 1/2totop1"/>
    </routeDistribution>
    <routeDistribution id="0_1_3600.00_7200.00">
        <route cost="41.80" probability="0.02500000" edges="top0to0/2 0/2to1/2 1/2totop1"/>
    </routeDistribution>
    <routeDistribution id="0_1_7200.00_10800.00">
        <route cost="41.80" probability="0.01000000" edges="top0to0/2 0/2to1/2 1/2totop1"/>
    </routeDistribution>
    <routeDistribution id="0_1_10800.00_14400.00">
        <route cost="41.80" probability="0.01000000" edges="top0to0/2 0/2to1/2 1/2totop1"/>
    </routeDistribution>
    <routeDistribution id="0_1_14400.00_18000.00">
        <route cost="41.80" probability="0.02500000" edges="top0to0/2 0/2to1/2 1/2totop1"/>
    </routeDistribution>
    <routeDistribution id="0_1_18000.00_21600.00">
        <route cost="41.80" probability="0.06500000" edges="top0to0/2 0/2to1/2 1/2totop1"/>
    </routeDistribution>
    <routeDistribution id="0_1_21600.00_25200.00">
        <route cost="41.80" probability="0.35000000" edges="top0to0/2 0/2to1/2 1/2totop1"/>
    </routeDistribution>
    <routeDistribution id="0_1_25200.00_28800.00">
        <route cost="41.80" probability="0.46500000" edges="top0to0/2 0/2to1/2 1/2totop1"/>
    </routeDistribution>
    <routeDistribution id="0_1_28800.00_32400.00">
        <route cost="41.80" probability="0.33500000" edges="top0to0/2 0/2to1/2 1/2totop1"/>
    </routeDistribution>
    <routeDistribution id="0_1_32400.00_36000.00">
        <route cost="41.80" probability="0.21000000" edges="top0to0/2 0/2to1/2 1/2totop1"/>
    </routeDistribution>
    <routeDistribution id="0_1_36000.00_39600.00">
        <route cost="41.80" probability="0.20000000" edges="top0to0/2 0/2to1/2 1/2totop1"/>
    </routeDistribution>
    <routeDistribution id="0_1_39600.00_43200.00">
        <route cost="41.80" probability="0.19000000" edges="top0to0/2 0/2to1/2 1/2totop1"/>
    </routeDistribution>
    <routeDistribution id="0_1_43200.00_46800.00">
        <route cost="41.80" probability="0.20500000" edges="top0to0/2 0/2to1/2 1/2totop1"/>
    </routeDistribution>
    <routeDistribution id="0_1_46800.00_50400.00">
        <route cost="41.80" probability="0.23000000" edges="top0to0/2 0/2to1/2 1/2totop1"/>
    </routeDistribution>
    <routeDistribution id="0_1_50400.00_54000.00">
        <route cost="41.80" probability="0.25000000" edges="top0to0/2 0/2to1/2 1/2totop1"/>
    </routeDistribution>
    <routeDistribution id="0_1_54000.00_57600.00">
        <route cost="41.80" probability="0.33500000" edges="top0to0/2 0/2to1/2 1/2totop1"/>
    </routeDistribution>
    <routeDistribution id="0_1_57600.00_61200.00">
        <route cost="41.80" probability="0.48000000" edges="top0to0/2 0/2to1/2 1/2totop1"/>
    </routeDistribution>
    <routeDistribution id="0_1_61200.00_64800.00">
        <route cost="41.80" probability="0.46000000" edges="top0to0/2 0/2to1/2 1/2totop1"/>
    </routeDistribution>
    <routeDistribution id="0_1_64800.00_68400.00">
        <route cost="41.80" probability="0.35500000" edges="top0to0/2 0/2to1/2 1/2totop1"/>
    </routeDistribution>
    <routeDistribution id="0_1_68400.00_72000.00">
        <route cost="41.80" probability="0.24000000" edges="top0to0/2 0/2to1/2 1/2totop1"/>
    </routeDistribution>
    <routeDistribution id="0_1_72000.00_75600.00">
        <route cost="41.80" probability="0.17500000" edges="top0to0/2 0/2to1/2 1/2totop1"/>
    </routeDistribution>
    <routeDistribution id="0_1_75600.00_79200.00">
        <route cost="41.80" probability="0.13500000" edges="top0to0/2 0/2to1/2 1/2totop1"/>
    </routeDistribution>
    <routeDistribution id="0_1_79200.00_82800.00">
        <route cost="41.80" probability="0.11000000" edges="top0to0/2 0/2to1/2 1/2totop1"/>
    </routeDistribution>
    <routeDistribution id="0_1_82800.00_86400.00">
        <route cost="41.80" probability="0.09500000" edges="top0to0/2 0/2to1/2 1/2totop1"/>
    </routeDistribution>
    <routeDistribution id="0_2_0.00_3600.00">
        <route cost="69.89" probability="0.04500000" edges="top0to0/2 0/2to1/2 1/2to2/2 2/2totop2"/>
    </routeDistribution>
    <routeDistribution id="0_2_3600.00_7200.00">
        <route cost="69.89" probability="0.02500000" edges="top0to0/2 0/2to1/2 1/2to2/2 2/2totop2"/>
    </routeDistribution>
    <routeDistribution id="0_2_7200.00_10800.00">
        <route cost="69.89" probability="0.01000000" edges="top0to0/2 0/2to1/2 1/2to2/2 2/2totop2"/>
    </routeDistribution>
    <routeDistribution id="0_2_10800.00_14400.00">
        <route cost="69.89" probability="0.01000000" edges="top0to0/2 0/2to1/2 1/2to2/2 2/2totop2"/>
    </routeDistribution>
    <routeDistribution id="0_2_14400.00_18000.00">
        <route cost="69.89" probability="0.02500000" edges="top0to0/2 0/2to1/2 1/2to2/2 2/2totop2"/>
    </routeDistribution>
    <routeDistribution id="0_2_18000.00_21600.00">
        <route cost="69.89" probability="0.06500000" edges="top0to0/2 0/2to1/2 1/2to2/2 2/2totop2"/>
    </routeDistribution>
    <routeDistribution id="0_2_21600.00_25200.00">
        <route cost="69.89" probability="0.35000000" edges="top0to0/2 0/2to1/2 1/2to2/2 2/2totop2"/>
    </routeDistribution>
    <routeDistribution id="0_2_25200.00_28800.00">
        <route cost="69.89" probability="0.46500000" edges="top0to0/2 0/2to1/2 1/2to2/2 2/2totop2"/>
    </routeDistribution>
    <routeDistribution id="0_2_28800.00_32400.00">
        <route cost="69.89" probability="0.33500000" edges="top0to0/2 0/2to1/2 1/2to2/2 2/2totop2"/>
    </routeDistribution>
    <routeDistribution id="0_2_32400.00_36000.00">
        <route cost="69.89" probability="0.21000000" edges="top0to0/2 0/2to1/2 1/2to2/2 2/2totop2"/>
    </routeDistribution>
    <routeDistribution id="0_2_36000.00_39600.00">
        <route cost="69.89" probability="0.20000000" edges="top0to0/2 0/2to1/2 1/2to2/2 2/2totop2"/>
    </routeDistribution>
    <routeDistribution id="0_2_39600.00_43200.00">
        <route cost="69.89" probability="0.19000000" edges="top0to0/2 0/2to1/2 1/2to2/2 2/2totop2"/>
    </routeDistribution>
    <routeDistribution id="0_2_43200.00_46800.00">
        <route cost="69.89" probability="0.20500000" edges="top0to0/2 0/2to1/2 1/2to2/2 2/2totop2"/>
    </routeDistribution>
    <routeDistribution id="0_2_46800.00_50400.00">
        <route cost="69.89" probability="0.23000000" edges="top0to0/2 0/2to1/2 1/2to2/2 2/2totop2"/>
    </routeDistribution>
    <routeDistribution id="0_2_50400.00_54000.00">
        <route cost="69.89" probability="0.25000000" edges="top0to0/2 0/2to1/2 1/2to2/2 2/2totop2"/>
    </routeDistribution>
    <routeDistribution id="0_2_54000.00_57600.00">
        <route cost="69.89" probability="0.33500000" edges="top0to0/2 0/2to1/2 1/2to2/2 2/2totop2"/>
    </routeDistribution>
    <routeDistribution id="0_2_57600.00_61200.00">
        <route cost="69.89" probability="0.48000000" edges="top0to0/2 0/2to1/2 1/2to2/2 2/2totop2"/>
    </routeDistribution>
    <routeDistribution id="0_2_61200.00_64800.00">
        <route cost="69.89" probability="0.46000000" edges="top0to0/2 0/2to1/2 1/2to2/2 2/2totop2"/>
    </routeDistribution>
    <routeDistribution id="0_2_64800.00_68400.00">
        <route cost="69.89" probability="0.35500000" edges="top0to0/2 0/2to1/2 1/2to2/2 2/2totop2"/>
    </routeDistribution>
    <routeDistribution id="0_2_68400.00_72000.00">
        <route cost="69.89" probability="0.24000000" edges="top0to0/2 0/2to1/2 1/2to2/2 2/2totop2"/>
    </routeDistribution>
    <routeDistribution id="0_2_72000.00_75600.00">
        <route cost="69.89" probability="0.17500000" edges="top0to0/2 0/2to1/2 1/2to2/2 2/2totop2"/>
    </routeDistribution>
    <routeDistribution id="0_2_75600.00_79200.00">
        <route cost="69.89" probability="0.13500000" edges="top0to0/2 0/2to1/2 1/2to2/2 2/2totop2"/>
    </routeDistribution>
    <routeDistribution id="0_2_79200.00_82800.00">
        <route cost="69.89" probability="0.11000000" edges="top0to0/2 0/2to1/2 1/2to2/2 2/2totop2"/>
    </routeDistribution>
    <routeDistribution id="0_2_82800.00_86400.00">
        <route cost="69.89" probability="0.09500000" edges="top0to0/2 0/2to1/2 1/2to2/2 2/2totop2"/>
    </routeDistribution>
    <routeDistribution id="0_3_0.00_3600.00">
        <route cost="126.08" probability="0.03150000" edges="top0to0/2 0/2to0/1 0/1to0/0 0/0to1/0 1/0to2/0 2/0toright0"/>
        <route cost="126.08" probability="0.03150000" edges="top0to0/2 0/2to1/2 1/2to2/2 2/2to2/1 2/1to2/0 2/0toright0"/>
        <route cost="126.08" probability="0.02700000" edges="top0to0/2 0/2to0/1 0/1to1/1 1/1to1/0 1/0to2/0 2/0toright0"/>
    </routeDistribution>
    <routeDistribution id="0_3_3600.00_7200.00">
        <route cost="126.08" probability="0.00250000" edges="top0to0/2 0/2to0/1 0/1to1/1 1/1to2/1 2/1to2/0 2/0toright0"/>
        <route cost="126.08" probability="0.01750000" edges="top0to0/2 0/2to1/2 1/2to2/2 2/2to2/1 2/1to2/0 2/0toright0"/>
        <route cost="126.08" probability="0.01500000" edges="top0to0/2 0/2to0/1 0/1to1/1 1/1to1/0 1/0to2/0 2/0toright0"/>
        <route cost="126.08" probability="0.01500000" edges="top0to0/2 0/2to0/1 0/1to0/0 0/0to1/0 1/0to2/0 2/0toright0"/>
    </routeDistribution>
    <routeDistribution id="0_3_7200.00_10800.00">
        <route cost="126.08" probability="0.00100000" edges="top0to0/2 0/2to1/2 1/2to1/1 1/1to1/0 1/0to2/0 2/0toright0"/>
        <route cost="126.08" probability="0.00700000" edges="top0to0/2 0/2to1/2 1/2to2/2 2/2to2/1 2/1to2/0 2/0toright0"/>
        <route cost="126.08" probability="0.00600000" edges="top0to0/2 0/2to0/1 0/1to1/1 1/1to1/0 1/0to2/0 2/0toright0"/>
        <route cost="126.08" probability="0.00600000" edges="top0to0/2 0/2to0/1 0/1to0/0 0/0to1/0 1/0to2/0 2/0toright0"/>
    </routeDistribution>
    <routeDistribution id="0_3_10800.00_14400.00">
        <route cost="126.08" probability="0.00100000" edges="top0to0/2 0/2to1/2 1/2to1/1 1/1to1/0 1/0to2/0 2/0toright0"/>
        <route cost="126.08" probability="0.00700000" edges="top0to0/2 0/2to1/2 1/2to2/2 2/2to2/1 2/1to2/0 2/0toright0"/>
        <route cost="126.08" probability="0.00600000" edges="top0to0/2 0/2to0/1 0/1to1/1 1/1to1/0 1/0to2/0 2/0toright0"/>
        <route cost="126.08" probability="0.00600000" edges="top0to0/2 0/2to0/1 0/1to0/0 0/0to1/0 1/0to2/0 2/0toright0"/>
    </routeDistribution>
    <routeDistribution id="0_3_14400.00_18000.00">
        <route cost="126.08" probability="0.00250000" edges="top0to0/2 0/2to1/2 1/2to1/1 1/1to1/0 1/0to2/0 2/0toright0"/>
        <route cost="126.08" probability="0.01750000" edges="top0to0/2 0/2to1/2 1/2to2/2 2/2to2/1 2/1to2/0 2/0toright0"/>
        <route cost="126.08" probability="0.01500000" edges="top0to0/2 0/2to0/1 0/1to1/1 1/1to1/0 1/0to2/0 2/0toright0"/>
        <route cost="126.08" probability="0.01500000" edges="top0to0/2 0/2to0/1 0/1to0/0 0/0to1/0 1/0to2/0 2/0toright0"/>
    </routeDistribution>
    <routeDistribution id="0_3_18000.00_21600.00">
        <route cost="126.08" probability="0.05200000" edges="top0to0/2 0/2to1/2 1/2to2/2 2/2to2/1 2/1to2/0 2/0toright0"/>
        <route cost="126.08" probability="0.03900000" edges="top0to0/2 0/2to0/1 0/1to1/1 1/1to1/0 1/0to2/0 2/0toright0"/>
        <route cost="126.08" probability="0.03900000" edges="top0to0/2 0/2to0/1 0/1to0/0 0/0to1/0 1/0to2/0 2/0toright0"/>
    </routeDistribution>
    <routeDistribution id="0_3_21600.00_25200.00">
        <route cost="126.08" probability="0.24500000" edges="top0to0/2 0/2to0/1 0/1to1/1 1/1to1/0 1/0to2/0 2/0toright0"/>
        <route cost="126.08" probability="0.24500000" edges="top0to0/2 0/2to1/2 1/2to2/2 2/2to2/1 2/1to2/0 2/0toright0"/>
        <route cost="126.08" probability="0.21000000" edges="top0to0/2 0/2to0/1 0/1to0/0 0/0to1/0 1/0to2/0 2/0toright0"/>
    </routeDistribution>
    <routeDistribution id="0_3_25200.00_28800.00">
        <route cost="126.08" probability="0.04650000" edges="top0to0/2 0/2to1/2 1/2to1/1 1/1to2/1 2/1to2/0 2/0toright0"/>
        <route cost="126.08" probability="0.32550000" edges="top0to0/2 0/2to0/1 0/1to0/0 0/0to1/0 1/0to2/0 2/0toright0"/>
        <route cost="126.08" probability="0.27900000" edges="top0to0/2 0/2to0/1 0/1to1/1 1/1to1/0 1/0to2/0 2/0toright0"/>
        <route cost="126.08" probability="0.27900000" edges="top0to0/2 0/2to1/2 1/2to2/2 2/2to2/1 2/1to2/0 2/0toright0"/>
    </routeDistribution>
    <routeDistribution id="0_3_28800.00_32400.00">
        <route cost="126.08" probability="0.23450000" edges="top0to0/2 0/2to0/1 0/1to0/0 0/0to1/0 1/0to2/0 2/0toright0"/>
        <route cost="126.08" probability="0.23450000" edges="top0to0/2 0/2to1/2 1/2to2/2 2/2to2/1 2/1to2/0 2/0toright0"/>
        <route cost="126.08" probability="0.20100000" edges="top0to0/2 0/2to0/1 0/1to1/1 1/1to1/0 1/0to2/0 2/0toright0"/>
    </routeDistribution>
    <routeDistribution id="0_3_32400.00_36000.00">
        <route cost="126.08" probability="0.16800000" edges="top0to0/2 0/2to1/2 1/2to2/2 2/2to2/1 2/1to2/0 2/0toright0"/>
        <route cost="126.08" probability="0.12600000" edges="top0to0/2 0/2to0/1 0/1to1/1 1/1to1/0 1/0to2/0 2/0toright0"/>
        <route cost="126.08" probability="0.12600000" edges="top0to0/2 0/2to0/1 0/1to0/0 0/0to1/0 1/0to2/0 2/0toright0"/>
    </routeDistribution>
    <routeDistribution id="0_3_36000.00_39600.00">
        <route cost="126.08" probability="0.16000000" edges="top0to0/2 0/2to1/2 1/2to2/2 2/2to2/1 2/1to2/0 2/0toright0"/>
        <route cost="126.08" probability="0.12000000" edges="top0to0/2 0/2to0/1 0/1to1/1 1/1to1/0 1/0to2/0 2/0toright0"/>
        <route cost="126.08" probability="0.12000000" edges="top0to0/2 0/2to0/1 0/1to0/0 0/0to1/0 1/0to2/0 2/0toright0"/>
    </routeDistribution>
    <routeDistribution id="0_3_39600.00_43200.00">
        <route cost="126.08" probability="0.15200000" edges="top0to0/2 0/2to1/2 1/2to2/2 2/2to2/1 2/1to2/0 2/0toright0"/>
        <route cost="126.08" probability="0.11400000" edges="top0to0/2 0/2to0/1 0/1to1/1 1/1to1/0 1/0to2/0 2/0toright0"/>
        <route cost="126.08" probability="0.11400000" edges="top0to0/2 0/2to0/1 0/1to0/0 0/0to1/0 1/0to2/0 2/0toright0"/>
    </routeDistribution>
    <routeDistribution id="0_3_43200.00_46800.00">
        <route cost="126.08" probability="0.16400000" edges="top0to0/2 0/2to1/2 1/2to2/2 2/2to2/1 2/1to2/0 2/0toright0"/>
        <route cost="126.08" probability="0.12300000" edges="top0to0/2 0/2to0/1 0/1to1/1 1/1to1/0 1/0to2/0 2/0toright0"/>
        <route cost="126.08" probability="0.12300000" edges="top0to0/2 0/2to0/1 0/1to0/0 0/0to1/0 1/0to2/0 2/0toright0"/>
    </routeDistribution>
    <routeDistribution id="0_3_46800.00_50400.00">
        <route cost="126.08" probability="0.18400000" edges="top0to0/2 0/2to1/2 1/2to2/2 2/2to2/1 2/1to2/0 2/0toright0"/>
        <route cost="126.08" probability="0.13800000" edges="top0to0/2 0/2to0/1 0/1to1/1 1/1to1/0 1/0to2/0 2/0toright0"/>
        <route cost="126.08" probability="0.13800000" edges="top0to0/2 0/2to0/1 0/1to0/0 0/0to1/0 1/0to2/0 2/0toright0"/>
    </routeDistribution>
    <routeDistribution id="0_3_50400.00_54000.00">
        <route cost="126.08" probability="0.20000000" edges="top0to0/2 0/2to1/2 1/2to2/2 2/2to2/1 2/1to2/0 2/0toright0"/>
        <route cost="126.08" probability="0.15000000" edges="top0to0/2 0/2to0/1 0/1to1/1 1/1to1/0 1/0to2/0 2/0toright0"/>
        <route cost="126.08" probability="0.15000000" edges="top0to0/2 0/2to0/1 0/1to0/0 0/0to1/0 1/0to2/0 2/0toright0"/>
    </routeDistribution>
    <routeDistribution id="0_3_54000.00_57600.00">
        <route cost="126.08" probability="0.26800000" edges="top0to0/2 0/2to1/2 1/2to2/2 2/2to2/1 2/1to2/0 2/0toright0"/>
        <route cost="126.08" probability="0.20100000" edges="top0to0/2 0/2to0/1 0/1to1/1 1/1to1/0 1/0to2/0 2/0toright0"/>
        <route cost="126.08" probability="0.20100000" edges="top0to0/2 0/2to0/1 0/1to0/0 0/0to1/0 1/0to2/0 2/0toright0"/>
    </routeDistribution>
    <routeDistribution id="0_3_57600.00_61200.00">
        <route cost="126.08" probability="0.33600000" edges="top0to0/2 0/2to0/1 0/1to0/0 0/0to1/0 1/0to2/0 2/0toright0"/>
        <route cost="126.08" probability="0.33600000" edges="top0to0/2 0/2to1/2 1/2to2/2 2/2to2/1 2/1to2/0 2/0toright0"/>
        <route cost="126.08" probability="0.28800000" edges="top0to0/2 0/2to0/1 0/1to1/1 1/1to1/0 1/0to2/0 2/0toright0"/>
    </routeDistribution>
    <routeDistribution id="0_3_61200.00_64800.00">
        <route cost="126.08" probability="0.32200000" edges="top0to0/2 0/2to1/2 1/2to2/2 2/2to2/1 2/1to2/0 2/0toright0"/>
        <route cost="126.08" probability="0.32200000" edges="top0to0/2 0/2to0/1 0/1to0/0 0/0to1/0 1/0to2/0 2/0toright0"/>
        <route cost="126.08" probability="0.27600000" edges="top0to0/2 0/2to0/1 0/1to1/1 1/1to1/0 1/0to2/0 2/0toright0"/>
    </routeDistribution>
    <routeDistribution id="0_3_64800.00_68400.00">
        <route cost="126.08" probability="0.24850000" edges="top0to0/2 0/2to0/1 0/1to1/1 1/1to1/0 1/0to2/0 2/0toright0"/>
        <route cost="126.08" probability="0.24850000" edges="top0to0/2 0/2to0/1 0/1to0/0 0/0to1/0 1/0to2/0 2/0toright0"/>
        <route cost="126.08" probability="0.21300000" edges="top0to0/2 0/2to1/2 1/2to2/2 2/2to2/1 2/1to2/0 2/0toright0"/>
    </routeDistribution>
    <routeDistribution id="0_3_68400.00_72000.00">
        <route cost="126.08" probability="0.16800000" edges="top0to0/2 0/2to0/1 0/1to1/1 1/1to1/0 1/0to2/0 2/0toright0"/>
        <route cost="126.08" probability="0.16800000" edges="top0to0/2 0/2to0/1 0/1to0/0 0/0to1/0 1/0to2/0 2/0toright0"/>
        <route cost="126.08" probability="0.14400000" edges="top0to0/2 0/2to1/2 1/2to2/2 2/2to2/1 2/1to2/0 2/0toright0"/>
    </routeDistribution>
    <routeDistribution id="0_3_72000.00_75600.00">
        <route cost="126.08" probability="0.12250000" edges="top0to0/2 0/2to0/1 0/1to1/1 1/1to1/0 1/0to2/0 2/0toright0"/>
        <route cost="126.08" probability="0.12250000" edges="top0to0/2 0/2to0/1 0/1to0/0 0/0to1/0 1/0to2/0 2/0toright0"/>
        <route cost="126.08" probability="0.10500000" edges="top0to0/2 0/2to1/2 1/2to2/2 2/2to2/1 2/1to2/0 2/0toright0"/>
    </routeDistribution>
    <routeDistribution id="0_3_75600.00_79200.00">
        <route cost="126.08" probability="0.09450000" edges="top0to0/2 0/2to0/1 0/1to1/1 1/1to1/0 1/0to2/0 2/0toright0"/>
        <route cost="126.08" probability="0.09450000" edges="top0to0/2 0/2to0/1 0/1to0/0 0/0to1/0 1/0to2/0 2/0toright0"/>
        <route cost="126.08" probability="0.08100000" edges="top0to0/2 0/2to1/2 1/2to2/2 2/2to2/1 2/1to2/0 2/0toright0"/>
    </routeDistribution>
    <routeDistribution id="0_3_79200.00_82800.00">
        <route cost="126.08" probability="0.07700000" edges="top0to0/2 0/2to0/1 0/1to1/1 1/1to1/0 1/0to2/0 2/0toright0"/>
        <route cost="126.08" probability="0.07700000" edges="top0to0/2 0/2to0/1 0/1to0/0 0/0to1/0 1/0to2/0 2/0toright0"/>
        <route cost="126.08" probability="0.06600000" edges="top0to0/2 0/2to1/2 1/2to2/2 2/2to2/1 2/1to2/0 2/0toright0"/>
    </routeDistribution>
    <routeDistribution id="0_3_82800.00_86400.00">
        <route cost="126.08" probability="0.06650000" edges="top0to0/2 0/2to0/1 0/1to1/1 1/1to1/0 1/0to2/0 2/0toright0"/>
        <route cost="126.08" probability="0.06650000" edges="top0to0/2 0/2to0/1 0/1to0/0 0/0to1/0 1/0to2/0 2/0toright0"/>
        <route cost="126.08" probability="0.05700000" edges="top0to0/2 0/2to1/2 1/2to2/2 2/2to2/1 2/1to2/0 2/0toright0"/>
    </routeDistribution>
    <routeDistribution id="0_4_0.00_3600.00">
        <route cost="97.99" probability="0.06300000" edges="top0to0/2 0/2to0/1 0/1to1/1 1/1to2/1 2/1toright1"/>
        <route cost="97.99" probability="0.02700000" edges="top0to0/2 0/2to1/2 1/2to2/2 2/2to2/1 2/1toright1"/>
    </routeDistribution>
    <routeDistribution id="0_4_3600.00_7200.00">
        <route cost="97.99" probability="0.03500000" edges="top0to0/2 0/2to0/1 0/1to1/1 1/1to2/1 2/1toright1"/>
        <route cost="97.99" probability="0.01500000" edges="top0to0/2 0/2to1/2 1/2to2/2 2/2to2/1 2/1toright1"/>
    </routeDistribution>
    <routeDistribution id="0_4_7200.00_10800.00">
        <route cost="97.99" probability="0.01400000" edges="top0to0/2 0/2to0/1 0/1to1/1 1/1to2/1 2/1toright1"/>
        <route cost="97.99" probability="0.00600000" edges="top0to0/2 0/2to1/2 1/2to2/2 2/2to2/1 2/1toright1"/>
    </routeDistribution>
    <routeDistribution id="0_4_10800.00_14400.00">
        <route cost="97.99" probability="0.01400000" edges="top0to0/2 0/2to0/1 0/1to1/1 1/1to2/1 2/1toright1"/>
        <route cost="97.99" probability="0.00600000" edges="top0to0/2 0/2to1/2 1/2to2/2 2/2to2/1 2/1toright1"/>
    </routeDistribution>
    <routeDistribution id="0_4_14400.00_18000.00">
        <route cost="97.99" probability="0.03500000" edges="top0to0/2 0/2to0/1 0/1to1/1 1/1to2/1 2/1toright1"/>
        <route cost="97.99" probability="0.01500000" edges="top0to0/2 0/2to1/2 1/2to2/2 2/2to2/1 2/1toright1"/>
    </routeDistribution>
    <routeDistribution id="0_4_18000.00_21600.00">
        <route cost="97.99" probability="0.09100000" edges="top0to0/2 0/2to0/1 0/1to1/1 1/1to2/1 2/1toright1"/>
        <route cost="97.99" probability="0.03900000" edges="top0to0/2 0/2to1/2 1/2to2/2 2/2to2/1 2/1toright1"/>
    </routeDistribution>
    <routeDistribution id="0_4_21600.00_25200.00">
        <route cost="97.99" probability="0.49000000" edges="top0to0/2 0/2to0/1 0/1to1/1 1/1to2/1 2/1toright1"/>
        <route cost="97.99" probability="0.21000000" edges="top0to0/2 0/2to1/2 1/2to2/2 2/2to2/1 2/1toright1"/>
    </routeDistribution>
    <routeDistribution id="0_4_25200.00_28800.00">
        <route cost="97.99" probability="0.37200000" edges="top0to0/2 0/2to0/1 0/1to1/1 1/1to2/1 2/1toright1"/>
        <route cost="97.99" probability="0.55800000" edges="top0to0/2 0/2to1/2 1/2to2/2 2/2to2/1 2/1toright1"/>
    </routeDistribution>
    <routeDistribution id="0_4_28800.00_32400.00">
        <route cost="97.99" probability="0.23450000" edges="top0to0/2 0/2to1/2 1/2to2/2 2/2to2/1 2/1toright1"/>
        <route cost="97.99" probability="0.43550000" edges="top0to0/2 0/2to0/1 0/1to1/1 1/1to2/1 2/1toright1"/>
    </routeDistribution>
    <routeDistribution id="0_4_32400.00_36000.00">
        <route cost="97.99" probability="0.14700000" edges="top0to0/2 0/2to1/2 1/2to2/2 2/2to2/1 2/1toright1"/>
        <route cost="97.99" probability="0.27300000" edges="top0to0/2 0/2to0/1 0/1to1/1 1/1to2/1 2/1toright1"/>
    </routeDistribution>
    <routeDistribution id="0_4_36000.00_39600.00">
        <route cost="97.99" probability="0.14000000" edges="top0to0/2 0/2to1/2 1/2to2/2 2/2to2/1 2/1toright1"/>
        <route cost="97.99" probability="0.26000000" edges="top0to0/2 0/2to0/1 0/1to1/1 1/1to2/1 2/1toright1"/>
    </routeDistribution>
    <routeDistribution id="0_4_39600.00_43200.00">
        <route cost="97.99" probability="0.13300000" edges="top0to0/2 0/2to1/2 1/2to2/2 2/2to2/1 2/1toright1"/>
        <route cost="97.99" probability="0.24700000" edges="top0to0/2 0/2to0/1 0/1to1/1 1/1to2/1 2/1toright1"/>
    </routeDistribution>
    <routeDistribution id="0_4_43200.00_46800.00">
        <route cost="97.99" probability="0.14350000" edges="top0to0/2 0/2to1/2 1/2to2/2 2/2to2/1 2/1toright1"/>
        <route cost="97.99" probability="0.26650000" edges="top0to0/2 0/2to0/1 0/1to1/1 1/1to2/1 2/1toright1"/>
    </routeDistribution>
    <routeDistribution id="0_4_46800.00_50400.00">
        <route cost="97.99" probability="0.16100000" edges="top0to0/2 0/2to1/2 1/2to2/2 2/2to2/1 2/1toright1"/>
        <route cost="97.99" probability="0.29900000" edges="top0to0/2 0/2to0/1 0/1to1/1 1/1to2/1 2/1toright1"/>
    </routeDistribution>
    <routeDistribution id="0_4_50400.00_54000.00">
        <route cost="97.99" probability="0.17500000" edges="top0to0/2 0/2to1/2 1/2to2/2 2/2to2/1 2/1toright1"/>
        <route cost="97.99" probability="0.32500000" edges="top0to0/2 0/2to0/1 0/1to1/1 1/1to2/1 2/1toright1"/>
    </routeDistribution>
    <routeDistribution id="0_4_54000.00_57600.00">
        <route cost="97.99" probability="0.23450000" edges="top0to0/2 0/2to1/2 1/2to2/2 2/2to2/1 2/1toright1"/>
        <route cost="97.99" probability="0.43550000" edges="top0to0/2 0/2to0/1 0/1to1/1 1/1to2/1 2/1toright1"/>
    </routeDistribution>
    <routeDistribution id="0_4_57600.00_61200.00">
        <route cost="97.99" probability="0.33600000" edges="top0to0/2 0/2to1/2 1/2to2/2 2/2to2/1 2/1toright1"/>
        <route cost="97.99" probability="0.62400000" edges="top0to0/2 0/2to0/1 0/1to1/1 1/1to2/1 2/1toright1"/>
    </routeDistribution>
    <routeDistribution id="0_4_61200.00_64800.00">
        <route cost="97.99" probability="0.36800000" edges="top0to0/2 0/2to0/1 0/1to1/1 1/1to2/1 2/1toright1"/>
        <route cost="97.99" probability="0.55200000" edges="top0to0/2 0/2to1/2 1/2to2/2 2/2to2/1 2/1toright1"/>
    </routeDistribution>
    <routeDistribution id="0_4_64800.00_68400.00">
        <route cost="97.99" probability="0.28400000" edges="top0to0/2 0/2to0/1 0/1to1/1 1/1to2/1 2/1toright1"/>
        <route cost="97.99" probability="0.42600000" edges="top0to0/2 0/2to1/2 1/2to2/2 2/2to2/1 2/1toright1"/>
    </routeDistribution>
    <routeDistribution id="0_4_68400.00_72000.00">
        <route cost="97.99" probability="0.19200000" edges="top0to0/2 0/2to0/1 0/1to1/1 1/1to2/1 2/1toright1"/>
        <route cost="97.99" probability="0.28800000" edges="top0to0/2 0/2to1/2 1/2to2/2 2/2to2/1 2/1toright1"/>
    </routeDistribution>
    <routeDistribution id="0_4_72000.00_75600.00">
        <route cost="97.99" probability="0.14000000" edges="top0to0/2 0/2to0/1 0/1to1/1 1/1to2/1 2/1toright1"/>
        <route cost="97.99" probability="0.21000000" edges="top0to0/2 0/2to1/2 1/2to2/2 2/2to2/1 2/1toright1"/>
    </routeDistribution>
    <routeDistribution id="0_4_75600.00_79200.00">
        <route cost="97.99" probability="0.10800000" edges="top0to0/2 0/2to0/1 0/1to1/1 1/1to2/1 2/1toright1"/>
        <route cost="97.99" probability="0.16200000" edges="top0to0/2 0/2to1/2 1/2to2/2 2/2to2/1 2/1toright1"/>
    </routeDistribution>
    <routeDistribution id="0_4_79200.00_82800.00">
        <route cost="97.99" probability="0.08800000" edges="top0to0/2 0/2to0/1 0/1to1/1 1/1to2/1 2/1toright1"/>
        <route cost="97.99" probability="0.13200000" edges="top0to0/2 0/2to1/2 1/2to2/2 2/2to2/1 2/1toright1"/>
    </routeDistribution>
    <routeDistribution id="0_4_82800.00_86400.00">
        <route cost="97.99" probability="0.07600000" edges="top0to0/2 0/2to0/1 0/1to1/1 1/1to2/1 2/1toright1"/>
        <route cost="97.99" probability="0.11400000" edges="top0to0/2 0/2to1/2 1/2to2/2 2/2to2/1 2/1toright1"/>
    </routeDistribution>
    <routeDistribution id="0_5_0.00_3600.00">
        <route cost="69.89" probability="0.09000000" edges="top0to0/2 0/2to1/2 1/2to2/2 2/2toright2"/>
    </routeDistribution>
    <routeDistribution id="0_5_3600.00_7200.00">
        <route cost="69.89" probability="0.05000000" edges="top0to0/2 0/2to1/2 1/2to2/2 2/2toright2"/>
    </routeDistribution>
    <routeDistribution id="0_5_7200.00_10800.00">
        <route cost="69.89" probability="0.02000000" edges="top0to0/2 0/2to1/2 1/2to2/2 2/2toright2"/>
    </routeDistribution>
    <routeDistribution id="0_5_10800.00_14400.00">
        <route cost="69.89" probability="0.02000000" edges="top0to0/2 0/2to1/2 1/2to2/2 2/2toright2"/>
    </routeDistribution>
    <routeDistribution id="0_5_14400.00_18000.00">
        <route cost="69.89" probability="0.05000000" edges="top0to0/2 0/2to1/2 1/2to2/2 2/2toright2"/>
    </routeDistribution>
    <routeDistribution id="0_5_18000.00_21600.00">
        <route cost="69.89" probability="0.13000000" edges="top0to0/2 0/2to1/2 1/2to2/2 2/2toright2"/>
    </routeDistribution>
    <routeDistribution id="0_5_21600.00_25200.00">
        <route cost="69.89" probability="0.70000000" edges="top0to0/2 0/2to1/2 1/2to2/2 2/2toright2"/>
    </routeDistribution>
    <routeDistribution id="0_5_25200.00_28800.00">
        <route cost="69.89" probability="0.93000000" edges="top0to0/2 0/2to1/2 1/2to2/2 2/2toright2"/>
    </routeDistribution>
    <routeDistribution id="0_5_28800.00_32400.00">
        <route cost="69.89" probability="0.67000000" edges="top0to0/2 0/2to1/2 1/2to2/2 2/2toright2"/>
    </routeDistribution>
    <routeDistribution id="0_5_32400.00_36000.00">
        <route cost="69.89" probability="0.42000000" edges="top0to0/2 0/2to1/2 1/2to2/2 2/2toright2"/>
    </routeDistribution>
    <routeDistribution id="0_5_36000.00_39600.00">
        <route cost="69.89" probability="0.40000000" edges="top0to0/2 0/2to1/2 1/2to2/2 2/2toright2"/>
    </routeDistribution>
    <routeDistribution id="0_5_39600.00_43200.00">
        <route cost="69.89" probability="0.38000000" edges="top0to0/2 0/2to1/2 1/2to2/2 2/2toright2"/>
    </routeDistribution>
    <routeDistribution id="0_5_43200.00_46800.00">
        <route cost="69.89" probability="0.41000000" edges="top0to0/2 0/2to1/2 1/2to2/2 2/2toright2"/>
    </routeDistribution>
    <routeDistribution id="0_5_46800.00_50400.00">