<?xml version="1.0"?>

<!-- generated on 08/05/09 23:55:38 by SUMO netconvert Version dev-SVN-r7607
<configuration>

    <input
        osm-files="osm.xml"
    />

    <projection
        proj.utm="true"
    />

    <processing
        no-internal-links="true"
    />

    <report
        verbose="true"
    />

</configuration>
-->

<net>

   <location netOffset="-399345.63,-5809366.00" convBoundary="0.00,0.00,1737.72,1000.50" origBoundary="13.519602,52.425529,13.545248,52.434467" projParameter="+proj=utm +zone=33 +ellps=WGS84 +datum=WGS84 +units=m +no_defs"/>


   <edge id="-22917251" from="32266936" to="32266938" priority="6" type="highway.tertiary" function="normal">
      <lanes>
         <lane id="-22917251_0" depart="1" maxspeed="22.22" length="53.11" shape="474.46,48.86 479.00,101.77"/>
      </lanes>
   </edge>

   <edge id="-24214693" from="57343510" to="32266935" priority="9" type="highway.primary" function="normal">
      <lanes>
         <lane id="-24214693_0" depart="1" maxspeed="27.78" length="462.92" shape="14.14,174.61 33.26,171.61 201.48,149.59 473.47,116.68"/>
         <lane id="-24214693_1" depart="0" maxspeed="27.78" length="462.92" shape="14.65,177.87 33.78,174.87 201.91,152.86 473.87,119.96"/>
      </lanes>
   </edge>

   <edge id="-24214694" from="32266938" to="32266935" priority="6" type="highway.tertiary" function="normal">
      <lanes>
         <lane id="-24214694_0" depart="1" maxspeed="22.22" length="1.58" shape="479.82,111.24 479.95,112.82"/>
      </lanes>
   </edge>

   <edge id="-25944590#0" from="283018841" to="283018817" priority="1" type="highway.footway" function="normal">
      <lanes>
         <lane id="-25944590#0_0" depart="1" allow="pedestrian" maxspeed="8.33" length="82.44" shape="527.71,533.14 530.19,533.93 551.64,537.88 609.19,545.27"/>
      </lanes>
   </edge>

   <edge id="-25944590#1" from="283018842" to="283018841" priority="1" type="highway.footway" function="normal">
      <lanes>
         <lane id="-25944590#1_0" depart="1" allow="pedestrian" maxspeed="8.33" length="21.32" shape="494.08,523.46 514.61,529.20"/>
      </lanes>
   </edge>

   <edge id="-25944590#2" from="283018844" to="283018842" priority="1" type="highway.footway" function="normal">
      <lanes>
         <lane id="-25944590#2_0" depart="1" allow="pedestrian" maxspeed="8.33" length="88.67" shape="408.15,487.15 421.06,494.04 489.11,523.21"/>
      </lanes>
   </edge>

   <edge id="-25944590#3" from="283018845" to="283018844" priority="1" type="highway.footway" function="normal">
      <lanes>
         <lane id="-25944590#3_0" depart="1" allow="pedestrian" maxspeed="8.33" length="44.75" shape="361.20,457.85 398.99,481.82"/>
      </lanes>
   </edge>

   <edge id="-25944601#0" from="283018844" to="38919854" priority="1" type="highway.footway" function="normal">
      <lanes>
         <lane id="-25944601#0_0" depart="1" allow="pedestrian" maxspeed="8.33" length="12.61" shape="400.44,491.05 392.36,500.74"/>
      </lanes>
   </edge>

   <edge id="-25944601#1" from="283018932" to="283018844" priority="1" type="highway.footway" function="normal">
      <lanes>
         <lane id="-25944601#1_0" depart="1" allow="pedestrian" maxspeed="8.33" length="5.44" shape="410.83,478.70 407.32,482.85"/>
      </lanes>
   </edge>

   <edge id="-25944603#0" from="283018841" to="283018933" priority="1" type="highway.footway" function="normal">
      <lanes>
         <lane id="-25944603#0_0" depart="1" allow="pedestrian" maxspeed="8.33" length="17.38" shape="524.68,526.48 530.37,521.52 534.03,512.39"/>
      </lanes>
   </edge>

   <edge id="-25944603#1" from="283018937" to="283018841" priority="1" type="highway.footway" function="normal">
      <lanes>
         <lane id="-25944603#1_0" depart="1" allow="pedestrian" maxspeed="8.33" length="10.38" shape="508.69,544.67 515.07,536.49"/>
      </lanes>
   </edge>

   <edge id="-25944603#2" from="38919841" to="283018937" priority="1" type="highway.footway" function="normal">
      <lanes>
         <lane id="-25944603#2_0" depart="1" allow="pedestrian" maxspeed="8.33" length="3.31" shape="502.62,555.70 503.83,552.62"/>
      </lanes>
   </edge>

   <edge id="-25944605" from="283018842" to="283018937" priority="1" type="highway.footway" function="normal">
      <lanes>
         <lane id="-25944605_0" depart="1" allow="pedestrian" maxspeed="8.33" length="19.80" shape="491.18,529.96 495.79,534.87 504.31,544.78"/>
      </lanes>
   </edge>

   <edge id="-25951490" from="32266938" to="175648134" priority="1" type="highway.cycleway" function="normal">
      <lanes>
         <lane id="-25951490_0" depart="1" allow="bicycle" maxspeed="5.56" length="461.23" shape="473.11,108.78 15.91,169.64"/>
      </lanes>
   </edge>

   <edge id="-26004787#0" from="283721344" to="283719736" priority="1" type="highway.footway" function="normal">
      <lanes>
         <lane id="-26004787#0_0" depart="1" allow="pedestrian" maxspeed="8.33" length="17.25" shape="1023.63,527.87 1040.03,522.51"/>
      </lanes>
   </edge>

   <edge id="-26004787#1" from="283722837" to="283721344" priority="1" type="highway.footway" function="normal">
      <lanes>
         <lane id="-26004787#1_0" depart="1" allow="pedestrian" maxspeed="8.33" length="26.67" shape="987.98,537.94 1013.70,530.85"/>
      </lanes>
   </edge>

   <edge id="-26004787#2" from="283719904" to="283722837" priority="1" type="highway.footway" function="normal">
      <lanes>
         <lane id="-26004787#2_0" depart="1" allow="pedestrian" maxspeed="8.33" length="40.43" shape="933.30,553.69 972.11,542.36"/>
      </lanes>
   </edge>

   <edge id="-26004861#0" from="283721344" to="287944369" priority="1" type="highway.footway" function="normal">
      <lanes>
         <lane id="-26004861#0_0" depart="1" allow="pedestrian" maxspeed="8.33" length="8.78" shape="1022.82,535.00 1026.20,543.10"/>
      </lanes>
   </edge>

   <edge id="-26004861#1" from="287944368" to="283721344" priority="1" type="highway.footway" function="normal">
      <lanes>
         <lane id="-26004861#1_0" depart="1" allow="pedestrian" maxspeed="8.33" length="13.48" shape="1012.47,513.31 1018.44,525.40"/>
      </lanes>
   </edge>

   <edge id="-26004861#2" from="283721348" to="287944368" priority="1" type="highway.footway" function="normal">
      <lanes>
         <lane id="-26004861#2_0" depart="1" allow="pedestrian" maxspeed="8.33" length="13.18" shape="1001.92,489.76 1007.17,501.86"/>
      </lanes>
   </edge>

   <edge id="-26004868#0" from="287944369" to="283719736" priority="1" type="highway.footway" function="normal">
      <lanes>
         <lane id="-26004868#0_0" depart="1" allow="pedestrian" maxspeed="8.33" length="19.62" shape="1030.44,543.78 1043.21,528.88"/>
      </lanes>
   </edge>

   <edge id="-26004868#1" from="283721473" to="287944369" priority="1" type="highway.footway" function="normal">
      <lanes>
         <lane id="-26004868#1_0" depart="1" allow="pedestrian" maxspeed="8.33" length="22.18" shape="1009.08,568.23 1023.72,551.56"/>
      </lanes>
   </edge>

   <edge id="-26004966#0" from="283721473" to="283722835" priority="1" type="highway.footway" function="normal">
      <lanes>
         <lane id="-26004966#0_0" depart="1" allow="pedestrian" maxspeed="8.33" length="13.81" shape="1011.66,574.95 1021.83,584.28"/>
      </lanes>
   </edge>

   <edge id="-26004966#1" from="283722837" to="283721473" priority="1" type="highway.footway" function="normal">
      <lanes>
         <lane id="-26004966#1_0" depart="1" allow="pedestrian" maxspeed="8.33" length="31.22" shape="982.17,546.81 1004.70,568.42"/>
      </lanes>
   </edge>

   <edge id="-26004966#2" from="287944368" to="283722837" priority="1" type="highway.footway" function="normal">
      <lanes>
         <lane id="-26004966#2_0" depart="1" allow="pedestrian" maxspeed="8.33" length="28.10" shape="1005.22,514.13 985.97,534.60"/>
      </lanes>
   </edge>

   <edge id="-26004966#3" from="283720461" to="287944368" priority="1" type="highway.footway" function="normal">
      <lanes>
         <lane id="-26004966#3_0" depart="1" allow="pedestrian" maxspeed="8.33" length="8.16" shape="1019.36,498.76 1013.86,504.79"/>
      </lanes>
   </edge>

   <edge id="-26816413#0" from="294168710" to="56231597" priority="2" type="highway.service" function="normal">
      <lanes>
         <lane id="-26816413#0_0" depart="1" allow="delivery" maxspeed="5.56" length="59.11" shape="587.85,338.80 631.46,378.70"/>
      </lanes>
   </edge>

   <edge id="-26816413#1+26816541" from="294168098" to="294168710" priority="2" type="" function="normal">
      <lanes>
         <lane id="-26816413#1+26816541_0" depart="1" maxspeed="5.56" length="27.12" shape="567.85,316.03 587.86,334.34"/>
         <lane id="-26816413#1+26816541_1" depart="0" maxspeed="5.56" length="27.12" shape="565.63,318.46 585.63,336.77"/>
      </lanes>
   </edge>

   <edge id="-26816553" from="294168972" to="294168098" priority="2" type="highway.service" function="normal">
      <lanes>
         <lane id="-26816553_0" depart="1" allow="delivery" maxspeed="5.56" length="219.07" shape="712.76,230.69 707.47,236.15 682.62,263.76 634.05,224.83 572.36,303.52 565.65,311.88 566.00,313.21"/>
      </lanes>
   </edge>

   <edge id="-26816590#0" from="294169338" to="294168098" priority="2" type="highway.service" function="normal">
      <lanes>
         <lane id="-26816590#0_0" depart="1" allow="delivery" maxspeed="5.56" length="5.42" shape="561.15,309.74 564.00,314.35"/>
      </lanes>
   </edge>

   <edge id="-26816590#1" from="294169339" to="294169338" priority="2" type="highway.service" function="normal">
      <lanes>
         <lane id="-26816590#1_0" depart="1" allow="delivery" maxspeed="5.56" length="4.96" shape="548.04,301.92 552.55,303.99"/>
      </lanes>
   </edge>

   <edge id="-26816590#2" from="294169342" to="294169339" priority="2" type="highway.service" function="normal">
      <lanes>
         <lane id="-26816590#2_0" depart="1" allow="delivery" maxspeed="5.56" length="39.99" shape="499.73,305.40 510.43,304.36 539.47,300.91"/>
      </lanes>
   </edge>

   <edge id="-26816627" from="294169618" to="294169338" priority="2" type="highway.service" function="normal">
      <lanes>
         <lane id="-26816627_0" depart="1" allow="delivery" maxspeed="5.56" length="151.71" shape="542.80,150.32 559.29,301.14"/>
      </lanes>
   </edge>

   <edge id="-26843019" from="294829798" to="294829385" priority="2" type="highway.service" function="normal">
      <lanes>
         <lane id="-26843019_0" depart="1" allow="delivery" maxspeed="5.56" length="89.37" shape="921.00,411.22 863.23,479.41"/>
      </lanes>
   </edge>

   <edge id="-26843133#0" from="294831560" to="294169339" priority="2" type="highway.service" function="normal">
      <lanes>
         <lane id="-26843133#0_0" depart="1" allow="delivery" maxspeed="5.56" length="4.91" shape="545.18,292.38 545.55,297.27"/>
      </lanes>
   </edge>

   <edge id="-5198584" from="36268382" to="36268416" priority="4" type="highway.residential" function="normal">
      <lanes>
         <lane id="-5198584_0" depart="1" maxspeed="13.89" length="519.08" shape="1437.38,543.19 1260.88,372.19 1057.60,189.47"/>
      </lanes>
   </edge>

   <edge id="-5198585#0" from="294168972" to="36268369" priority="4" type="highway.residential" function="normal">
      <lanes>
         <lane id="-5198585#0_0" depart="1" maxspeed="13.89" length="137.99" shape="710.20,224.01 659.75,180.13 645.09,160.63 640.25,114.14"/>
      </lanes>
   </edge>

   <edge id="-5198585#1" from="36268375" to="294168972" priority="4" type="highway.residential" function="normal">
      <lanes>
         <lane id="-5198585#1_0" depart="1" maxspeed="13.89" length="50.55" shape="755.42,263.55 717.37,230.26"/>
      </lanes>
   </edge>

   <edge id="-5198585#2" from="36268376" to="36268375" priority="4" type="highway.residential" function="normal">
      <lanes>
         <lane id="-5198585#2_0" depart="1" maxspeed="13.89" length="163.91" shape="886.46,377.11 762.58,269.78"/>
      </lanes>
   </edge>

   <edge id="-5198585#3" from="294829798" to="36268376" priority="4" type="highway.residential" function="normal">
      <lanes>
         <lane id="-5198585#3_0" depart="1" maxspeed="13.89" length="32.40" shape="918.20,404.66 893.73,383.42"/>
      </lanes>
   </edge>

   <edge id="-5198585#4" from="36268431" to="294829798" priority="4" type="highway.residential" function="normal">
      <lanes>
         <lane id="-5198585#4_0" depart="1" maxspeed="13.89" length="40.65" shape="956.03,437.58 925.38,410.89"/>
      </lanes>
   </edge>

   <edge id="-5198585#5" from="36268378" to="36268431" priority="4" type="highway.residential" function="normal">
      <lanes>
         <lane id="-5198585#5_0" depart="1" maxspeed="13.89" length="48.51" shape="998.40,476.96 962.96,443.83"/>
      </lanes>
   </edge>

   <edge id="-5198585#6" from="283720461" to="36268378" priority="4" type="highway.residential" function="normal">
      <lanes>
         <lane id="-5198585#6_0" depart="1" maxspeed="13.89" length="14.32" shape="1016.59,492.17 1005.47,483.13"/>
      </lanes>
   </edge>

   <edge id="-5198585#7" from="283719736" to="283720461" priority="4" type="highway.residential" function="normal">
      <lanes>
         <lane id="-5198585#7_0" depart="1" maxspeed="13.89" length="28.87" shape="1046.23,516.56 1023.96,498.19"/>
      </lanes>
   </edge>

   <edge id="-5198585#8" from="36268381" to="283719736" priority="4" type="highway.residential" function="normal">
      <lanes>
         <lane id="-5198585#8_0" depart="1" maxspeed="13.89" length="284.85" shape="1264.10,718.18 1159.22,616.18 1099.85,561.72 1055.55,524.31"/>
      </lanes>
   </edge>

   <edge id="-5198586#0" from="36268406" to="36268415" priority="4" type="highway.residential" function="normal">
      <lanes>
         <lane id="-5198586#0_0" depart="1" maxspeed="13.89" length="67.07" shape="826.46,460.12 781.79,510.16"/>
      </lanes>
   </edge>

   <edge id="-5198586#1" from="36268376" to="36268406" priority="4" type="highway.residential" function="normal">
      <lanes>
         <lane id="-5198586#1_0" depart="1" maxspeed="13.89" length="89.21" shape="889.36,383.79 832.77,452.75"/>
      </lanes>
   </edge>

   <edge id="-5198586#2" from="36268417" to="36268376" priority="4" type="highway.residential" function="normal">
      <lanes>
         <lane id="-5198586#2_0" depart="1" maxspeed="13.89" length="135.70" shape="983.10,272.77 895.51,376.41"/>
      </lanes>
   </edge>

   <edge id="-5198586#3" from="36268416" to="36268417" priority="4" type="highway.residential" function="normal">
      <lanes>
         <lane id="-5198586#3_0" depart="1" maxspeed="13.89" length="99.15" shape="1053.22,189.77 989.23,265.51"/>
      </lanes>
   </edge>

   <edge id="-5198586#4" from="261636677" to="36268416" priority="4" type="highway.residential" function="normal">
      <lanes>
         <lane id="-5198586#4_0" depart="1" maxspeed="13.89" length="90.23" shape="1119.94,116.03 1104.45,128.68 1059.34,182.50"/>
      </lanes>
   </edge>

   <edge id="-5198587" from="36268392" to="36268431" priority="4" type="highway.residential" function="normal">
      <lanes>
         <lane id="-5198587_0" depart="1" maxspeed="13.89" length="134.36" shape="1051.24,333.75 965.10,436.86"/>
      </lanes>
   </edge>

   <edge id="-5198588#0" from="36268392" to="36268417" priority="4" type="highway.residential" function="normal">
      <lanes>
         <lane id="-5198588#0_0" depart="1" maxspeed="13.89" length="81.94" shape="1048.51,327.13 987.48,272.46"/>
      </lanes>
   </edge>

   <edge id="-5198588#1" from="36268391" to="36268392" priority="4" type="highway.residential" function="normal">
      <lanes>
         <lane id="-5198588#1_0" depart="1" maxspeed="13.89" length="181.29" shape="1192.51,452.25 1055.61,333.40"/>
      </lanes>
   </edge>

   <edge id="-5198596#0" from="294829881" to="36268403" priority="4" type="highway.residential" function="normal">
      <lanes>
         <lane id="-5198596#0_0" depart="1" maxspeed="13.89" length="54.26" shape="893.29,509.75 934.42,545.13"/>
      </lanes>
   </edge>

   <edge id="-5198596#1" from="294829385" to="294829881" priority="4" type="highway.residential" function="normal">
      <lanes>
         <lane id="-5198596#1_0" depart="1" maxspeed="13.89" length="39.47" shape="863.51,483.84 893.29,509.75"/>
      </lanes>
   </edge>

   <edge id="-5198596#2" from="36268406" to="294829385" priority="4" type="highway.residential" function="normal">
      <lanes>
         <lane id="-5198596#2_0" depart="1" maxspeed="13.89" length="30.91" shape="833.01,457.34 856.34,477.61"/>
      </lanes>
   </edge>

   <edge id="-5198596#3" from="36268408" to="36268406" priority="4" type="highway.residential" function="normal">
      <lanes>
         <lane id="-5198596#3_0" depart="1" maxspeed="13.89" length="130.13" shape="729.46,363.54 825.84,450.98"/>
      </lanes>
   </edge>

   <edge id="-5198596#4" from="36268411" to="36268408" priority="4" type="highway.residential" function="normal">
      <lanes>
         <lane id="-5198596#4_0" depart="1" maxspeed="13.89" length="29.88" shape="698.85,338.36 722.05,357.18"/>
      </lanes>
   </edge>

   <edge id="-5198597#0" from="36268411" to="36268375" priority="4" type="highway.residential" function="normal">
      <lanes>
         <lane id="-5198597#0_0" depart="1" maxspeed="13.89" length="87.25" shape="696.13,331.73 755.64,267.93"/>
      </lanes>
   </edge>

   <edge id="-5198597#1" from="56231597" to="36268411" priority="4" type="highway.residential" function="normal">
      <lanes>
         <lane id="-5198597#1_0" depart="1" maxspeed="13.89" length="71.43" shape="635.84,378.63 676.94,338.49 690.60,335.53"/>
      </lanes>
   </edge>

   <edge id="-5198597#2" from="56231598" to="56231597" priority="4" type="highway.residential" function="normal">
      <lanes>
         <lane id="-5198597#2_0" depart="1" maxspeed="13.89" length="31.41" shape="615.76,413.57 619.18,406.76 630.37,385.77"/>
      </lanes>
   </edge>

   <edge id="-5784968#0" from="283721348" to="36268378" priority="4" type="highway.residential" function="normal">
      <lanes>
         <lane id="-5784968#0_0" depart="1" maxspeed="13.89" length="7.54" shape="996.64,483.37 1001.80,477.87"/>
      </lanes>
   </edge>

   <edge id="-5784968#1" from="36268403" to="283721348" priority="4" type="highway.residential" function="normal">
      <lanes>
         <lane id="-5784968#1_0" depart="1" maxspeed="13.89" length="77.99" shape="938.92,545.00 992.23,488.08"/>
      </lanes>
   </edge>

   <edge id="-5784968#2" from="283719904" to="36268403" priority="4" type="highway.residential" function="normal">
      <lanes>
         <lane id="-5784968#2_0" depart="1" maxspeed="13.89" length="2.48" shape="930.95,553.88 932.58,552.01"/>
      </lanes>
   </edge>

   <edge id="-5784968#3" from="38920778" to="283719904" priority="4" type="highway.residential" function="normal">
      <lanes>
         <lane id="-5784968#3_0" depart="1" maxspeed="13.89" length="38.61" shape="904.59,588.76 927.79,557.90"/>
      </lanes>
   </edge>

   <edge id="-5784968#4" from="306982585" to="38920778" priority="4" type="highway.residential" function="normal">
      <lanes>
         <lane id="-5784968#4_0" depart="1" maxspeed="13.89" length="5.81" shape="896.46,598.79 900.18,594.32"/>
      </lanes>
   </edge>

   <edge id="-5784968#5" from="36268398" to="306982585" priority="4" type="highway.residential" function="normal">
      <lanes>
         <lane id="-5784968#5_0" depart="1" maxspeed="13.89" length="3.87" shape="893.50,601.58 896.32,598.93"/>
      </lanes>
   </edge>

   <edge id="-6137233#0" from="38919880" to="38919927" priority="4" type="highway.residential" function="normal">
      <lanes>
         <lane id="-6137233#0_0" depart="1" maxspeed="13.89" length="38.49" shape="334.82,454.81 297.11,447.12"/>
      </lanes>
   </edge>

   <edge id="-6137233#1" from="283018845" to="38919880" priority="4" type="highway.residential" function="normal">
      <lanes>
         <lane id="-6137233#1_0" depart="1" maxspeed="13.89" length="15.46" shape="359.40,460.57 344.37,456.96"/>
      </lanes>
   </edge>

   <edge id="-6137233#2" from="283018932" to="283018845" priority="4" type="highway.residential" function="normal">
      <lanes>
         <lane id="-6137233#2_0" depart="1" maxspeed="13.89" length="47.99" shape="406.99,472.47 360.44,460.83"/>
      </lanes>
   </edge>

   <edge id="-6137233#3" from="283018933" to="283018932" priority="4" type="highway.residential" function="normal">
      <lanes>
         <lane id="-6137233#3_0" depart="1" maxspeed="13.89" length="120.20" shape="532.25,508.39 495.68,495.05 416.92,474.97"/>
      </lanes>
   </edge>

   <edge id="-6137233#4" from="38919712" to="283018933" priority="4" type="highway.residential" function="normal">
      <lanes>
         <lane id="-6137233#4_0" depart="1" maxspeed="13.89" length="78.24" shape="614.39,539.27 541.17,511.69"/>
      </lanes>
   </edge>

   <edge id="-6137239#0" from="38919854" to="38919880" priority="4" type="highway.residential" function="normal">
      <lanes>
         <lane id="-6137239#0_0" depart="1" maxspeed="13.89" length="64.88" shape="382.89,502.84 347.66,478.71 337.93,466.09 337.70,459.85"/>
      </lanes>
   </edge>

   <edge id="-6137239#1" from="38919841" to="38919854" priority="4" type="highway.residential" function="normal">
      <lanes>
         <lane id="-6137239#1_0" depart="1" maxspeed="13.89" length="117.52" shape="497.06,560.23 391.80,507.97"/>
      </lanes>
   </edge>

   <edge id="-6137239#2" from="38919808" to="38919841" priority="4" type="highway.residential" function="normal">
      <lanes>
         <lane id="-6137239#2_0" depart="1" maxspeed="13.89" length="93.27" shape="599.46,564.80 524.71,567.15 511.43,565.62 506.56,564.08"/>
      </lanes>
   </edge>

   <edge id="-6137239#3" from="38919652" to="38919808" priority="4" type="highway.residential" function="normal">
      <lanes>
         <lane id="-6137239#3_0" depart="1" maxspeed="13.89" length="2.06" shape="612.31,564.02 610.25,564.18"/>
      </lanes>
   </edge>

   <edge id="-6137239#4" from="38919605" to="38919652" priority="4" type="highway.residential" function="normal">
      <lanes>
         <lane id="-6137239#4_0" depart="1" maxspeed="13.89" length="165.65" shape="781.71,576.67 769.92,564.88 760.37,560.58 750.77,558.66 622.14,563.45"/>
      </lanes>
   </edge>

   <edge id="-7216737#0" from="36268421" to="94487954" priority="9" type="highway.primary" function="normal">
      <lanes>
         <lane id="-7216737#0_0" depart="1" maxspeed="27.78" length="597.94" shape="1147.08,45.28 1508.46,5.58 1605.21,-4.42 1640.02,-4.95 1680.65,-2.44 1697.58,1.16 1722.25,6.29 1740.02,15.62"/>
         <lane id="-7216737#0_1" depart="0" maxspeed="27.78" length="597.94" shape="1147.44,48.56 1508.82,8.86 1605.55,-1.14 1640.07,-1.65 1680.45,0.85 1696.88,4.39 1721.12,9.43 1738.49,18.54"/>
      </lanes>
   </edge>

   <edge id="-7216737#1" from="261636678" to="36268421" priority="9" type="highway.primary" function="normal">
      <lanes>
         <lane id="-7216737#1_0" depart="1" maxspeed="27.78" length="23.50" shape="1117.78,47.81 1141.19,45.84"/>
         <lane id="-7216737#1_1" depart="0" maxspeed="27.78" length="23.50" shape="1118.06,51.10 1141.47,49.13"/>
      </lanes>
   </edge>

   <edge id="-7216737#2" from="36268369" to="261636678" priority="9" type="highway.primary" function="normal">
      <lanes>
         <lane id="-7216737#2_0" depart="1" maxspeed="27.78" length="470.44" shape="644.58,100.41 771.70,79.61 932.21,62.08 1044.16,51.57 1111.99,48.20"/>
         <lane id="-7216737#2_1" depart="0" maxspeed="27.78" length="470.44" shape="645.11,103.67 772.23,82.87 932.57,65.36 1044.47,54.86 1112.15,51.50"/>
      </lanes>
   </edge>

   <edge id="-7216737#3" from="32266935" to="36268369" priority="9" type="highway.primary" function="normal">
      <lanes>
         <lane id="-7216737#3_0" depart="1" maxspeed="27.78" length="153.29" shape="483.31,115.63 635.95,101.50"/>
         <lane id="-7216737#3_1" depart="0" maxspeed="27.78" length="153.29" shape="483.62,118.92 636.26,104.79"/>
      </lanes>
   </edge>

   <edge id="-7727483#0" from="294169342" to="38920501" priority="6" type="highway.tertiary" function="normal">
      <lanes>
         <lane id="-7727483#0_0" depart="1" maxspeed="22.22" length="4.01" shape="496.77,307.36 497.11,311.36"/>
      </lanes>
   </edge>

   <edge id="-7727483#1" from="261647692" to="294169342" priority="6" type="highway.tertiary" function="normal">
      <lanes>
         <lane id="-7727483#1_0" depart="1" maxspeed="22.22" length="22.30" shape="494.49,280.36 496.37,302.59"/>
      </lanes>
   </edge>

   <edge id="-7727483#2" from="261647702" to="261647692" priority="6" type="highway.tertiary" function="normal">
      <lanes>
         <lane id="-7727483#2_0" depart="1" maxspeed="22.22" length="113.92" shape="484.64,166.86 486.33,186.86 490.39,233.36 494.49,280.36"/>
      </lanes>
   </edge>

   <edge id="-7727483#3" from="32266935" to="261647702" priority="6" type="highway.tertiary" function="normal">
      <lanes>
         <lane id="-7727483#3_0" depart="1" maxspeed="22.22" length="38.01" shape="481.35,128.99 484.64,166.86"/>
      </lanes>
   </edge>

   <edge id="-7730463" from="36268408" to="56242425" priority="1" type="highway.footway" function="normal">
      <lanes>
         <lane id="-7730463_0" depart="1" allow="pedestrian" maxspeed="8.33" length="87.62" shape="722.87,366.28 666.24,433.14"/>
      </lanes>
   </edge>

   <edge id="-7730464" from="56231598" to="56242441" priority="6" type="highway.tertiary" function="normal">
      <lanes>
         <lane id="-7730464_0" depart="1" maxspeed="22.22" length="2.25" shape="617.03,421.64 616.90,423.89"/>
      </lanes>
   </edge>

   <edge id="20430080" from="57343359" to="59993001" priority="6" type="highway.tertiary" function="normal">
      <lanes>
         <lane id="20430080_0" depart="1" maxspeed="22.22" length="491.24" shape="2.11,345.45 4.56,342.50 12.53,333.00 33.00,332.00 190.22,344.00 304.78,351.00 387.69,360.00 483.92,381.80"/>
      </lanes>
   </edge>

   <edge id="22917251" from="32266938" to="32266936" priority="6" type="highway.tertiary" function="normal">
      <lanes>
         <lane id="22917251_0" depart="1" maxspeed="22.22" length="53.11" shape="475.71,102.06 471.17,49.14"/>
      </lanes>
   </edge>

   <edge id="24152812#0" from="36268421" to="261636677" priority="4" type="highway.residential" function="normal">
      <lanes>
         <lane id="24152812#0_0" depart="1" maxspeed="13.89" length="77.27" shape="1145.33,58.58 1148.38,112.00 1124.67,113.66"/>
      </lanes>
   </edge>

   <edge id="24152812#1" from="261636677" to="261636678" priority="4" type="highway.residential" function="normal">
      <lanes>
         <lane id="24152812#1_0" depart="1" maxspeed="13.89" length="48.79" shape="1119.48,109.67 1115.77,61.01"/>
      </lanes>
   </edge>

   <edge id="24214693" from="32266935" to="57343510" priority="9" type="highway.primary" function="normal">
      <lanes>
         <lane id="24214693_0" depart="1" maxspeed="27.78" length="462.69" shape="474.66,126.51 202.72,159.41 34.67,181.41 15.67,184.39"/>
         <lane id="24214693_1" depart="0" maxspeed="27.78" length="462.69" shape="474.26,123.24 202.32,156.14 34.25,178.14 15.16,181.13"/>
      </lanes>
   </edge>

   <edge id="24214694" from="32266935" to="32266938" priority="6" type="highway.tertiary" function="normal">
      <lanes>
         <lane id="24214694_0" depart="1" maxspeed="22.22" length="1.58" shape="476.66,113.10 476.53,111.53"/>
      </lanes>
   </edge>

   <edge id="25944590#0" from="283018817" to="283018841" priority="1" type="highway.footway" function="normal">
      <lanes>
         <lane id="25944590#0_0" depart="1" allow="pedestrian" maxspeed="8.33" length="83.03" shape="608.77,548.54 551.13,541.14 529.39,537.12 526.71,536.27"/>
      </lanes>
   </edge>

   <edge id="25944590#1" from="283018841" to="283018842" priority="1" type="highway.footway" function="normal">
      <lanes>
         <lane id="25944590#1_0" depart="1" allow="pedestrian" maxspeed="8.33" length="21.32" shape="513.72,532.38 493.19,526.64"/>
      </lanes>
   </edge>

   <edge id="25944590#2" from="283018842" to="283018844" priority="1" type="highway.footway" function="normal">
      <lanes>
         <lane id="25944590#2_0" depart="1" allow="pedestrian" maxspeed="8.33" length="88.96" shape="487.81,526.24 419.63,497.02 406.59,490.05"/>
      </lanes>
   </edge>

   <edge id="25944590#3" from="283018844" to="283018845" priority="1" type="highway.footway" function="normal">
      <lanes>
         <lane id="25944590#3_0" depart="1" allow="pedestrian" maxspeed="8.33" length="43.68" shape="397.22,484.61 360.34,461.21"/>
      </lanes>
   </edge>

   <edge id="25944601#0" from="38919854" to="283018844" priority="1" type="highway.footway" function="normal">
      <lanes>
         <lane id="25944601#0_0" depart="1" allow="pedestrian" maxspeed="8.33" length="12.61" shape="389.83,498.63 397.90,488.94"/>
      </lanes>
   </edge>

   <edge id="25944601#1" from="283018844" to="283018932" priority="1" type="highway.footway" function="normal">
      <lanes>