<additional xmlns:xsi="http://www.w3.org/2001/XMLSchema-instance" xsi:noNamespaceSchemaLocation="http://sumo.dlr.de/xsd/additional_file.xsd">
	<!-- Without errors -->
	<e3Detector id="e3Detector_0" freq="100.00" file="e3Detector_0.txt" timeThreshold="1.00" speedThreshold="1.39" pos="0,10">
		<detEntry lane="gneE1_0" pos="2" friendlyPos="0"/>
		<detExit lane="gneE0_0" pos="2" friendlyPos="0"/>
	</e3Detector>
</additional>
