<?xml version="1.0" encoding="UTF-8"?>

<!-- generated on Thu Oct 27 10:31:02 2016 by SUMO netconvert Version dev-SVN-r21814
<?xml version="1.0" encoding="UTF-8"?>

<configuration xmlns:xsi="http://www.w3.org/2001/XMLSchema-instance" xsi:noNamespaceSchemaLocation="http://sumo.dlr.de/xsd/netconvertConfiguration.xsd">

    <input>
        <node-files value="input_nodes.nod.xml,input_nodes2.nod.xml"/>
        <edge-files value="input_edges.edg.xml"/>
    </input>

    <output>
        <output-file value="net.net.xml"/>
        <plain-output-prefix value="plain"/>
    </output>

    <report>
        <xml-validation value="never"/>
    </report>

</configuration>
-->

<net version="0.27" xmlns:xsi="http://www.w3.org/2001/XMLSchema-instance" xsi:noNamespaceSchemaLocation="http://sumo.dlr.de/xsd/net_file.xsd">

    <location netOffset="0.00,0.00" convBoundary="0.00,0.00,92.46,78.21" origBoundary="0.00,0.00,92.46,78.21" projParameter="!"/>

    <edge id=":301292612_0" function="internal">
        <lane id=":301292612_0_0" index="0" speed="13.89" length="9.07" shape="46.25,60.09 43.85,59.53 42.05,60.02 40.20,60.65 37.64,60.54"/>
        <lane id=":301292612_0_1" index="1" speed="13.89" length="9.07" shape="47.65,57.10 45.08,56.47 43.16,56.90 41.18,57.49 38.44,57.34"/>
        <lane id=":301292612_0_2" index="2" speed="13.89" length="9.07" shape="47.65,57.10 45.24,55.99 43.55,55.31 41.81,54.78 39.23,54.13"/>
    </edge>
    <edge id=":301292612_3" function="internal">
        <lane id=":301292612_3_0" index="0" speed="13.89" length="2.64" shape="46.01,52.43 45.27,53.73 44.67,54.04"/>
        <lane id=":301292612_3_1" index="1" speed="13.89" length="2.64" shape="42.82,51.58 42.41,51.92 41.69,51.71 40.83,51.27 40.02,50.93"/>
    </edge>
    <edge id=":301292612_5" function="internal">
        <lane id=":301292612_5_0" index="0" speed="13.89" length="5.59" shape="44.67,54.04 43.89,54.44 41.88,54.58 39.23,54.13"/>
    </edge>
    <edge id=":38919945_0" function="internal">
        <lane id=":38919945_0_0" index="0" speed="13.89" length="9.65" shape="37.45,60.49 35.13,59.13 34.04,57.18 32.94,55.35 30.55,54.33"/>
    </edge>
    <edge id=":38919945_1" function="internal">
        <lane id=":38919945_1_0" index="0" speed="13.89" length="6.68" shape="39.04,54.09 36.83,53.16 35.40,51.68 34.75,49.63 34.86,47.02"/>
        <lane id=":38919945_1_1" index="1" speed="13.89" length="6.68" shape="39.83,50.88 38.90,50.47 38.30,49.79 38.04,48.83 38.12,47.59"/>
    </edge>
    <edge id=":56231397_0" function="internal">
        <lane id=":56231397_0_0" index="0" speed="13.89" length="4.85" shape="51.70,44.56 51.48,45.85 51.71,46.94 52.37,47.84 53.47,48.55"/>
    </edge>
    <edge id=":56231397_1" function="internal">
        <lane id=":56231397_1_0" index="0" speed="13.89" length="9.77" shape="51.70,44.56 50.39,47.03 48.81,48.38 47.26,49.74 46.06,52.24"/>
        <lane id=":56231397_1_1" index="1" speed="13.89" length="9.77" shape="48.55,43.57 47.23,46.08 45.64,47.46 44.08,48.85 42.87,51.39"/>
    </edge>
    <edge id=":56231397_3" function="internal">
        <lane id=":56231397_3_0" index="0" speed="13.89" length="11.95" shape="41.70,45.78 44.61,46.86 46.69,48.20 48.88,49.78 52.10,51.55"/>
    </edge>
    <edge id=":56231397_4" function="internal">
        <lane id=":56231397_4_0" index="0" speed="13.89" length="2.42" shape="41.70,45.78 42.71,46.37 43.25,47.50"/>
    </edge>
    <edge id=":56231397_5" function="internal">
        <lane id=":56231397_5_0" index="0" speed="13.89" length="3.92" shape="43.25,47.50 43.30,49.18 42.87,51.39"/>
    </edge>
    <edge id=":59993001_0" function="internal">
        <lane id=":59993001_0_0" index="0" speed="13.89" length="5.62" shape="29.13,43.70 30.44,43.61 31.52,43.01 32.35,41.92 32.94,40.32"/>
    </edge>
    <edge id=":59993001_1" function="internal">
        <lane id=":59993001_1_0" index="0" speed="13.89" length="12.55" shape="29.13,43.70 41.51,45.73"/>
    </edge>
    <edge id=":59993001_2" function="internal">
        <lane id=":59993001_2_0" index="0" speed="13.89" length="6.94" shape="34.90,46.83 34.72,44.86 33.82,43.55 32.97,42.26 32.94,40.32"/>
        <lane id=":59993001_2_1" index="1" speed="13.89" length="6.94" shape="38.15,47.39 37.96,45.50 37.05,44.25 36.19,43.00 36.14,41.14"/>
    </edge>
    <edge id=":59993001_4" function="internal">
        <lane id=":59993001_4_0" index="0" speed="13.89" length="0.60" shape="38.15,47.39 38.35,46.83"/>
    </edge>
    <edge id=":59993001_5" function="internal">
        <lane id=":59993001_5_0" index="0" speed="13.89" length="3.75" shape="38.35,46.83 38.52,46.38 39.20,45.76 40.20,45.55 41.51,45.73"/>
    </edge>

    <edge id="27437972" from="38918157" to="301292612" priority="7" spreadType="center">
        <lane id="27437972_0" index="0" speed="13.89" length="46.15" shape="88.02,79.70 46.25,60.09"/>
        <lane id="27437972_1" index="1" speed="13.89" length="46.15" shape="89.42,76.72 47.65,57.10"/>
    </edge>
    <edge id="27441168" from="59993001" to="56231397" priority="6" spreadType="center">
        <lane id="27441168_0" index="0" speed="13.89" length="0.20" shape="41.51,45.73 41.70,45.78"/>
    </edge>
    <edge id="27441189" from="301292612" to="38919945" priority="6" spreadType="center">
        <lane id="27441189_0" index="0" speed="13.89" length="0.20" shape="37.64,60.54 37.45,60.49"/>
        <lane id="27441189_1" index="1" speed="13.89" length="0.20" shape="38.44,57.34 38.24,57.29"/>
        <lane id="27441189_2" index="2" speed="13.89" length="0.20" shape="39.23,54.13 39.04,54.09"/>
        <lane id="27441189_3" index="3" speed="13.89" length="0.20" shape="40.02,50.93 39.83,50.88"/>
    </edge>
    <edge id="27441289.0" from="59993001" to="gneJ0" priority="7">
        <lane id="27441289.0_0" index="0" speed="13.89" length="42.88" shape="32.94,40.32 43.55,-1.23"/>
        <lane id="27441289.0_1" index="1" speed="13.89" length="42.88" shape="36.14,41.14 46.75,-0.41"/>
    </edge>
    <edge id="27441289.95" from="gneJ1" to="56231397" priority="7">
        <lane id="27441289.95_0" index="0" speed="13.89" length="42.84" shape="64.47,3.67 51.70,44.56"/>
        <lane id="27441289.95_1" index="1" speed="13.89" length="42.84" shape="61.32,2.68 48.55,43.57"/>
    </edge>
    <edge id="27445000#0" from="38919945" to="945141569" priority="6" spreadType="center">
        <lane id="27445000#0_0" index="0" speed="13.89" length="30.73" shape="30.55,54.33 -0.00,51.05"/>
    </edge>
    <edge id="27445003" from="56231397" to="301292612" priority="7" spreadType="center">
        <lane id="27445003_0" index="0" speed="13.89" length="0.20" shape="46.06,52.24 46.01,52.43"/>
        <lane id="27445003_1" index="1" speed="13.89" length="0.20" shape="42.87,51.39 42.82,51.58"/>
    </edge>
    <edge id="27445015#0" from="56231397" to="567607201" priority="7" spreadType="center">
        <lane id="27445015#0_0" index="0" speed="13.89" length="43.65" shape="53.47,48.55 93.15,66.76"/>
        <lane id="27445015#0_1" index="1" speed="13.89" length="43.65" shape="52.10,51.55 91.77,69.76"/>
    </edge>
    <edge id="46039050" from="492462300" to="59993001" priority="6" spreadType="center">
        <lane id="46039050_0" index="0" speed="13.89" length="27.42" shape="1.87,40.76 29.13,43.70"/>
    </edge>
    <edge id="6137245" from="38919945" to="59993001" priority="5" spreadType="center">
        <lane id="6137245_0" index="0" speed="13.89" length="0.20" shape="34.86,47.02 34.90,46.83"/>
        <lane id="6137245_1" index="1" speed="13.89" length="0.20" shape="38.12,47.59 38.15,47.39"/>
    </edge>

    <tlLogic id="joinedS_0" type="static" programID="0" offset="0">
        <phase duration="36" state="GGGggGGGGGGggrrGGG"/>
        <phase duration="4" state="yyyggyyyyyyggrryyy"/>
        <phase duration="6" state="rrrGGGGGrrrGGrrGGG"/>
        <phase duration="4" state="rrryyyyyrrryyrryyy"/>
        <phase duration="36" state="rrrGGGGGGrrGGGGggg"/>
        <phase duration="4" state="rrryyyyyyrryyyyyyy"/>
    </tlLogic>

    <junction id="301292612" type="traffic_light" x="43.13" y="56.80" incLanes="27437972_0 27437972_1 27445003_0 27445003_1" intLanes=":301292612_0_0 :301292612_0_1 :301292612_0_2 :301292612_5_0 :301292612_3_1" shape="45.57,61.54 48.33,55.65 48.34,49.92 42.06,48.24 40.22,49.33 37.06,62.05">
        <request index="0" response="00000" foes="11000" cont="0"/>
        <request index="1" response="00000" foes="11000" cont="0"/>
        <request index="2" response="00000" foes="11000" cont="0"/>
        <request index="3" response="00111" foes="00111" cont="1"/>
        <request index="4" response="00111" foes="00111" cont="0"/>
    </junction>
    <junction id="38918157" type="unregulated" x="88.72" y="78.21" incLanes="" intLanes="" shape="90.10,75.27 87.34,81.15"/>
    <junction id="38919945" type="traffic_light" x="35.18" y="54.83" incLanes="27441189_0 27441189_1 27441189_2 27441189_3" intLanes=":38919945_0_0 :38919945_1_0 :38919945_1_1" shape="37.77,62.22 40.92,49.51 39.73,47.67 33.32,46.55 30.73,52.74 30.38,55.92">
        <request index="0" response="000" foes="000" cont="0"/>
        <request index="1" response="000" foes="000" cont="0"/>
        <request index="2" response="000" foes="000" cont="0"/>
    </junction>
    <junction id="492462300" type="unregulated" x="1.87" y="40.76" incLanes="" intLanes="" shape="1.70,42.35 2.04,39.17"/>
    <junction id="56231397" type="traffic_light" x="45.80" y="46.84" incLanes="27441289.95_0 27441289.95_1 27441168_0" intLanes=":56231397_0_0 :56231397_1_0 :56231397_1_1 :56231397_3_0 :56231397_5_0" shape="51.43,53.00 54.14,47.09 53.23,45.04 47.02,43.10 41.59,44.10 40.79,47.19 41.28,51.17 47.55,52.85">
        <request index="0" response="00000" foes="00000" cont="0"/>
        <request index="1" response="00000" foes="11000" cont="0"/>
        <request index="2" response="00000" foes="11000" cont="0"/>
        <request index="3" response="00110" foes="00110" cont="0"/>
        <request index="4" response="00110" foes="00110" cont="1"/>
    </junction>
    <junction id="567607201" type="unregulated" x="92.46" y="68.26" incLanes="27445015#0_0 27445015#0_1" intLanes="" shape="93.82,65.31 91.10,71.21"/>
    <junction id="59993001" type="traffic_light" x="36.97" y="44.55" incLanes="46039050_0 6137245_0 6137245_1" intLanes=":59993001_0_0 :59993001_1_0 :59993001_2_0 :59993001_2_1 :59993001_5_0" shape="41.30,47.33 42.11,44.23 37.69,41.53 31.39,39.93 29.30,42.11 28.96,45.29 33.19,47.31 39.59,48.43">
        <request index="0" response="00000" foes="01100" cont="0"/>
        <request index="1" response="00000" foes="11100" cont="0"/>
        <request index="2" response="00011" foes="00011" cont="0"/>
        <request index="3" response="00011" foes="00011" cont="0"/>
        <request index="4" response="00010" foes="00010" cont="1"/>
    </junction>
    <junction id="945141569" type="unregulated" x="0.00" y="51.05" incLanes="27445000#0_0" intLanes="" shape="-0.17,52.64 0.17,49.46"/>
    <junction id="gneJ0" type="unregulated" x="48.35" y="0.00" incLanes="27441289.0_0 27441289.0_1" intLanes="" shape="42.00,-1.62 48.30,-0.01"/>
    <junction id="gneJ1" type="unregulated" x="59.75" y="2.19" incLanes="" intLanes="" shape="59.80,2.20 66.00,4.14"/>

    <junction id=":301292612_5_0" type="internal" x="44.67" y="54.04" incLanes=":301292612_3_0 27437972_0 27437972_1" intLanes=":301292612_0_0 :301292612_0_1 :301292612_0_2"/>
    <junction id=":56231397_5_0" type="internal" x="43.25" y="47.50" incLanes=":56231397_4_0 27441289.95_0 27441289.95_1" intLanes=":56231397_1_0 :56231397_1_1"/>
    <junction id=":59993001_5_0" type="internal" x="38.35" y="46.83" incLanes=":59993001_4_0 46039050_0" intLanes=":59993001_1_0"/>

    <connection from="27437972" to="27441189" fromLane="0" toLane="0" via=":301292612_0_0" tl="joinedS_0" linkIndex="0" dir="s" state="o"/>
    <connection from="27437972" to="27441189" fromLane="1" toLane="1" via=":301292612_0_1" tl="joinedS_0" linkIndex="1" dir="s" state="o"/>
    <connection from="27437972" to="27441189" fromLane="1" toLane="2" via=":301292612_0_2" tl="joinedS_0" linkIndex="2" dir="s" state="o"/>
    <connection from="27441168" to="27445015#0" fromLane="0" toLane="1" via=":56231397_3_0" tl="joinedS_0" linkIndex="11" dir="s" state="o"/>
    <connection from="27441168" to="27445003" fromLane="0" toLane="1" via=":56231397_4_0" tl="joinedS_0" linkIndex="12" dir="l" state="o"/>
    <connection from="27441189" to="27445000#0" fromLane="0" toLane="0" via=":38919945_0_0" tl="joinedS_0" linkIndex="5" dir="s" state="o"/>
    <connection from="27441189" to="6137245" fromLane="2" toLane="0" via=":38919945_1_0" tl="joinedS_0" linkIndex="6" dir="l" state="o"/>
    <connection from="27441189" to="6137245" fromLane="3" toLane="1" via=":38919945_1_1" tl="joinedS_0" linkIndex="7" dir="l" state="o"/>
    <connection from="27441289.95" to="27445015#0" fromLane="0" toLane="0" via=":56231397_0_0" tl="joinedS_0" linkIndex="8" dir="r" state="o"/>
    <connection from="27441289.95" to="27445003" fromLane="0" toLane="0" via=":56231397_1_0" tl="joinedS_0" linkIndex="9" dir="s" state="o"/>
    <connection from="27441289.95" to="27445003" fromLane="1" toLane="1" via=":56231397_1_1" tl="joinedS_0" linkIndex="10" dir="s" state="o"/>
    <connection from="27445003" to="27441189" fromLane="0" toLane="2" via=":301292612_3_0" tl="joinedS_0" linkIndex="3" dir="l" state="o"/>
    <connection from="27445003" to="27441189" fromLane="1" toLane="3" via=":301292612_3_1" tl="joinedS_0" linkIndex="4" dir="l" state="o"/>
    <connection from="46039050" to="27441289.0" fromLane="0" toLane="0" via=":59993001_0_0" tl="joinedS_0" linkIndex="13" dir="r" state="o"/>
    <connection from="46039050" to="27441168" fromLane="0" toLane="0" via=":59993001_1_0" tl="joinedS_0" linkIndex="14" dir="s" state="o"/>
    <connection from="6137245" to="27441289.0" fromLane="0" toLane="0" via=":59993001_2_0" tl="joinedS_0" linkIndex="15" dir="s" state="o"/>
    <connection from="6137245" to="27441289.0" fromLane="1" toLane="1" via=":59993001_2_1" tl="joinedS_0" linkIndex="16" dir="s" state="o"/>
    <connection from="6137245" to="27441168" fromLane="1" toLane="0" via=":59993001_4_0" tl="joinedS_0" linkIndex="17" dir="l" state="o"/>

    <connection from=":301292612_0" to="27441189" fromLane="0" toLane="0" dir="s" state="M"/>
    <connection from=":301292612_0" to="27441189" fromLane="1" toLane="1" dir="s" state="M"/>
    <connection from=":301292612_0" to="27441189" fromLane="2" toLane="2" dir="s" state="M"/>
    <connection from=":301292612_3" to="27441189" fromLane="0" toLane="2" via=":301292612_5_0" dir="s" state="m"/>
    <connection from=":301292612_5" to="27441189" fromLane="0" toLane="2" dir="s" state="M"/>
    <connection from=":301292612_3" to="27441189" fromLane="1" toLane="3" dir="s" state="M"/>
    <connection from=":38919945_0" to="27445000#0" fromLane="0" toLane="0" dir="s" state="M"/>
    <connection from=":38919945_1" to="6137245" fromLane="0" toLane="0" dir="s" state="M"/>
    <connection from=":38919945_1" to="6137245" fromLane="1" toLane="1" dir="s" state="M"/>
    <connection from=":56231397_0" to="27445015#0" fromLane="0" toLane="0" dir="s" state="M"/>
    <connection from=":56231397_1" to="27445003" fromLane="0" toLane="0" dir="s" state="M"/>
    <connection from=":56231397_1" to="27445003" fromLane="1" toLane="1" dir="s" state="M"/>
    <connection from=":56231397_3" to="27445015#0" fromLane="0" toLane="1" dir="s" state="M"/>
    <connection from=":56231397_4" to="27445003" fromLane="0" toLane="1" via=":56231397_5_0" dir="s" state="m"/>
    <connection from=":56231397_5" to="27445003" fromLane="0" toLane="1" dir="s" state="M"/>
    <connection from=":59993001_0" to="27441289.0" fromLane="0" toLane="0" dir="s" state="M"/>
    <connection from=":59993001_1" to="27441168" fromLane="0" toLane="0" dir="s" state="M"/>
    <connection from=":59993001_2" to="27441289.0" fromLane="0" toLane="0" dir="s" state="M"/>
    <connection from=":59993001_2" to="27441289.0" fromLane="1" toLane="1" dir="s" state="M"/>
    <connection from=":59993001_4" to="27441168" fromLane="0" toLane="0" via=":59993001_5_0" dir="s" state="m"/>
    <connection from=":59993001_5" to="27441168" fromLane="0" toLane="0" dir="s" state="M"/>

</net>
