<?xml version="1.0" encoding="UTF-8"?>

<!-- generated on 11.03.2019 14:12:58 by Eclipse SUMO netedit Version v1_1_0+1177-ae4e665b46
-->

<additional xmlns:xsi="http://www.w3.org/2001/XMLSchema-instance" xsi:noNamespaceSchemaLocation="http://sumo.dlr.de/xsd/additional_file.xsd">
    <vaporizer id="gneE3" begin="0.00" end="20.00"/>
</additional>
