<?xml version="1.0" encoding="UTF-8"?>

<!-- generated on 2025-10-07T14:45:02.223460+01:00 by Eclipse SUMO duarouter v1_24_0+1188-3d0de588744
This data file and the accompanying materials
are made available under the terms of the Eclipse Public License v2.0
which accompanies this distribution, and is available at
http://www.eclipse.org/legal/epl-v20.html
This file may also be made available under the following Secondary
Licenses when the conditions for such availability set forth in the Eclipse
Public License 2.0 are satisfied: GNU General Public License, version 2
or later which is available at
https://www.gnu.org/licenses/old-licenses/gpl-2.0-standalone.html
SPDX-License-Identifier: EPL-2.0 OR GPL-2.0-or-later
<duarouterConfiguration xmlns:xsi="http://www.w3.org/2001/XMLSchema-instance" xsi:noNamespaceSchemaLocation="http://sumo.dlr.de/xsd/duarouterConfiguration.xsd">

    <input>
        <net-file value="input_net2.net.xml"/>
        <additional-files value="input_additional.add.xml,input_additional2.add.xml"/>
        <route-files value="input_routes.rou.xml"/>
    </input>

    <output>
        <output-file value="routes.rou.xml"/>
        <write-license value="true"/>
    </output>

    <processing>
        <persontrip.transfer.taxi-walk value="allJunctions"/>
        <persontrip.transfer.walk-taxi value="allJunctions"/>
    </processing>

    <report>
        <xml-validation value="never"/>
        <no-step-log value="true"/>
    </report>

</duarouterConfiguration>
-->

<routes xmlns:xsi="http://www.w3.org/2001/XMLSchema-instance" xsi:noNamespaceSchemaLocation="http://sumo.dlr.de/xsd/routes_file.xsd">
    <person id="p0" depart="0.00">
        <walk edges="accessA A1A0"/>
        <ride from="A1A0" to="B0B1" lines="taxi"/>
    </person>
    <person id="p_mustwalk" depart="10.00">
        <walk edges="accessA A0B0 B0B1"/>
    </person>
</routes>
