<routes>
    <vType id="ped" vClass="pedestrian" speedDev="0.1"/>
    <person id="fwd0" type="ped" depart="1" departPos="0.0">
        <walk edges="EC" arrivalPos="-1.0"/>
    </person>
    <person id="fwd1" type="ped" depart="3" departPos="0.0">
        <walk edges="EC" arrivalPos="-1.0"/>
    </person>
    <person id="fwd2" type="ped" depart="5" departPos="0.0">
        <walk edges="EC" arrivalPos="-1.0"/>
    </person>
    <person id="fwd3" type="ped" depart="6" departPos="0.0">
        <walk edges="EC" arrivalPos="-1.0"/>
    </person>
    <person id="fwd4" type="ped" depart="12" departPos="0.0">
        <walk edges="EC" arrivalPos="-1.0"/>
    </person>
    <person id="fwd5" type="ped" depart="16" departPos="0.0">
        <walk edges="EC" arrivalPos="-1.0"/>
    </person>
    <person id="fwd6" type="ped" depart="19" departPos="0.0">
        <walk edges="EC" arrivalPos="-1.0"/>
    </person>
    <person id="fwd7" type="ped" depart="20" departPos="0.0">
        <walk edges="EC" arrivalPos="-1.0"/>
    </person>
    <person id="fwd8" type="ped" depart="21" departPos="0.0">
        <walk edges="EC" arrivalPos="-1.0"/>
    </person>
    <person id="fwd9" type="ped" depart="22" departPos="0.0">
        <walk edges="EC" arrivalPos="-1.0"/>
    </person>
    <person id="fwd10" type="ped" depart="28" departPos="0.0">
        <walk edges="EC" arrivalPos="-1.0"/>
    </person>
    <person id="fwd11" type="ped" depart="36" departPos="0.0">
        <walk edges="EC" arrivalPos="-1.0"/>
    </person>
    <person id="fwd12" type="ped" depart="37" departPos="0.0">
        <walk edges="EC" arrivalPos="-1.0"/>
    </person>
    <person id="fwd13" type="ped" depart="42" departPos="0.0">
        <walk edges="EC" arrivalPos="-1.0"/>
    </person>
    <person id="fwd14" type="ped" depart="43" departPos="0.0">
        <walk edges="EC" arrivalPos="-1.0"/>
    </person>
    <person id="fwd15" type="ped" depart="49" departPos="0.0">
        <walk edges="EC" arrivalPos="-1.0"/>
    </person>
    <person id="fwd16" type="ped" depart="55" departPos="0.0">
        <walk edges="EC" arrivalPos="-1.0"/>
    </person>
    <person id="fwd17" type="ped" depart="57" departPos="0.0">
        <walk edges="EC" arrivalPos="-1.0"/>
    </person>
    <person id="fwd18" type="ped" depart="59" departPos="0.0">
        <walk edges="EC" arrivalPos="-1.0"/>
    </person>
    <person id="fwd19" type="ped" depart="60" departPos="0.0">
        <walk edges="EC" arrivalPos="-1.0"/>
    </person>
    <person id="fwd20" type="ped" depart="65" departPos="0.0">
        <walk edges="EC" arrivalPos="-1.0"/>
    </person>
    <person id="fwd21" type="ped" depart="66" departPos="0.0">
        <walk edges="EC" arrivalPos="-1.0"/>
    </person>
    <person id="fwd22" type="ped" depart="71" departPos="0.0">
        <walk edges="EC" arrivalPos="-1.0"/>
    </person>
    <person id="fwd23" type="ped" depart="73" departPos="0.0">
        <walk edges="EC" arrivalPos="-1.0"/>
    </person>
    <person id="fwd24" type="ped" depart="81" departPos="0.0">
        <walk edges="EC" arrivalPos="-1.0"/>
    </person>
    <person id="fwd25" type="ped" depart="82" departPos="0.0">
        <walk edges="EC" arrivalPos="-1.0"/>
    </person>
    <person id="fwd26" type="ped" depart="84" departPos="0.0">
        <walk edges="EC" arrivalPos="-1.0"/>
    </person>
    <person id="fwd27" type="ped" depart="93" departPos="0.0">
        <walk edges="EC" arrivalPos="-1.0"/>
    </person>
    <person id="fwd28" type="ped" depart="94" departPos="0.0">
        <walk edges="EC" arrivalPos="-1.0"/>
    </person>
    <person id="fwd29" type="ped" depart="97" departPos="0.0">
        <walk edges="EC" arrivalPos="-1.0"/>
    </person>
    <person id="fwd30" type="ped" depart="101" departPos="0.0">
        <walk edges="EC" arrivalPos="-1.0"/>
    </person>
    <person id="fwd31" type="ped" depart="103" departPos="0.0">
        <walk edges="EC" arrivalPos="-1.0"/>
    </person>
    <person id="fwd32" type="ped" depart="105" departPos="0.0">
        <walk edges="EC" arrivalPos="-1.0"/>
    </person>
    <person id="fwd33" type="ped" depart="107" departPos="0.0">
        <walk edges="EC" arrivalPos="-1.0"/>
    </person>
    <person id="fwd34" type="ped" depart="109" departPos="0.0">
        <walk edges="EC" arrivalPos="-1.0"/>
    </person>
    <person id="fwd35" type="ped" depart="110" departPos="0.0">
        <walk edges="EC" arrivalPos="-1.0"/>
    </person>
    <person id="fwd36" type="ped" depart="111" departPos="0.0">
        <walk edges="EC" arrivalPos="-1.0"/>
    </person>
    <person id="fwd37" type="ped" depart="120" departPos="0.0">
        <walk edges="EC" arrivalPos="-1.0"/>
    </person>
    <person id="fwd38" type="ped" depart="127" departPos="0.0">
        <walk edges="EC" arrivalPos="-1.0"/>
    </person>
    <person id="fwd39" type="ped" depart="130" departPos="0.0">
        <walk edges="EC" arrivalPos="-1.0"/>
    </person>
    <person id="fwd40" type="ped" depart="131" departPos="0.0">
        <walk edges="EC" arrivalPos="-1.0"/>
    </person>
    <person id="fwd41" type="ped" depart="134" departPos="0.0">
        <walk edges="EC" arrivalPos="-1.0"/>
    </person>
    <person id="fwd42" type="ped" depart="135" departPos="0.0">
        <walk edges="EC" arrivalPos="-1.0"/>
    </person>
    <person id="fwd43" type="ped" depart="142" departPos="0.0">
        <walk edges="EC" arrivalPos="-1.0"/>
    </person>
    <person id="fwd44" type="ped" depart="148" departPos="0.0">
        <walk edges="EC" arrivalPos="-1.0"/>
    </person>
    <person id="fwd45" type="ped" depart="151" departPos="0.0">
        <walk edges="EC" arrivalPos="-1.0"/>
    </person>
    <person id="fwd46" type="ped" depart="155" departPos="0.0">
        <walk edges="EC" arrivalPos="-1.0"/>
    </person>
    <person id="fwd47" type="ped" depart="157" departPos="0.0">
        <walk edges="EC" arrivalPos="-1.0"/>
    </person>
    <person id="fwd48" type="ped" depart="158" departPos="0.0">
        <walk edges="EC" arrivalPos="-1.0"/>
    </person>
    <person id="fwd49" type="ped" depart="160" departPos="0.0">
        <walk edges="EC" arrivalPos="-1.0"/>
    </person>
    <person id="fwd50" type="ped" depart="161" departPos="0.0">
        <walk edges="EC" arrivalPos="-1.0"/>
    </person>
    <person id="fwd51" type="ped" depart="162" departPos="0.0">
        <walk edges="EC" arrivalPos="-1.0"/>
    </person>
    <person id="fwd52" type="ped" depart="164" departPos="0.0">
        <walk edges="EC" arrivalPos="-1.0"/>
    </person>
    <person id="fwd53" type="ped" depart="168" departPos="0.0">
        <walk edges="EC" arrivalPos="-1.0"/>
    </person>
    <person id="fwd54" type="ped" depart="170" departPos="0.0">
        <walk edges="EC" arrivalPos="-1.0"/>
    </person>
    <person id="fwd55" type="ped" depart="171" departPos="0.0">
        <walk edges="EC" arrivalPos="-1.0"/>
    </person>
    <person id="fwd56" type="ped" depart="173" departPos="0.0">
        <walk edges="EC" arrivalPos="-1.0"/>
    </person>
    <person id="fwd57" type="ped" depart="175" departPos="0.0">
        <walk edges="EC" arrivalPos="-1.0"/>
    </person>
    <person id="fwd58" type="ped" depart="179" departPos="0.0">
        <walk edges="EC" arrivalPos="-1.0"/>
    </person>
    <person id="fwd59" type="ped" depart="180" departPos="0.0">
        <walk edges="EC" arrivalPos="-1.0"/>
    </person>
    <person id="fwd60" type="ped" depart="187" departPos="0.0">
        <walk edges="EC" arrivalPos="-1.0"/>
    </person>
    <person id="fwd61" type="ped" depart="198" departPos="0.0">
        <walk edges="EC" arrivalPos="-1.0"/>
    </person>
    <person id="fwd62" type="ped" depart="202" departPos="0.0">
        <walk edges="EC" arrivalPos="-1.0"/>
    </person>
    <person id="fwd63" type="ped" depart="208" departPos="0.0">
        <walk edges="EC" arrivalPos="-1.0"/>
    </person>
    <person id="fwd64" type="ped" depart="211" departPos="0.0">
        <walk edges="EC" arrivalPos="-1.0"/>
    </person>
    <person id="fwd65" type="ped" depart="214" departPos="0.0">
        <walk edges="EC" arrivalPos="-1.0"/>
    </person>
    <person id="fwd66" type="ped" depart="216" departPos="0.0">
        <walk edges="EC" arrivalPos="-1.0"/>
    </person>
    <person id="fwd67" type="ped" depart="220" departPos="0.0">
        <walk edges="EC" arrivalPos="-1.0"/>
    </person>
    <person id="fwd68" type="ped" depart="222" departPos="0.0">
        <walk edges="EC" arrivalPos="-1.0"/>
    </person>
    <person id="fwd69" type="ped" depart="226" departPos="0.0">
        <walk edges="EC" arrivalPos="-1.0"/>
    </person>
    <person id="fwd70" type="ped" depart="234" departPos="0.0">
        <walk edges="EC" arrivalPos="-1.0"/>
    </person>
    <person id="fwd71" type="ped" depart="238" departPos="0.0">
        <walk edges="EC" arrivalPos="-1.0"/>
    </person>
    <person id="fwd72" type="ped" depart="239" departPos="0.0">
        <walk edges="EC" arrivalPos="-1.0"/>
    </person>
    <person id="fwd73" type="ped" depart="241" departPos="0.0">
        <walk edges="EC" arrivalPos="-1.0"/>
    </person>
    <person id="fwd74" type="ped" depart="248" departPos="0.0">
        <walk edges="EC" arrivalPos="-1.0"/>
    </person>
    <person id="fwd75" type="ped" depart="251" departPos="0.0">
        <walk edges="EC" arrivalPos="-1.0"/>
    </person>
    <person id="fwd76" type="ped" depart="253" departPos="0.0">
        <walk edges="EC" arrivalPos="-1.0"/>
    </person>
    <person id="fwd77" type="ped" depart="260" departPos="0.0">
        <walk edges="EC" arrivalPos="-1.0"/>
    </person>
    <person id="fwd78" type="ped" depart="261" departPos="0.0">
        <walk edges="EC" arrivalPos="-1.0"/>
    </person>
    <person id="fwd79" type="ped" depart="275" departPos="0.0">
        <walk edges="EC" arrivalPos="-1.0"/>
    </person>
    <person id="fwd80" type="ped" depart="276" departPos="0.0">
        <walk edges="EC" arrivalPos="-1.0"/>
    </person>
    <person id="fwd81" type="ped" depart="278" departPos="0.0">
        <walk edges="EC" arrivalPos="-1.0"/>
    </person>
    <person id="fwd82" type="ped" depart="280" departPos="0.0">
        <walk edges="EC" arrivalPos="-1.0"/>
    </person>
    <person id="fwd83" type="ped" depart="281" departPos="0.0">
        <walk edges="EC" arrivalPos="-1.0"/>
    </person>
    <person id="fwd84" type="ped" depart="290" departPos="0.0">
        <walk edges="EC" arrivalPos="-1.0"/>
    </person>
    <person id="fwd85" type="ped" depart="291" departPos="0.0">
        <walk edges="EC" arrivalPos="-1.0"/>
    </person>
    <person id="fwd86" type="ped" depart="297" departPos="0.0">
        <walk edges="EC" arrivalPos="-1.0"/>
    </person>
    <person id="fwd87" type="ped" depart="303" departPos="0.0">
        <walk edges="EC" arrivalPos="-1.0"/>
    </person>
    <person id="fwd88" type="ped" depart="305" departPos="0.0">
        <walk edges="EC" arrivalPos="-1.0"/>
    </person>
    <person id="fwd89" type="ped" depart="309" departPos="0.0">
        <walk edges="EC" arrivalPos="-1.0"/>
    </person>
    <person id="fwd90" type="ped" depart="311" departPos="0.0">
        <walk edges="EC" arrivalPos="-1.0"/>
    </person>
    <person id="fwd91" type="ped" depart="316" departPos="0.0">
        <walk edges="EC" arrivalPos="-1.0"/>
    </person>
    <person id="fwd92" type="ped" depart="321" departPos="0.0">
        <walk edges="EC" arrivalPos="-1.0"/>
    </person>
    <person id="fwd93" type="ped" depart="322" departPos="0.0">
        <walk edges="EC" arrivalPos="-1.0"/>
    </person>
    <person id="fwd94" type="ped" depart="323" departPos="0.0">
        <walk edges="EC" arrivalPos="-1.0"/>
    </person>
    <person id="fwd95" type="ped" depart="325" departPos="0.0">
        <walk edges="EC" arrivalPos="-1.0"/>
    </person>
    <person id="fwd96" type="ped" depart="329" departPos="0.0">
        <walk edges="EC" arrivalPos="-1.0"/>
    </person>
    <person id="fwd97" type="ped" depart="330" departPos="0.0">
        <walk edges="EC" arrivalPos="-1.0"/>
    </person>
    <person id="fwd98" type="ped" depart="332" departPos="0.0">
        <walk edges="EC" arrivalPos="-1.0"/>
    </person>
    <person id="fwd99" type="ped" depart="334" departPos="0.0">
        <walk edges="EC" arrivalPos="-1.0"/>
    </person>
    <person id="fwd100" type="ped" depart="337" departPos="0.0">
        <walk edges="EC" arrivalPos="-1.0"/>
    </person>
    <person id="fwd101" type="ped" depart="338" departPos="0.0">
        <walk edges="EC" arrivalPos="-1.0"/>
    </person>
    <person id="fwd102" type="ped" depart="345" departPos="0.0">
        <walk edges="EC" arrivalPos="-1.0"/>
    </person>
    <person id="fwd103" type="ped" depart="349" departPos="0.0">
        <walk edges="EC" arrivalPos="-1.0"/>
    </person>
    <person id="fwd104" type="ped" depart="352" departPos="0.0">
        <walk edges="EC" arrivalPos="-1.0"/>
    </person>
    <person id="fwd105" type="ped" depart="358" departPos="0.0">
        <walk edges="EC" arrivalPos="-1.0"/>
    </person>
    <person id="fwd106" type="ped" depart="359" departPos="0.0">
        <walk edges="EC" arrivalPos="-1.0"/>
    </person>
    <person id="fwd107" type="ped" depart="361" departPos="0.0">
        <walk edges="EC" arrivalPos="-1.0"/>
    </person>
    <person id="fwd108" type="ped" depart="373" departPos="0.0">
        <walk edges="EC" arrivalPos="-1.0"/>
    </person>
    <person id="fwd109" type="ped" depart="374" departPos="0.0">
        <walk edges="EC" arrivalPos="-1.0"/>
    </person>
    <person id="fwd110" type="ped" depart="380" departPos="0.0">
        <walk edges="EC" arrivalPos="-1.0"/>
    </person>
    <person id="fwd111" type="ped" depart="386" departPos="0.0">
        <walk edges="EC" arrivalPos="-1.0"/>
    </person>
    <person id="fwd112" type="ped" depart="388" departPos="0.0">
        <walk edges="EC" arrivalPos="-1.0"/>
    </person>
    <person id="fwd113" type="ped" depart="390" departPos="0.0">
        <walk edges="EC" arrivalPos="-1.0"/>
    </person>
    <person id="fwd114" type="ped" depart="391" departPos="0.0">
        <walk edges="EC" arrivalPos="-1.0"/>
    </person>
    <person id="fwd115" type="ped" depart="401" departPos="0.0">
        <walk edges="EC" arrivalPos="-1.0"/>
    </person>
    <person id="fwd116" type="ped" depart="402" departPos="0.0">
        <walk edges="EC" arrivalPos="-1.0"/>
    </person>
    <person id="fwd117" type="ped" depart="403" departPos="0.0">
        <walk edges="EC" arrivalPos="-1.0"/>
    </person>
    <person id="fwd118" type="ped" depart="404" departPos="0.0">
        <walk edges="EC" arrivalPos="-1.0"/>
    </person>
    <person id="fwd119" type="ped" depart="410" departPos="0.0">
        <walk edges="EC" arrivalPos="-1.0"/>
    </person>
    <person id="fwd120" type="ped" depart="416" departPos="0.0">
        <walk edges="EC" arrivalPos="-1.0"/>
    </person>
    <person id="fwd121" type="ped" depart="425" departPos="0.0">
        <walk edges="EC" arrivalPos="-1.0"/>
    </person>
    <person id="fwd122" type="ped" depart="426" departPos="0.0">
        <walk edges="EC" arrivalPos="-1.0"/>
    </person>
    <person id="fwd123" type="ped" depart="434" departPos="0.0">
        <walk edges="EC" arrivalPos="-1.0"/>
    </person>
    <person id="fwd124" type="ped" depart="435" departPos="0.0">
        <walk edges="EC" arrivalPos="-1.0"/>
    </person>
    <person id="fwd125" type="ped" depart="437" departPos="0.0">
        <walk edges="EC" arrivalPos="-1.0"/>
    </person>
    <person id="fwd126" type="ped" depart="440" departPos="0.0">
        <walk edges="EC" arrivalPos="-1.0"/>
    </person>
    <person id="fwd127" type="ped" depart="443" departPos="0.0">
        <walk edges="EC" arrivalPos="-1.0"/>
    </person>
    <person id="fwd128" type="ped" depart="447" departPos="0.0">
        <walk edges="EC" arrivalPos="-1.0"/>
    </person>
    <person id="fwd129" type="ped" depart="454" departPos="0.0">
        <walk edges="EC" arrivalPos="-1.0"/>
    </person>
    <person id="fwd130" type="ped" depart="458" departPos="0.0">
        <walk edges="EC" arrivalPos="-1.0"/>
    </person>
    <person id="fwd131" type="ped" depart="459" departPos="0.0">
        <walk edges="EC" arrivalPos="-1.0"/>
    </person>
    <person id="fwd132" type="ped" depart="464" departPos="0.0">
        <walk edges="EC" arrivalPos="-1.0"/>
    </person>
    <person id="fwd133" type="ped" depart="471" departPos="0.0">
        <walk edges="EC" arrivalPos="-1.0"/>
    </person>
    <person id="fwd134" type="ped" depart="475" departPos="0.0">
        <walk edges="EC" arrivalPos="-1.0"/>
    </person>
    <person id="fwd135" type="ped" depart="477" departPos="0.0">
        <walk edges="EC" arrivalPos="-1.0"/>
    </person>
    <person id="fwd136" type="ped" depart="479" departPos="0.0">
        <walk edges="EC" arrivalPos="-1.0"/>
    </person>
    <person id="fwd137" type="ped" depart="480" departPos="0.0">
        <walk edges="EC" arrivalPos="-1.0"/>
    </person>
    <person id="fwd138" type="ped" depart="484" departPos="0.0">
        <walk edges="EC" arrivalPos="-1.0"/>
    </person>
    <person id="fwd139" type="ped" depart="488" departPos="0.0">
        <walk edges="EC" arrivalPos="-1.0"/>
    </person>
    <person id="fwd140" type="ped" depart="491" departPos="0.0">
        <walk edges="EC" arrivalPos="-1.0"/>
    </person>
    <person id="fwd141" type="ped" depart="494" departPos="0.0">
        <walk edges="EC" arrivalPos="-1.0"/>
    </person>
    <person id="fwd142" type="ped" depart="508" departPos="0.0">
        <walk edges="EC" arrivalPos="-1.0"/>
    </person>
    <person id="fwd143" type="ped" depart="512" departPos="0.0">
        <walk edges="EC" arrivalPos="-1.0"/>
    </person>
    <person id="fwd144" type="ped" depart="520" departPos="0.0">
        <walk edges="EC" arrivalPos="-1.0"/>
    </person>
    <person id="fwd145" type="ped" depart="521" departPos="0.0">
        <walk edges="EC" arrivalPos="-1.0"/>
    </person>
    <person id="fwd146" type="ped" depart="526" departPos="0.0">
        <walk edges="EC" arrivalPos="-1.0"/>
    </person>
    <person id="fwd147" type="ped" depart="531" departPos="0.0">
        <walk edges="EC" arrivalPos="-1.0"/>
    </person>
    <person id="fwd148" type="ped" depart="532" departPos="0.0">
        <walk edges="EC" arrivalPos="-1.0"/>
    </person>
    <person id="fwd149" type="ped" depart="535" departPos="0.0">
        <walk edges="EC" arrivalPos="-1.0"/>
    </person>
    <person id="fwd150" type="ped" depart="536" departPos="0.0">
        <walk edges="EC" arrivalPos="-1.0"/>
    </person>
    <person id="fwd151" type="ped" depart="540" departPos="0.0">
        <walk edges="EC" arrivalPos="-1.0"/>
    </person>
    <person id="fwd152" type="ped" depart="541" departPos="0.0">
        <walk edges="EC" arrivalPos="-1.0"/>
    </person>
    <person id="fwd153" type="ped" depart="543" departPos="0.0">
        <walk edges="EC" arrivalPos="-1.0"/>
    </person>
    <person id="fwd154" type="ped" depart="545" departPos="0.0">
        <walk edges="EC" arrivalPos="-1.0"/>
    </person>
    <person id="fwd155" type="ped" depart="549" departPos="0.0">
        <walk edges="EC" arrivalPos="-1.0"/>
    </person>
    <person id="fwd156" type="ped" depart="555" departPos="0.0">
        <walk edges="EC" arrivalPos="-1.0"/>
    </person>
    <person id="fwd157" type="ped" depart="557" departPos="0.0">
        <walk edges="EC" arrivalPos="-1.0"/>
    </person>
    <person id="fwd158" type="ped" depart="558" departPos="0.0">
        <walk edges="EC" arrivalPos="-1.0"/>
    </person>
    <person id="fwd159" type="ped" depart="560" departPos="0.0">
        <walk edges="EC" arrivalPos="-1.0"/>
    </person>
    <person id="fwd160" type="ped" depart="567" departPos="0.0">
        <walk edges="EC" arrivalPos="-1.0"/>
    </person>
    <person id="fwd161" type="ped" depart="568" departPos="0.0">
        <walk edges="EC" arrivalPos="-1.0"/>
    </person>
    <person id="fwd162" type="ped" depart="571" departPos="0.0">
        <walk edges="EC" arrivalPos="-1.0"/>
    </person>
    <person id="fwd163" type="ped" depart="572" departPos="0.0">
        <walk edges="EC" arrivalPos="-1.0"/>
    </person>
    <person id="fwd164" type="ped" depart="581" departPos="0.0">
        <walk edges="EC" arrivalPos="-1.0"/>
    </person>
    <person id="fwd165" type="ped" depart="589" departPos="0.0">
        <walk edges="EC" arrivalPos="-1.0"/>
    </person>
    <person id="fwd166" type="ped" depart="594" departPos="0.0">
        <walk edges="EC" arrivalPos="-1.0"/>
    </person>
    <person id="fwd167" type="ped" depart="595" departPos="0.0">
        <walk edges="EC" arrivalPos="-1.0"/>
    </person>
    <person id="fwd168" type="ped" depart="599" departPos="0.0">
        <walk edges="EC" arrivalPos="-1.0"/>
    </person>

    <person id="bwd0" type="ped" depart="2" departPos="-1.0">
        <walk edges="EC" arrivalPos="0.0"/>
    </person>
    <person id="bwd1" type="ped" depart="3" departPos="-1.0">
        <walk edges="EC" arrivalPos="0.0"/>
    </person>
    <person id="bwd2" type="ped" depart="10" departPos="-1.0">
        <walk edges="EC" arrivalPos="0.0"/>
    </person>
    <person id="bwd3" type="ped" depart="11" departPos="-1.0">
        <walk edges="EC" arrivalPos="0.0"/>
    </person>
    <person id="bwd4" type="ped" depart="17" departPos="-1.0">
        <walk edges="EC" arrivalPos="0.0"/>
    </person>
    <person id="bwd5" type="ped" depart="20" departPos="-1.0">
        <walk edges="EC" arrivalPos="0.0"/>
    </person>
    <person id="bwd6" type="ped" depart="21" departPos="-1.0">
        <walk edges="EC" arrivalPos="0.0"/>
    </person>
    <person id="bwd7" type="ped" depart="24" departPos="-1.0">
        <walk edges="EC" arrivalPos="0.0"/>
    </person>
    <person id="bwd8" type="ped" depart="26" departPos="-1.0">
        <walk edges="EC" arrivalPos="0.0"/>
    </person>
    <person id="bwd9" type="ped" depart="27" departPos="-1.0">
        <walk edges="EC" arrivalPos="0.0"/>
    </person>
    <person id="bwd10" type="ped" depart="28" departPos="-1.0">
        <walk edges="EC" arrivalPos="0.0"/>
    </person>
    <person id="bwd11" type="ped" depart="34" departPos="-1.0">
        <walk edges="EC" arrivalPos="0.0"/>
    </person>
    <person id="bwd12" type="ped" depart="36" departPos="-1.0">
        <walk edges="EC" arrivalPos="0.0"/>
    </person>
    <person id="bwd13" type="ped" depart="37" departPos="-1.0">
        <walk edges="EC" arrivalPos="0.0"/>
    </person>
    <person id="bwd14" type="ped" depart="38" departPos="-1.0">
        <walk edges="EC" arrivalPos="0.0"/>
    </person>
    <person id="bwd15" type="ped" depart="41" departPos="-1.0">
        <walk edges="EC" arrivalPos="0.0"/>
    </person>
    <person id="bwd16" type="ped" depart="51" departPos="-1.0">
        <walk edges="EC" arrivalPos="0.0"/>
    </person>
    <person id="bwd17" type="ped" depart="60" departPos="-1.0">
        <walk edges="EC" arrivalPos="0.0"/>
    </person>
    <person id="bwd18" type="ped" depart="61" departPos="-1.0">
        <walk edges="EC" arrivalPos="0.0"/>
    </person>
    <person id="bwd19" type="ped" depart="66" departPos="-1.0">
        <walk edges="EC" arrivalPos="0.0"/>
    </person>
    <person id="bwd20" type="ped" depart="68" departPos="-1.0">
        <walk edges="EC" arrivalPos="0.0"/>
    </person>
    <person id="bwd21" type="ped" depart="74" departPos="-1.0">
        <walk edges="EC" arrivalPos="0.0"/>
    </person>
    <person id="bwd22" type="ped" depart="85" departPos="-1.0">
        <walk edges="EC" arrivalPos="0.0"/>
    </person>
    <person id="bwd23" type="ped" depart="101" departPos="-1.0">
        <walk edges="EC" arrivalPos="0.0"/>
    </person>
    <person id="bwd24" type="ped" depart="104" departPos="-1.0">
        <walk edges="EC" arrivalPos="0.0"/>
    </person>
    <person id="bwd25" type="ped" depart="105" departPos="-1.0">
        <walk edges="EC" arrivalPos="0.0"/>
    </person>
    <person id="bwd26" type="ped" depart="110" departPos="-1.0">
        <walk edges="EC" arrivalPos="0.0"/>
    </person>
    <person id="bwd27" type="ped" depart="111" departPos="-1.0">
        <walk edges="EC" arrivalPos="0.0"/>
    </person>
    <person id="bwd28" type="ped" depart="112" departPos="-1.0">
        <walk edges="EC" arrivalPos="0.0"/>
    </person>
    <person id="bwd29" type="ped" depart="116" departPos="-1.0">
        <walk edges="EC" arrivalPos="0.0"/>
    </person>
    <person id="bwd30" type="ped" depart="120" departPos="-1.0">
        <walk edges="EC" arrivalPos="0.0"/>
    </person>
    <person id="bwd31" type="ped" depart="127" departPos="-1.0">
        <walk edges="EC" arrivalPos="0.0"/>
    </person>
    <person id="bwd32" type="ped" depart="128" departPos="-1.0">
        <walk edges="EC" arrivalPos="0.0"/>
    </person>
    <person id="bwd33" type="ped" depart="133" departPos="-1.0">
        <walk edges="EC" arrivalPos="0.0"/>
    </person>
    <person id="bwd34" type="ped" depart="134" departPos="-1.0">
        <walk edges="EC" arrivalPos="0.0"/>
    </person>
    <person id="bwd35" type="ped" depart="136" departPos="-1.0">
        <walk edges="EC" arrivalPos="0.0"/>
    </person>
    <person id="bwd36" type="ped" depart="140" departPos="-1.0">
        <walk edges="EC" arrivalPos="0.0"/>
    </person>
    <person id="bwd37" type="ped" depart="144" departPos="-1.0">
        <walk edges="EC" arrivalPos="0.0"/>
    </person>
    <person id="bwd38" type="ped" depart="151" departPos="-1.0">
        <walk edges="EC" arrivalPos="0.0"/>
    </person>
    <person id="bwd39" type="ped" depart="154" departPos="-1.0">
        <walk edges="EC" arrivalPos="0.0"/>
    </person>
    <person id="bwd40" type="ped" depart="162" departPos="-1.0">
        <walk edges="EC" arrivalPos="0.0"/>
    </person>
    <person id="bwd41" type="ped" depart="169" departPos="-1.0">
        <walk edges="EC" arrivalPos="0.0"/>
    </person>
    <person id="bwd42" type="ped" depart="170" departPos="-1.0">
        <walk edges="EC" arrivalPos="0.0"/>
    </person>
    <person id="bwd43" type="ped" depart="171" departPos="-1.0">
        <walk edges="EC" arrivalPos="0.0"/>
    </person>
    <person id="bwd44" type="ped" depart="173" departPos="-1.0">
        <walk edges="EC" arrivalPos="0.0"/>
    </person>
    <person id="bwd45" type="ped" depart="174" departPos="-1.0">
        <walk edges="EC" arrivalPos="0.0"/>
    </person>
    <person id="bwd46" type="ped" depart="181" departPos="-1.0">
        <walk edges="EC" arrivalPos="0.0"/>
    </person>
    <person id="bwd47" type="ped" depart="183" departPos="-1.0">
        <walk edges="EC" arrivalPos="0.0"/>
    </person>
    <person id="bwd48" type="ped" depart="187" departPos="-1.0">
        <walk edges="EC" arrivalPos="0.0"/>
    </person>
    <person id="bwd49" type="ped" depart="188" departPos="-1.0">
        <walk edges="EC" arrivalPos="0.0"/>
    </person>
    <person id="bwd50" type="ped" depart="192" departPos="-1.0">
        <walk edges="EC" arrivalPos="0.0"/>
    </person>
    <person id="bwd51" type="ped" depart="207" departPos="-1.0">
        <walk edges="EC" arrivalPos="0.0"/>
    </person>
    <person id="bwd52" type="ped" depart="212" departPos="-1.0">
        <walk edges="EC" arrivalPos="0.0"/>
    </person>
    <person id="bwd53" type="ped" depart="213" departPos="-1.0">
        <walk edges="EC" arrivalPos="0.0"/>
    </person>
    <person id="bwd54" type="ped" depart="215" departPos="-1.0">
        <walk edges="EC" arrivalPos="0.0"/>
    </person>
    <person id="bwd55" type="ped" depart="218" departPos="-1.0">
        <walk edges="EC" arrivalPos="0.0"/>
    </person>
    <person id="bwd56" type="ped" depart="222" departPos="-1.0">
        <walk edges="EC" arrivalPos="0.0"/>
    </person>
    <person id="bwd57" type="ped" depart="231" departPos="-1.0">
        <walk edges="EC" arrivalPos="0.0"/>
    </person>
    <person id="bwd58" type="ped" depart="234" departPos="-1.0">
        <walk edges="EC" arrivalPos="0.0"/>
    </person>
    <person id="bwd59" type="ped" depart="240" departPos="-1.0">
        <walk edges="EC" arrivalPos="0.0"/>
    </person>
    <person id="bwd60" type="ped" depart="241" departPos="-1.0">
        <walk edges="EC" arrivalPos="0.0"/>
    </person>
    <person id="bwd61" type="ped" depart="242" departPos="-1.0">
        <walk edges="EC" arrivalPos="0.0"/>
    </person>
    <person id="bwd62" type="ped" depart="243" departPos="-1.0">
        <walk edges="EC" arrivalPos="0.0"/>
    </person>
    <person id="bwd63" type="ped" depart="244" departPos="-1.0">
        <walk edges="EC" arrivalPos="0.0"/>
    </person>
    <person id="bwd64" type="ped" depart="245" departPos="-1.0">
        <walk edges="EC" arrivalPos="0.0"/>
    </person>
    <person id="bwd65" type="ped" depart="249" departPos="-1.0">
        <walk edges="EC" arrivalPos="0.0"/>
    </person>
    <person id="bwd66" type="ped" depart="251" departPos="-1.0">
        <walk edges="EC" arrivalPos="0.0"/>
    </person>
    <person id="bwd67" type="ped" depart="254" departPos="-1.0">
        <walk edges="EC" arrivalPos="0.0"/>
    </person>
    <person id="bwd68" type="ped" depart="255" departPos="-1.0">
        <walk edges="EC" arrivalPos="0.0"/>
    </person>
    <person id="bwd69" type="ped" depart="257" departPos="-1.0">
        <walk edges="EC" arrivalPos="0.0"/>
    </person>
    <person id="bwd70" type="ped" depart="265" departPos="-1.0">
        <walk edges="EC" arrivalPos="0.0"/>
    </person>
    <person id="bwd71" type="ped" depart="268" departPos="-1.0">
        <walk edges="EC" arrivalPos="0.0"/>
    </person>
    <person id="bwd72" type="ped" depart="271" departPos="-1.0">
        <walk edges="EC" arrivalPos="0.0"/>
    </person>
    <person id="bwd73" type="ped" depart="273" departPos="-1.0">
        <walk edges="EC" arrivalPos="0.0"/>
    </person>