<?xml version="1.0" encoding="UTF-8"?>

<!-- generated on 2023-02-14 14:51:43 by Eclipse SUMO netedit Version v1_16_0+0177-c72433bc6bd
-->

<additional xmlns:xsi="http://www.w3.org/2001/XMLSchema-instance" xsi:noNamespaceSchemaLocation="http://sumo.dlr.de/xsd/additional_file.xsd">
    <!-- Other additionals -->
    <variableSpeedSign id="variableSpeedSign_1" lanes="center0_0 center1_0" pos="10.00,10.00" name="2路$$路%路路"/>
    <variableSpeedSign id="variableSpeedSign_2" lanes="center0_0 center1_0" pos="40.00,-10.00" name="customName"/>
</additional>
