<?xml version="1.0" encoding="UTF-8"?>

<!-- generated on 2022-01-18 13:34:17 by Eclipse SUMO netedit Version v1_11_0+1211-1b1dce94384
-->

<additional xmlns:xsi="http://www.w3.org/2001/XMLSchema-instance" xsi:noNamespaceSchemaLocation="http://sumo.dlr.de/xsd/additional_file.xsd">
    <parkingArea id="parkingArea_0" lane="gneE0_0" startPos="5.00" endPos="10.00" width="12.00" length="5.00"/>
    <parkingArea id="parkingArea_1" name="%%%$$$;;;" lane="gneE0_0" startPos="5.00" endPos="10.00" width="12.00" length="5.00"/>
    <parkingArea id="parkingArea_2" name="custom Parking Name" lane="gneE0_0" startPos="5.00" endPos="10.00" width="12.00" length="5.00"/>
</additional>
