<?xml version="1.0" encoding="UTF-8"?>

<!-- generated on 2023-02-14 14:30:34 by Eclipse SUMO netedit Version v1_16_0+0177-c72433bc6bd
-->

<additional xmlns:xsi="http://www.w3.org/2001/XMLSchema-instance" xsi:noNamespaceSchemaLocation="http://sumo.dlr.de/xsd/additional_file.xsd">
    <!-- Other additionals -->
    <rerouter id="rerouter_0" edges="center0 center1" pos="0.00,10.00">
        <interval begin="0.00" end="3600.00">
            <destProbReroute id="center1" probability="1.00"/>
        </interval>
    </rerouter>
</additional>
