<?xml version="1.0" encoding="UTF-8"?>

<!-- generated on 2021-06-18 12:59:09 by Eclipse SUMO netedit Version v1_9_2+0592-89b9203
<configuration xmlns:xsi="http://www.w3.org/2001/XMLSchema-instance" xsi:noNamespaceSchemaLocation="http://sumo.dlr.de/xsd/netconvertConfiguration.xsd">

    <input>
        <sumo-net-file value="net3.net.xml"/>
    </input>

    <output>
        <output-file value="net3.net.xml"/>
    </output>

    <processing>
        <geometry.min-radius.fix.railways value="false"/>
        <geometry.max-grade.fix value="false"/>
        <offset.disable-normalization value="true"/>
        <lefthand value="false"/>
    </processing>

    <junctions>
        <no-internal-links value="false"/>
        <no-turnarounds value="true"/>
        <junctions.corner-detail value="0"/>
        <junctions.limit-turn-speed value="-1"/>
        <rectangular-lane-cut value="false"/>
    </junctions>

    <pedestrian>
        <walkingareas value="false"/>
    </pedestrian>

    <report>
        <aggregate-warnings value="5"/>
    </report>

</configuration>
-->

<net version="1.9" xmlns:xsi="http://www.w3.org/2001/XMLSchema-instance" xsi:noNamespaceSchemaLocation="http://sumo.dlr.de/xsd/net_file.xsd">

    <location netOffset="100.00,100.00" convBoundary="0.00,100.00,200.00,100.00" origBoundary="-10000000000.00,-10000000000.00,10000000000.00,10000000000.00" projParameter="!"/>

    <edge id=":C_0" function="internal">
        <lane id=":C_0_0" index="0" allow="bicycle" speed="13.89" length="3.00" width="1.00" shape="101.50,106.90 98.50,106.90"/>
        <lane id=":C_0_1" index="1" allow="passenger" speed="13.89" length="3.00" shape="101.50,104.80 98.50,104.80"/>
        <lane id=":C_0_2" index="2" allow="passenger" speed="13.89" length="3.00" shape="101.50,101.60 98.50,101.60"/>
    </edge>
    <edge id=":C_3" function="internal">
        <lane id=":C_3_0" index="0" allow="bicycle" speed="13.89" length="3.00" width="1.00" shape="98.50,93.10 101.50,93.10"/>
        <lane id=":C_3_1" index="1" allow="passenger" speed="13.89" length="3.00" shape="98.50,95.20 101.50,95.20"/>
        <lane id=":C_3_2" index="2" allow="passenger" speed="13.89" length="3.00" shape="98.50,98.40 101.50,98.40"/>
    </edge>
    <edge id=":C_c0" function="crossing" crossingEdges="CW WC">
        <lane id=":C_c0_0" index="0" allow="pedestrian" speed="1.00" length="14.80" width="4.00" shape="100.50,107.40 100.50,92.60"/>
    </edge>
    <edge id=":C_w0" function="walkingarea">
        <lane id=":C_w0_0" index="0" allow="pedestrian" speed="1.00" length="2.93" width="4.00" shape="102.50,107.40 98.50,107.40 98.50,108.90 98.50,111.15 101.50,110.40 101.50,108.90"/>
    </edge>
    <edge id=":C_w1" function="walkingarea">
        <lane id=":C_w1_0" index="0" allow="pedestrian" speed="1.00" length="3.38" width="4.00" shape="101.50,91.10 101.50,87.35 98.50,88.10 98.50,91.10 98.50,92.60 102.50,92.60"/>
    </edge>
    <edge id=":E_0" function="internal">
        <lane id=":E_0_0" index="0" allow="passenger" speed="13.89" length="4.67" shape="200.00,98.40 201.20,99.20 201.60,100.00 201.20,100.80 200.00,101.60"/>
    </edge>
    <edge id=":E_w0" function="walkingarea">
        <lane id=":E_w0_0" index="0" allow="pedestrian" speed="1.00" length="20.43" width="3.75" shape="200.00,108.90 200.00,110.40 200.00,87.35 200.00,91.10"/>
    </edge>
    <edge id=":W_0" function="internal">
        <lane id=":W_0_0" index="0" allow="passenger" speed="13.89" length="4.67" shape="0.00,101.60 -1.20,100.80 -1.60,100.00 -1.20,99.20 0.00,98.40"/>
    </edge>
    <edge id=":W_w0" function="walkingarea">
        <lane id=":W_w0_0" index="0" allow="pedestrian" speed="1.00" length="20.43" width="3.00" shape="0.00,91.10 0.00,88.10 0.00,111.15 0.00,108.90"/>
    </edge>

    <edge id="CE" from="C" to="E" priority="3">
        <lane id="CE_0" index="0" allow="pedestrian" speed="13.89" length="98.50" width="3.75" shape="101.50,89.22 200.00,89.22"/>
        <lane id="CE_1" index="1" disallow="all" speed="13.89" length="98.50" width="1.50" shape="101.50,91.85 200.00,91.85"/>
        <lane id="CE_2" index="2" allow="bicycle" speed="13.89" length="98.50" width="1.00" shape="101.50,93.10 200.00,93.10"/>
        <lane id="CE_3" index="3" allow="passenger" speed="13.89" length="98.50" shape="101.50,95.20 200.00,95.20"/>
        <lane id="CE_4" index="4" allow="passenger" speed="13.89" length="98.50" shape="101.50,98.40 200.00,98.40"/>
    </edge>
    <edge id="CW" from="C" to="W" priority="3">
        <lane id="CW_0" index="0" allow="pedestrian" speed="13.89" length="98.50" width="2.25" shape="98.50,110.03 0.00,110.03"/>
        <lane id="CW_1" index="1" disallow="all" speed="13.89" length="98.50" width="1.50" shape="98.50,108.15 0.00,108.15"/>
        <lane id="CW_2" index="2" allow="bicycle" speed="13.89" length="98.50" width="1.00" shape="98.50,106.90 0.00,106.90"/>
        <lane id="CW_3" index="3" allow="passenger" speed="13.89" length="98.50" shape="98.50,104.80 0.00,104.80"/>
        <lane id="CW_4" index="4" allow="passenger" speed="13.89" length="98.50" shape="98.50,101.60 0.00,101.60"/>
    </edge>
    <edge id="EC" from="E" to="C" priority="3">
        <lane id="EC_0" index="0" allow="pedestrian" speed="13.89" length="98.50" width="1.50" shape="200.00,109.65 101.50,109.65"/>
        <lane id="EC_1" index="1" disallow="all" speed="13.89" length="98.50" width="1.50" shape="200.00,108.15 101.50,108.15"/>
        <lane id="EC_2" index="2" allow="bicycle" speed="13.89" length="98.50" width="1.00" shape="200.00,106.90 101.50,106.90"/>
        <lane id="EC_3" index="3" allow="passenger" speed="13.89" length="98.50" shape="200.00,104.80 101.50,104.80"/>
        <lane id="EC_4" index="4" allow="passenger" speed="13.89" length="98.50" shape="200.00,101.60 101.50,101.60"/>
    </edge>
    <edge id="WC" from="W" to="C" priority="3">
        <lane id="WC_0" index="0" allow="pedestrian" speed="13.89" length="98.50" width="3.00" shape="0.00,89.60 98.50,89.60"/>
        <lane id="WC_1" index="1" disallow="all" speed="13.89" length="98.50" width="1.50" shape="0.00,91.85 98.50,91.85"/>
        <lane id="WC_2" index="2" allow="bicycle" speed="13.89" length="98.50" width="1.00" shape="0.00,93.10 98.50,93.10"/>
        <lane id="WC_3" index="3" allow="passenger" speed="13.89" length="98.50" shape="0.00,95.20 98.50,95.20"/>
        <lane id="WC_4" index="4" allow="passenger" speed="13.89" length="98.50" shape="0.00,98.40 98.50,98.40"/>
    </edge>

    <junction id="C" type="priority" x="100.00" y="100.00" incLanes="EC_0 EC_1 EC_2 EC_3 EC_4 WC_0 WC_1 WC_2 WC_3 WC_4 :C_w0_0" intLanes=":C_0_0 :C_0_1 :C_0_2 :C_3_0 :C_3_1 :C_3_2 :C_c0_0" shape="101.50,110.40 101.50,87.35 98.50,88.10 98.50,111.15">
        <request index="0" response="0000000" foes="1000000" cont="0"/>
        <request index="1" response="0000000" foes="1000000" cont="0"/>
        <request index="2" response="0000000" foes="1000000" cont="0"/>
        <request index="3" response="0000000" foes="1000000" cont="0"/>
        <request index="4" response="0000000" foes="1000000" cont="0"/>
        <request index="5" response="0000000" foes="1000000" cont="0"/>
        <request index="6" response="0111111" foes="0111111" cont="0"/>
    </junction>
    <junction id="E" type="priority" x="200.00" y="100.00" incLanes="CE_0 CE_1 CE_2 CE_3 CE_4" intLanes=":E_0_0" shape="200.00,100.00 200.00,87.35 200.00,100.00">
        <request index="0" response="0" foes="0" cont="0"/>
    </junction>
    <junction id="W" type="priority" x="0.00" y="100.00" incLanes="CW_0 CW_1 CW_2 CW_3 CW_4" intLanes=":W_0_0" shape="0.00,100.00 0.00,111.15 0.00,100.00">
        <request index="0" response="0" foes="0" cont="0"/>
    </junction>

    <connection from="CE" to="EC" fromLane="4" toLane="4" via=":E_0_0" dir="t" state="M"/>
    <connection from="CW" to="WC" fromLane="4" toLane="4" via=":W_0_0" dir="t" state="M"/>
    <connection from="EC" to="CW" fromLane="2" toLane="2" via=":C_0_0" dir="s" state="M"/>
    <connection from="EC" to="CW" fromLane="3" toLane="3" via=":C_0_1" dir="s" state="M"/>
    <connection from="EC" to="CW" fromLane="4" toLane="4" via=":C_0_2" dir="s" state="M"/>
    <connection from="WC" to="CE" fromLane="2" toLane="2" via=":C_3_0" dir="s" state="M"/>
    <connection from="WC" to="CE" fromLane="3" toLane="3" via=":C_3_1" dir="s" state="M"/>
    <connection from="WC" to="CE" fromLane="4" toLane="4" via=":C_3_2" dir="s" state="M"/>

    <connection from=":C_0" to="CW" fromLane="0" toLane="2" dir="s" state="M"/>
    <connection from=":C_0" to="CW" fromLane="1" toLane="3" dir="s" state="M"/>
    <connection from=":C_0" to="CW" fromLane="2" toLane="4" dir="s" state="M"/>
    <connection from=":C_3" to="CE" fromLane="0" toLane="2" dir="s" state="M"/>
    <connection from=":C_3" to="CE" fromLane="1" toLane="3" dir="s" state="M"/>
    <connection from=":C_3" to="CE" fromLane="2" toLane="4" dir="s" state="M"/>
    <connection from=":E_0" to="EC" fromLane="0" toLane="4" dir="t" state="M"/>
    <connection from=":W_0" to="WC" fromLane="0" toLane="4" dir="t" state="M"/>

    <connection from=":C_c0" to=":C_w1" fromLane="0" toLane="0" dir="s" state="M"/>
    <connection from=":C_w0" to=":C_c0" fromLane="0" toLane="0" dir="s" state="m"/>
    <connection from=":C_w0" to="CW" fromLane="0" toLane="0" dir="s" state="M"/>
    <connection from="EC" to=":C_w0" fromLane="0" toLane="0" dir="s" state="M"/>
    <connection from=":C_w1" to="CE" fromLane="0" toLane="0" dir="s" state="M"/>
    <connection from="WC" to=":C_w1" fromLane="0" toLane="0" dir="s" state="M"/>
    <connection from=":E_w0" to="EC" fromLane="0" toLane="0" dir="s" state="M"/>
    <connection from="CE" to=":E_w0" fromLane="0" toLane="0" dir="s" state="M"/>
    <connection from=":W_w0" to="WC" fromLane="0" toLane="0" dir="s" state="M"/>
    <connection from="CW" to=":W_w0" fromLane="0" toLane="0" dir="s" state="M"/>
</net>
