<?xml version="1.0" encoding="UTF-8"?>

<!-- generated on 2022-10-04 16:29:36 by Eclipse SUMO netedit Version v1_14_1+1411-dc2522155a5
-->

<routes xmlns:xsi="http://www.w3.org/2001/XMLSchema-instance" xsi:noNamespaceSchemaLocation="http://sumo.dlr.de/xsd/routes_file.xsd">
    <!-- Vehicles, persons and containers (sorted by depart) -->
    <trip id="trip_1" depart="20.00" arrivalPosLat="-12.00" from="gneE2" to="gneE5"/>
    <trip id="trip_2" depart="20.00" arrivalPosLat="0.00" from="gneE2" to="gneE5"/>
    <trip id="trip_3" depart="20.00" arrivalPosLat="500.00" from="gneE2" to="gneE5"/>
    <trip id="trip_4" depart="20.00" arrivalPosLat="1.00" from="gneE2" to="gneE5"/>
    <trip id="trip_5" depart="20.00" arrivalPosLat="left" from="gneE2" to="gneE5"/>
    <trip id="trip_6" depart="20.00" arrivalPosLat="right" from="gneE2" to="gneE5"/>
    <trip id="trip_7" depart="20.00" arrivalPosLat="center" from="gneE2" to="gneE5"/>
</routes>
