<?xml version="1.0" encoding="UTF-8"?>
<routes xmlns:xsi="http://www.w3.org/2001/XMLSchema-instance" xsi:noNamespaceSchemaLocation="http://sumo.sf.net/xsd/routes_file.xsd">

  <vehicle depart="0" id="veh0">
     <route edges="beg middle end rend"/>
  </vehicle>

  <vehicle depart="3" id="veh3">
     <route edges="beg middle end rend"/>
  </vehicle>
</routes>
