<add>
    <route id="c1" edges="beg middle end rend"/>

    <calibrator id="cali_beg" lane="beg_0" pos="100">
        <flow begin="0" end="1" route="c1" vehsPerHour="0"/>
        <flow begin="30" end="50" route="c1" vehsPerHour="0"/>
    </calibrator>

    <calibrator id="cali_middle" lane="middle_0" pos="100">
        <flow begin="0" end="100" route="c1" vehsPerHour="0"/>
    </calibrator>


</add>
