<?xml version="1.0" encoding="UTF-8"?>

<!-- generated on jeu. 02 mai 2019 16:45:04 CEST by Eclipse SUMO netedit Version v1_2_0+0193-5608b1c4fd
<configuration xmlns:xsi="http://www.w3.org/2001/XMLSchema-instance" xsi:noNamespaceSchemaLocation="http://sumo.dlr.de/xsd/netconvertConfiguration.xsd">

    <input>
        <sumo-net-file value="buses.net.xml"/>
    </input>

    <output>
        <output-file value="buses.net.xml"/>
    </output>

    <processing>
        <geometry.max-grade.fix value="false"/>
        <offset.disable-normalization value="true"/>
        <lefthand value="false"/>
    </processing>

    <junctions>
        <no-internal-links value="true"/>
        <no-turnarounds value="true"/>
        <junctions.corner-detail value="5"/>
        <junctions.limit-turn-speed value="5.5"/>
        <rectangular-lane-cut value="false"/>
    </junctions>

    <pedestrian>
        <walkingareas value="false"/>
    </pedestrian>

</configuration>
-->

<net version="1.3" junctionCornerDetail="5" limitTurnSpeed="5.50" xmlns:xsi="http://www.w3.org/2001/XMLSchema-instance" xsi:noNamespaceSchemaLocation="http://sumo.dlr.de/xsd/net_file.xsd">

    <location netOffset="0.00,0.00" convBoundary="0.00,-50.00,150.00,50.00" origBoundary="-10000000000.00,-10000000000.00,10000000000.00,10000000000.00" projParameter="!"/>

    <edge id="1" from="1" to="2" priority="-1">
        <lane id="1_0" index="0" allow="pedestrian" speed="13.89" length="50.00" width="2.00" shape="0.00,-4.20 44.80,-4.20"/>
        <lane id="1_1" index="1" allow="private passenger taxi bus" speed="13.89" length="50.00" shape="0.00,-1.60 44.80,-1.60"/>
    </edge>
    <edge id="2" from="2" to="3" priority="-1">
        <lane id="2_0" index="0" allow="pedestrian" speed="13.89" length="50.00" width="2.00" shape="52.00,-4.20 94.80,-4.20"/>
        <lane id="2_1" index="1" allow="private passenger taxi bus" speed="13.89" length="50.00" shape="52.00,-1.60 94.80,-1.60"/>
    </edge>
    <edge id="3" from="3" to="4" priority="-1">
        <lane id="3_0" index="0" allow="pedestrian" speed="13.89" length="50.00" width="2.00" shape="102.00,-4.20 150.00,-4.20"/>
        <lane id="3_1" index="1" allow="private passenger taxi bus" speed="13.89" length="50.00" shape="102.00,-1.60 150.00,-1.60"/>
    </edge>
    <edge id="gneE0" from="gneJ0" to="2" priority="-1">
        <lane id="gneE0_0" index="0" speed="13.89" length="50.00" shape="48.40,50.00 48.40,2.00"/>
    </edge>
    <edge id="gneE2" from="gneJ2" to="3" priority="-1">
        <lane id="gneE2_0" index="0" speed="13.89" length="50.00" shape="98.40,50.00 98.40,2.00"/>
    </edge>
    <edge id="gneE3" from="3" to="gneJ4" priority="-1">
        <lane id="gneE3_0" index="0" speed="13.89" length="50.00" shape="98.40,-7.20 98.40,-50.00"/>
    </edge>
    <edge id="gneE4" from="2" to="gneJ5" priority="-1">
        <lane id="gneE4_0" index="0" speed="13.89" length="50.00" shape="48.40,-7.20 48.40,-50.00"/>
    </edge>

    <tlLogic id="2" type="static" programID="0" offset="0">
        <phase duration="42" state="GGrr"/>
        <phase duration="3"  state="yyrr"/>
        <phase duration="42" state="rrGG"/>
        <phase duration="3"  state="rryy"/>
    </tlLogic>

    <junction id="1" type="dead_end" x="0.00" y="0.00" incLanes="" intLanes="" shape="0.00,0.00 0.00,-5.20"/>
    <junction id="2" type="traffic_light" x="50.00" y="0.00" incLanes="gneE0_0 1_0 1_1" intLanes="" shape="46.80,2.00 50.00,2.00 50.22,0.89 50.50,0.50 50.89,0.22 51.39,0.06 52.00,0.00 52.00,-5.20 50.89,-5.42 50.50,-5.70 50.22,-6.09 50.06,-6.59 50.00,-7.20 46.80,-7.20 46.58,-6.09 46.30,-5.70 45.91,-5.42 45.41,-5.26 44.80,-5.20 44.80,0.00 45.91,0.22 46.30,0.50 46.58,0.89 46.74,1.39">
        <request index="0" response="1100" foes="1100"/>
        <request index="1" response="1000" foes="1000"/>
        <request index="2" response="0000" foes="0001"/>
        <request index="3" response="0000" foes="0011"/>
    </junction>
    <junction id="3" type="priority" x="100.00" y="0.00" incLanes="gneE2_0 2_0 2_1" intLanes="" shape="96.80,2.00 100.00,2.00 100.22,0.89 100.50,0.50 100.89,0.22 101.39,0.06 102.00,0.00 102.00,-5.20 100.89,-5.42 100.50,-5.70 100.22,-6.09 100.06,-6.59 100.00,-7.20 96.80,-7.20 96.58,-6.09 96.30,-5.70 95.91,-5.42 95.41,-5.26 94.80,-5.20 94.80,0.00 95.91,0.22 96.30,0.50 96.58,0.89 96.74,1.39">
        <request index="0" response="1100" foes="1100"/>
        <request index="1" response="1000" foes="1000"/>
        <request index="2" response="0000" foes="0001"/>
        <request index="3" response="0000" foes="0011"/>
    </junction>
    <junction id="4" type="dead_end" x="150.00" y="0.00" incLanes="3_0 3_1" intLanes="" shape="150.00,-5.20 150.00,0.00"/>
    <junction id="gneJ0" type="dead_end" x="50.00" y="50.00" incLanes="" intLanes="" shape="50.00,50.00 46.80,50.00"/>
    <junction id="gneJ2" type="dead_end" x="100.00" y="50.00" incLanes="" intLanes="" shape="100.00,50.00 96.80,50.00"/>
    <junction id="gneJ4" type="dead_end" x="100.00" y="-50.00" incLanes="gneE3_0" intLanes="" shape="96.80,-50.00 100.00,-50.00"/>
    <junction id="gneJ5" type="dead_end" x="50.00" y="-50.00" incLanes="gneE4_0" intLanes="" shape="46.80,-50.00 50.00,-50.00"/>

    <connection from="1" to="gneE4" fromLane="1" toLane="0" tl="2" linkIndex="2" dir="r" state="O"/>
    <connection from="1" to="2" fromLane="1" toLane="1" tl="2" linkIndex="3" dir="s" state="O"/>
    <connection from="2" to="gneE3" fromLane="1" toLane="0" dir="r" state="M"/>
    <connection from="2" to="3" fromLane="1" toLane="1" dir="s" state="M"/>
    <connection from="gneE0" to="gneE4" fromLane="0" toLane="0" tl="2" linkIndex="0" dir="s" state="o"/>
    <connection from="gneE0" to="2" fromLane="0" toLane="1" tl="2" linkIndex="1" dir="l" state="o"/>
    <connection from="gneE2" to="gneE3" fromLane="0" toLane="0" dir="s" state="m"/>
    <connection from="gneE2" to="3" fromLane="0" toLane="1" dir="l" state="m"/>

</net>
