<?xml version="1.0" encoding="UTF-8"?>

<!-- generated on Mon Feb 17 15:30:52 2020 by Eclipse SUMO netconvert Version v1_5_0+0130-ceb0a01
This data file and the accompanying materials
are made available under the terms of the Eclipse Public License v2.0
which accompanies this distribution, and is available at
http://www.eclipse.org/legal/epl-v20.html
SPDX-License-Identifier: EPL-2.0
<configuration xmlns:xsi="http://www.w3.org/2001/XMLSchema-instance" xsi:noNamespaceSchemaLocation="http://sumo.dlr.de/xsd/netconvertConfiguration.xsd">

    <input>
        <node-files value="input_nodes.nod.xml"/>
        <edge-files value="input_edges.edg.xml"/>
        <tllogic-files value="input_plain.tll.xml"/>
    </input>

    <output>
        <write-license value="true"/>
        <output-file value="net.net.xml"/>
    </output>

    <junctions>
        <no-turnarounds value="true"/>
    </junctions>

    <report>
        <xml-validation value="never"/>
        <aggregate-warnings value="5"/>
    </report>

</configuration>
-->

<net version="1.6" junctionCornerDetail="5" limitTurnSpeed="5.50" xmlns:xsi="http://www.w3.org/2001/XMLSchema-instance" xsi:noNamespaceSchemaLocation="http://sumo.dlr.de/xsd/net_file.xsd">

    <location netOffset="200.00,200.00" convBoundary="0.00,0.00,400.00,400.00" origBoundary="-200.00,-200.00,200.00,200.00" projParameter="!"/>

    <edge id=":0_0" function="internal">
        <lane id=":0_0_0" index="0" speed="7.33" length="11.73" shape="209.81,208.72 205.94,208.79 203.12,209.65 201.35,211.27 200.63,213.68"/>
    </edge>
    <edge id=":0_1" function="internal">
        <lane id=":0_1_0" index="0" speed="13.89" length="21.09" shape="210.03,205.52 203.10,204.53 197.71,203.05 193.35,201.63 189.51,200.86"/>
    </edge>
    <edge id=":0_2" function="internal">
        <lane id=":0_2_0" index="0" speed="9.84" length="21.99" shape="210.26,202.33 205.09,201.01 201.55,197.90 199.64,193.01 199.37,186.32"/>
    </edge>
    <edge id=":0_3" function="internal">
        <lane id=":0_3_0" index="0" speed="8.10" length="14.57" shape="205.75,186.77 205.73,192.04 206.51,195.85 208.10,198.22 210.49,199.14"/>
    </edge>
    <edge id=":0_4" function="internal">
        <lane id=":0_4_0" index="0" speed="13.89" length="27.41" shape="205.75,186.77 204.70,194.48 203.06,202.10 201.48,208.77 200.63,213.68"/>
    </edge>
    <edge id=":0_5" function="internal">
        <lane id=":0_5_0" index="0" speed="9.84" length="21.99" shape="202.56,186.55 201.34,193.13 198.76,197.71 194.82,200.28 189.51,200.86"/>
    </edge>
    <edge id=":0_6" function="internal">
        <lane id=":0_6_0" index="0" speed="7.33" length="11.73" shape="190.19,191.28 194.06,191.21 196.88,190.35 198.65,188.73 199.37,186.32"/>
    </edge>
    <edge id=":0_7" function="internal">
        <lane id=":0_7_0" index="0" speed="13.89" length="21.09" shape="189.97,194.48 196.90,195.47 202.29,196.95 206.65,198.37 210.49,199.14"/>
    </edge>
    <edge id=":0_8" function="internal">
        <lane id=":0_8_0" index="0" speed="9.84" length="21.99" shape="189.74,197.67 194.91,198.99 198.45,202.10 200.36,206.99 200.63,213.68"/>
    </edge>
    <edge id=":0_9" function="internal">
        <lane id=":0_9_0" index="0" speed="8.10" length="14.57" shape="194.25,213.23 194.27,207.96 193.49,204.15 191.90,201.78 189.51,200.86"/>
    </edge>
    <edge id=":0_10" function="internal">
        <lane id=":0_10_0" index="0" speed="13.89" length="27.41" shape="194.25,213.23 195.30,205.52 196.94,197.90 198.52,191.23 199.37,186.32"/>
    </edge>
    <edge id=":0_11" function="internal">
        <lane id=":0_11_0" index="0" speed="9.84" length="21.99" shape="197.44,213.45 198.66,206.87 201.24,202.29 205.18,199.72 210.49,199.14"/>
    </edge>
    <edge id=":m1_0" function="internal">
        <lane id=":m1_0_0" index="0" speed="13.89" length="8.00" shape="53.88,191.23 45.90,190.66"/>
    </edge>
    <edge id=":m1_1" function="internal">
        <lane id=":m1_1_0" index="0" speed="13.89" length="9.22" shape="46.12,187.47 48.83,186.66 50.29,184.56 51.78,182.46 54.56,181.65"/>
        <lane id=":m1_1_1" index="1" speed="13.89" length="9.22" shape="46.12,187.47 48.61,187.15 50.23,186.16 51.84,185.17 54.33,184.85"/>
        <lane id=":m1_1_2" index="2" speed="13.89" length="9.22" shape="46.12,187.47 54.10,188.04"/>
    </edge>
    <edge id=":m2_0" function="internal">
        <lane id=":m2_0_0" index="0" speed="13.89" length="9.22" shape="353.88,212.53 351.17,213.34 349.71,215.44 348.22,217.54 345.44,218.35"/>
        <lane id=":m2_0_1" index="1" speed="13.89" length="9.22" shape="353.88,212.53 351.39,212.85 349.77,213.84 348.16,214.83 345.67,215.15"/>
        <lane id=":m2_0_2" index="2" speed="13.89" length="9.22" shape="353.88,212.53 345.90,211.96"/>
    </edge>
    <edge id=":m2_3" function="internal">
        <lane id=":m2_3_0" index="0" speed="13.89" length="8.00" shape="346.12,208.77 354.10,209.34"/>
    </edge>
    <edge id=":m3_0" function="internal">
        <lane id=":m3_0_0" index="0" speed="13.89" length="8.40" shape="212.53,46.12 212.85,48.61 213.84,50.23 214.83,51.84 215.15,54.33"/>
        <lane id=":m3_0_1" index="1" speed="13.89" length="8.40" shape="212.53,46.12 211.96,54.10"/>
    </edge>
    <edge id=":m3_2" function="internal">
        <lane id=":m3_2_0" index="0" speed="13.89" length="8.00" shape="208.77,53.88 209.34,45.90"/>
    </edge>
    <edge id=":m4_0" function="internal">
        <lane id=":m4_0_0" index="0" speed="13.89" length="8.00" shape="191.23,346.12 190.66,354.10"/>
    </edge>
    <edge id=":m4_1" function="internal">
        <lane id=":m4_1_0" index="0" speed="13.89" length="8.40" shape="187.47,353.88 187.15,351.39 186.16,349.77 185.17,348.16 184.85,345.67"/>
        <lane id=":m4_1_1" index="1" speed="13.89" length="8.40" shape="187.47,353.88 188.04,345.90"/>
    </edge>

    <edge id="1fi" from="1" to="m1" priority="46">
        <lane id="1fi_0" index="0" speed="13.89" length="46.13" shape="0.11,184.20 46.12,187.47"/>
    </edge>
    <edge id="1fo" from="m1" to="1" priority="46">
        <lane id="1fo_0" index="0" speed="13.89" length="46.13" shape="45.90,190.66 -0.11,187.40"/>
    </edge>
    <edge id="1o" from="0" to="m1" priority="46">
        <lane id="1o_0" index="0" speed="13.89" length="135.98" shape="189.51,200.86 53.88,191.23"/>
    </edge>
    <edge id="1si" from="m1" to="0" priority="74">
        <lane id="1si_0" index="0" speed="13.89" length="135.98" shape="54.56,181.65 190.19,191.28"/>
        <lane id="1si_1" index="1" speed="13.89" length="135.98" shape="54.33,184.85 189.97,194.48"/>
        <lane id="1si_2" index="2" speed="13.89" length="135.98" shape="54.10,188.04 189.74,197.67"/>
    </edge>
    <edge id="2fi" from="2" to="m2" priority="46">
        <lane id="2fi_0" index="0" speed="13.89" length="46.13" shape="399.89,215.80 353.88,212.53"/>
    </edge>
    <edge id="2fo" from="m2" to="2" priority="46">
        <lane id="2fo_0" index="0" speed="13.89" length="46.13" shape="354.10,209.34 400.11,212.60"/>
    </edge>
    <edge id="2o" from="0" to="m2" priority="46">
        <lane id="2o_0" index="0" speed="13.89" length="135.98" shape="210.49,199.14 346.12,208.77"/>
    </edge>
    <edge id="2si" from="m2" to="0" priority="74">
        <lane id="2si_0" index="0" speed="13.89" length="135.98" shape="345.44,218.35 209.81,208.72"/>
        <lane id="2si_1" index="1" speed="13.89" length="135.98" shape="345.67,215.15 210.03,205.52"/>
        <lane id="2si_2" index="2" speed="13.89" length="135.98" shape="345.90,211.96 210.26,202.33"/>
    </edge>
    <edge id="3fi" from="3" to="m3" priority="46">
        <lane id="3fi_0" index="0" speed="13.89" length="46.13" shape="215.80,0.11 212.53,46.12"/>
    </edge>
    <edge id="3fo" from="m3" to="3" priority="46">
        <lane id="3fo_0" index="0" speed="13.89" length="46.13" shape="209.34,45.90 212.60,-0.11"/>
    </edge>
    <edge id="3o" from="0" to="m3" priority="46">
        <lane id="3o_0" index="0" speed="13.89" length="132.78" shape="199.37,186.32 208.77,53.88"/>
    </edge>
    <edge id="3si" from="m3" to="0" priority="74">
        <lane id="3si_0" index="0" speed="13.89" length="132.78" shape="215.15,54.33 205.75,186.77"/>
        <lane id="3si_1" index="1" speed="13.89" length="132.78" shape="211.96,54.10 202.56,186.55"/>
    </edge>
    <edge id="4fi" from="4" to="m4" priority="46">
        <lane id="4fi_0" index="0" speed="13.89" length="46.13" shape="184.20,399.89 187.47,353.88"/>
    </edge>
    <edge id="4fo" from="m4" to="4" priority="46">
        <lane id="4fo_0" index="0" speed="13.89" length="46.13" shape="190.66,354.10 187.40,400.11"/>
    </edge>
    <edge id="4o" from="0" to="m4" priority="46">
        <lane id="4o_0" index="0" speed="13.89" length="132.78" shape="200.63,213.68 191.23,346.12"/>
    </edge>
    <edge id="4si" from="m4" to="0" priority="74">
        <lane id="4si_0" index="0" speed="13.89" length="132.78" shape="184.85,345.67 194.25,213.23"/>
        <lane id="4si_1" index="1" speed="13.89" length="132.78" shape="188.04,345.90 197.44,213.45"/>
    </edge>

    <tlLogic id="0" type="static" programID="0" offset="0">
        <phase duration="3"  state="rryrrrrryrrr"/>
        <phase duration="3"  state="rrrrrrrrrrrr"/>
        <phase duration="10000" state="rrrGGrrrrGGr"/>
    </tlLogic>
    <tlLogic id="0" type="static" programID="1" offset="0">
        <phase duration="3"  state="rrryyrrrryyr"/>
        <phase duration="3"  state="rrrrrrrrrrrr"/>
        <phase duration="10000" state="rrrrrGrrrrrG"/>
    </tlLogic>
    <tlLogic id="0" type="static" programID="2" offset="0">
        <phase duration="3"  state="rrrrryrrrrry"/>
        <phase duration="3"  state="rrrrrrrrrrrr"/>
        <phase duration="10000" state="GGrrrrGGrrrr"/>
    </tlLogic>
    <tlLogic id="0" type="static" programID="3" offset="0">
        <phase duration="3"  state="yyrrrryyrrrr"/>
        <phase duration="3"  state="rrrrrrrrrrrr"/>
        <phase duration="10000" state="rrGrrrrrGrrr"/>
    </tlLogic>

    <junction id="0" type="traffic_light" x="200.00" y="200.00" incLanes="2si_0 2si_1 2si_2 3si_0 3si_1 1si_0 1si_1 1si_2 4si_0 4si_1" intLanes=":0_0_0 :0_1_0 :0_2_0 :0_3_0 :0_4_0 :0_5_0 :0_6_0 :0_7_0 :0_8_0 :0_9_0 :0_10_0 :0_11_0" shape="209.69,210.31 210.60,197.54 208.47,196.23 207.79,194.74 207.38,192.68 207.23,190.07 207.35,186.89 197.77,186.21 196.82,188.37 195.76,189.07 194.33,189.53 192.51,189.73 190.31,189.69 189.40,202.46 191.53,203.77 192.21,205.26 192.62,207.32 192.77,209.93 192.65,213.11 202.23,213.79 203.18,211.63 204.24,210.93 205.67,210.47 207.49,210.27">
        <request index="0"  response="000000000000" foes="000100010000" cont="0"/>
        <request index="1"  response="000000000000" foes="111100110000" cont="0"/>
        <request index="2"  response="000011000000" foes="110011110000" cont="0"/>
        <request index="3"  response="000010000000" foes="100010000000" cont="0"/>
        <request index="4"  response="000110000111" foes="100110000111" cont="0"/>
        <request index="5"  response="011110000110" foes="011110000110" cont="0"/>
        <request index="6"  response="000000000000" foes="010000000100" cont="0"/>
        <request index="7"  response="000000000000" foes="110000111100" cont="0"/>
        <request index="8"  response="000000000011" foes="110000110011" cont="0"/>
        <request index="9"  response="000000000010" foes="000000100010" cont="0"/>
        <request index="10" response="000111000110" foes="000111100110" cont="0"/>
        <request index="11" response="000110011110" foes="000110011110" cont="0"/>
    </junction>
    <junction id="1" type="dead_end" x="0.00" y="185.80" incLanes="1fo_0" intLanes="" shape="-0.00,185.80 -0.23,188.99 -0.00,185.80"/>
    <junction id="2" type="dead_end" x="400.00" y="214.20" incLanes="2fo_0" intLanes="" shape="400.00,214.20 400.23,211.01 400.00,214.20"/>
    <junction id="3" type="dead_end" x="214.20" y="0.00" incLanes="3fo_0" intLanes="" shape="214.20,-0.00 211.01,-0.23 214.20,-0.00"/>
    <junction id="4" type="dead_end" x="185.80" y="400.00" incLanes="4fo_0" intLanes="" shape="185.80,400.00 188.99,400.23 185.80,400.00"/>
    <junction id="m1" type="priority" x="50.00" y="189.35" incLanes="1o_0 1fi_0" intLanes=":m1_0_0 :m1_1_0 :m1_1_1 :m1_1_2" shape="53.76,192.83 54.67,180.06 52.63,180.39 51.35,181.48 49.56,184.45 48.28,185.54 46.24,185.87 45.78,192.26">
        <request index="0" response="0000" foes="0000" cont="0"/>
        <request index="1" response="0000" foes="0000" cont="0"/>
        <request index="2" response="0000" foes="0000" cont="0"/>
        <request index="3" response="0000" foes="0000" cont="0"/>
    </junction>
    <junction id="m2" type="priority" x="350.00" y="210.65" incLanes="2fi_0 2o_0" intLanes=":m2_0_0 :m2_0_1 :m2_0_2 :m2_3_0" shape="353.76,214.13 354.22,207.74 346.24,207.17 345.33,219.94 347.37,219.61 348.65,218.52 350.44,215.55 351.72,214.46">
        <request index="0" response="0000" foes="0000" cont="0"/>
        <request index="1" response="0000" foes="0000" cont="0"/>
        <request index="2" response="0000" foes="0000" cont="0"/>
        <request index="3" response="0000" foes="0000" cont="0"/>
    </junction>
    <junction id="m3" type="priority" x="210.65" y="50.00" incLanes="3fi_0 3o_0" intLanes=":m3_0_0 :m3_0_1 :m3_2_0" shape="214.13,46.24 207.74,45.78 207.17,53.76 216.75,54.44 216.14,51.36 214.74,49.32 214.23,48.04">
        <request index="0" response="000" foes="000" cont="0"/>
        <request index="1" response="000" foes="000" cont="0"/>
        <request index="2" response="000" foes="000" cont="0"/>
    </junction>
    <junction id="m4" type="priority" x="189.35" y="350.00" incLanes="4o_0 4fi_0" intLanes=":m4_0_0 :m4_1_0 :m4_1_1" shape="192.83,346.24 183.25,345.56 183.86,348.64 185.26,350.68 185.77,351.96 185.87,353.76 192.26,354.22">
        <request index="0" response="000" foes="000" cont="0"/>
        <request index="1" response="000" foes="000" cont="0"/>
        <request index="2" response="000" foes="000" cont="0"/>
    </junction>

    <connection from="1fi" to="1si" fromLane="0" toLane="0" via=":m1_1_0" dir="s" state="M"/>
    <connection from="1fi" to="1si" fromLane="0" toLane="1" via=":m1_1_1" dir="s" state="M"/>
    <connection from="1fi" to="1si" fromLane="0" toLane="2" via=":m1_1_2" dir="s" state="M"/>
    <connection from="1o" to="1fo" fromLane="0" toLane="0" via=":m1_0_0" dir="s" state="M"/>
    <connection from="1si" to="3o" fromLane="0" toLane="0" via=":0_6_0" tl="0" linkIndex="6" dir="r" state="O"/>
    <connection from="1si" to="2o" fromLane="1" toLane="0" via=":0_7_0" tl="0" linkIndex="7" dir="s" state="O"/>
    <connection from="1si" to="4o" fromLane="2" toLane="0" via=":0_8_0" tl="0" linkIndex="8" dir="l" state="o"/>
    <connection from="2fi" to="2si" fromLane="0" toLane="0" via=":m2_0_0" dir="s" state="M"/>
    <connection from="2fi" to="2si" fromLane="0" toLane="1" via=":m2_0_1" dir="s" state="M"/>
    <connection from="2fi" to="2si" fromLane="0" toLane="2" via=":m2_0_2" dir="s" state="M"/>
    <connection from="2o" to="2fo" fromLane="0" toLane="0" via=":m2_3_0" dir="s" state="M"/>
    <connection from="2si" to="4o" fromLane="0" toLane="0" via=":0_0_0" tl="0" linkIndex="0" dir="r" state="O"/>
    <connection from="2si" to="1o" fromLane="1" toLane="0" via=":0_1_0" tl="0" linkIndex="1" dir="s" state="O"/>
    <connection from="2si" to="3o" fromLane="2" toLane="0" via=":0_2_0" tl="0" linkIndex="2" dir="l" state="o"/>
    <connection from="3fi" to="3si" fromLane="0" toLane="0" via=":m3_0_0" dir="s" state="M"/>
    <connection from="3fi" to="3si" fromLane="0" toLane="1" via=":m3_0_1" dir="s" state="M"/>
    <connection from="3o" to="3fo" fromLane="0" toLane="0" via=":m3_2_0" dir="s" state="M"/>
    <connection from="3si" to="2o" fromLane="0" toLane="0" via=":0_3_0" tl="0" linkIndex="3" dir="r" state="o"/>
    <connection from="3si" to="4o" fromLane="0" toLane="0" via=":0_4_0" tl="0" linkIndex="4" dir="s" state="o"/>
    <connection from="3si" to="1o" fromLane="1" toLane="0" via=":0_5_0" tl="0" linkIndex="5" dir="l" state="o"/>
    <connection from="4fi" to="4si" fromLane="0" toLane="0" via=":m4_1_0" dir="s" state="M"/>
    <connection from="4fi" to="4si" fromLane="0" toLane="1" via=":m4_1_1" dir="s" state="M"/>
    <connection from="4o" to="4fo" fromLane="0" toLane="0" via=":m4_0_0" dir="s" state="M"/>
    <connection from="4si" to="1o" fromLane="0" toLane="0" via=":0_9_0" tl="0" linkIndex="9" dir="r" state="o"/>
    <connection from="4si" to="3o" fromLane="0" toLane="0" via=":0_10_0" tl="0" linkIndex="10" dir="s" state="o"/>
    <connection from="4si" to="2o" fromLane="1" toLane="0" via=":0_11_0" tl="0" linkIndex="11" dir="l" state="o"/>

    <connection from=":0_0" to="4o" fromLane="0" toLane="0" dir="r" state="M"/>
    <connection from=":0_1" to="1o" fromLane="0" toLane="0" dir="s" state="M"/>
    <connection from=":0_2" to="3o" fromLane="0" toLane="0" dir="l" state="M"/>
    <connection from=":0_3" to="2o" fromLane="0" toLane="0" dir="r" state="M"/>
    <connection from=":0_4" to="4o" fromLane="0" toLane="0" dir="s" state="M"/>
    <connection from=":0_5" to="1o" fromLane="0" toLane="0" dir="l" state="M"/>
    <connection from=":0_6" to="3o" fromLane="0" toLane="0" dir="r" state="M"/>
    <connection from=":0_7" to="2o" fromLane="0" toLane="0" dir="s" state="M"/>
    <connection from=":0_8" to="4o" fromLane="0" toLane="0" dir="l" state="M"/>
    <connection from=":0_9" to="1o" fromLane="0" toLane="0" dir="r" state="M"/>
    <connection from=":0_10" to="3o" fromLane="0" toLane="0" dir="s" state="M"/>
    <connection from=":0_11" to="2o" fromLane="0" toLane="0" dir="l" state="M"/>
    <connection from=":m1_0" to="1fo" fromLane="0" toLane="0" dir="s" state="M"/>
    <connection from=":m1_1" to="1si" fromLane="0" toLane="0" dir="s" state="M"/>
    <connection from=":m1_1" to="1si" fromLane="1" toLane="1" dir="s" state="M"/>
    <connection from=":m1_1" to="1si" fromLane="2" toLane="2" dir="s" state="M"/>
    <connection from=":m2_0" to="2si" fromLane="0" toLane="0" dir="s" state="M"/>
    <connection from=":m2_0" to="2si" fromLane="1" toLane="1" dir="s" state="M"/>
    <connection from=":m2_0" to="2si" fromLane="2" toLane="2" dir="s" state="M"/>
    <connection from=":m2_3" to="2fo" fromLane="0" toLane="0" dir="s" state="M"/>
    <connection from=":m3_0" to="3si" fromLane="0" toLane="0" dir="s" state="M"/>
    <connection from=":m3_0" to="3si" fromLane="1" toLane="1" dir="s" state="M"/>
    <connection from=":m3_2" to="3fo" fromLane="0" toLane="0" dir="s" state="M"/>
    <connection from=":m4_0" to="4fo" fromLane="0" toLane="0" dir="s" state="M"/>
    <connection from=":m4_1" to="4si" fromLane="0" toLane="0" dir="s" state="M"/>
    <connection from=":m4_1" to="4si" fromLane="1" toLane="1" dir="s" state="M"/>

</net>
