<?xml version="1.0" encoding="UTF-8"?>

<!-- generated on Thu Apr 12 00:04:29 2018 by SUMO netconvert Version c8481b0
This data file and the accompanying materials
are made available under the terms of the Eclipse Public License v2.0
which accompanies this distribution, and is available at
http://www.eclipse.org/legal/epl-v20.html
SPDX-License-Identifier: EPL-2.0
<configuration xmlns:xsi="http://www.w3.org/2001/XMLSchema-instance" xsi:noNamespaceSchemaLocation="http://sumo.dlr.de/xsd/netconvertConfiguration.xsd">

    <input>
        <node-files value="input_nodes.nod.xml"/>
        <edge-files value="input_edges.edg.xml"/>
        <tllogic-files value="input_plain.tll.xml"/>
    </input>

    <output>
        <write-license value="true"/>
        <output-file value="net.net.xml"/>
    </output>

    <processing>
        <no-turnarounds value="true"/>
    </processing>

    <report>
        <xml-validation value="never"/>
    </report>

</configuration>
-->

<net version="0.27" xmlns:xsi="http://www.w3.org/2001/XMLSchema-instance" xsi:noNamespaceSchemaLocation="http://sumo.dlr.de/xsd/net_file.xsd">

    <location netOffset="200.00,200.00" convBoundary="0.00,0.00,400.00,400.00" origBoundary="-200.00,-200.00,200.00,200.00" projParameter="!"/>

    <edge id=":0_0" function="internal">
        <lane id=":0_0_0" index="0" speed="13.89" length="7.76" shape="207.31,208.54 204.55,208.54 202.55,208.98 201.30,209.86 200.81,211.19"/>
    </edge>
    <edge id=":0_1" function="internal">
        <lane id=":0_1_0" index="0" speed="13.89" length="16.19" shape="207.54,205.35 202.42,204.48 198.63,203.11 195.41,201.78 192.01,201.04"/>
    </edge>
    <edge id=":0_2" function="internal">
        <lane id=":0_2_0" index="0" speed="13.89" length="17.98" shape="207.77,202.16 203.68,201.07 200.88,198.48 199.39,194.40 199.19,188.81"/>
    </edge>
    <edge id=":0_3" function="internal">
        <lane id=":0_3_0" index="0" speed="13.89" length="10.69" shape="205.57,189.27 205.47,193.43 205.84,196.43 206.68,198.28 207.99,198.96"/>
    </edge>
    <edge id=":0_4" function="internal">
        <lane id=":0_4_0" index="0" speed="13.89" length="22.47" shape="205.57,189.27 204.58,196.20 203.06,202.10 201.60,207.06 200.81,211.19"/>
    </edge>
    <edge id=":0_5" function="internal">
        <lane id=":0_5_0" index="0" speed="13.89" length="17.98" shape="202.38,189.04 201.40,194.54 199.34,198.37 196.21,200.54 192.01,201.04"/>
    </edge>
    <edge id=":0_6" function="internal">
        <lane id=":0_6_0" index="0" speed="13.89" length="7.76" shape="192.69,191.46 195.45,191.46 197.45,191.02 198.70,190.14 199.19,188.81"/>
    </edge>
    <edge id=":0_7" function="internal">
        <lane id=":0_7_0" index="0" speed="13.89" length="16.19" shape="192.46,194.65 197.58,195.52 201.37,196.89 204.59,198.22 207.99,198.96"/>
    </edge>
    <edge id=":0_8" function="internal">
        <lane id=":0_8_0" index="0" speed="13.89" length="17.98" shape="192.23,197.84 196.32,198.93 199.12,201.52 200.61,205.60 200.81,211.19"/>
    </edge>
    <edge id=":0_9" function="internal">
        <lane id=":0_9_0" index="0" speed="13.89" length="10.69" shape="194.43,210.73 194.53,206.57 194.16,203.57 193.32,201.72 192.01,201.04"/>
    </edge>
    <edge id=":0_10" function="internal">
        <lane id=":0_10_0" index="0" speed="13.89" length="22.47" shape="194.43,210.73 195.42,203.80 196.94,197.90 198.40,192.94 199.19,188.81"/>
    </edge>
    <edge id=":0_11" function="internal">
        <lane id=":0_11_0" index="0" speed="13.89" length="17.98" shape="197.62,210.96 198.60,205.46 200.66,201.63 203.79,199.46 207.99,198.96"/>
    </edge>
    <edge id=":m1_0" function="internal">
        <lane id=":m1_0_0" index="0" speed="13.89" length="3.00" shape="51.38,191.05 48.39,190.84"/>
    </edge>
    <edge id=":m1_1" function="internal">
        <lane id=":m1_1_0" index="0" speed="13.89" length="4.82" shape="48.62,187.65 52.06,181.48"/>
        <lane id=":m1_1_1" index="1" speed="13.89" length="4.82" shape="48.62,187.65 51.84,184.67"/>
        <lane id=":m1_1_2" index="2" speed="13.89" length="4.82" shape="48.62,187.65 51.61,187.86"/>
    </edge>
    <edge id=":m2_0" function="internal">
        <lane id=":m2_0_0" index="0" speed="13.89" length="4.82" shape="351.38,212.35 347.94,218.52"/>
        <lane id=":m2_0_1" index="1" speed="13.89" length="4.82" shape="351.38,212.35 348.16,215.33"/>
        <lane id=":m2_0_2" index="2" speed="13.89" length="4.82" shape="351.38,212.35 348.39,212.14"/>
    </edge>
    <edge id=":m2_3" function="internal">
        <lane id=":m2_3_0" index="0" speed="13.89" length="3.00" shape="348.62,208.95 351.61,209.16"/>
    </edge>
    <edge id=":m3_0" function="internal">
        <lane id=":m3_0_0" index="0" speed="13.89" length="3.69" shape="212.35,48.62 215.33,51.84"/>
        <lane id=":m3_0_1" index="1" speed="13.89" length="3.69" shape="212.35,48.62 212.14,51.61"/>
    </edge>
    <edge id=":m3_2" function="internal">
        <lane id=":m3_2_0" index="0" speed="13.89" length="3.00" shape="208.95,51.38 209.16,48.39"/>
    </edge>
    <edge id=":m4_0" function="internal">
        <lane id=":m4_0_0" index="0" speed="13.89" length="3.00" shape="191.05,348.62 190.84,351.61"/>
    </edge>
    <edge id=":m4_1" function="internal">
        <lane id=":m4_1_0" index="0" speed="13.89" length="3.69" shape="187.65,351.38 184.67,348.16"/>
        <lane id=":m4_1_1" index="1" speed="13.89" length="3.69" shape="187.65,351.38 187.86,348.39"/>
    </edge>

    <edge id="1fi" from="1" to="m1" priority="46">
        <lane id="1fi_0" index="0" speed="13.89" length="48.63" shape="0.11,184.20 48.62,187.65"/>
    </edge>
    <edge id="1fo" from="m1" to="1" priority="46">
        <lane id="1fo_0" index="0" speed="13.89" length="48.63" shape="48.39,190.84 -0.11,187.40"/>
    </edge>
    <edge id="1o" from="0" to="m1" priority="46">
        <lane id="1o_0" index="0" speed="13.89" length="140.98" shape="192.01,201.04 51.38,191.05"/>
    </edge>
    <edge id="1si" from="m1" to="0" priority="74">
        <lane id="1si_0" index="0" speed="13.89" length="140.98" shape="52.06,181.48 192.69,191.46"/>
        <lane id="1si_1" index="1" speed="13.89" length="140.98" shape="51.84,184.67 192.46,194.65"/>
        <lane id="1si_2" index="2" speed="13.89" length="140.98" shape="51.61,187.86 192.23,197.84"/>
    </edge>
    <edge id="2fi" from="2" to="m2" priority="46">
        <lane id="2fi_0" index="0" speed="13.89" length="48.63" shape="399.89,215.80 351.38,212.35"/>
    </edge>
    <edge id="2fo" from="m2" to="2" priority="46">
        <lane id="2fo_0" index="0" speed="13.89" length="48.63" shape="351.61,209.16 400.11,212.60"/>
    </edge>
    <edge id="2o" from="0" to="m2" priority="46">
        <lane id="2o_0" index="0" speed="13.89" length="140.98" shape="207.99,198.96 348.62,208.95"/>
    </edge>
    <edge id="2si" from="m2" to="0" priority="74">
        <lane id="2si_0" index="0" speed="13.89" length="140.98" shape="347.94,218.52 207.31,208.54"/>
        <lane id="2si_1" index="1" speed="13.89" length="140.98" shape="348.16,215.33 207.54,205.35"/>
        <lane id="2si_2" index="2" speed="13.89" length="140.98" shape="348.39,212.14 207.77,202.16"/>
    </edge>
    <edge id="3fi" from="3" to="m3" priority="46">
        <lane id="3fi_0" index="0" speed="13.89" length="48.63" shape="215.80,0.11 212.35,48.62"/>
    </edge>
    <edge id="3fo" from="m3" to="3" priority="46">
        <lane id="3fo_0" index="0" speed="13.89" length="48.63" shape="209.16,48.39 212.60,-0.11"/>
    </edge>
    <edge id="3o" from="0" to="m3" priority="46">
        <lane id="3o_0" index="0" speed="13.89" length="137.78" shape="199.19,188.81 208.95,51.38"/>
    </edge>
    <edge id="3si" from="m3" to="0" priority="74">
        <lane id="3si_0" index="0" speed="13.89" length="137.78" shape="215.33,51.84 205.57,189.27"/>
        <lane id="3si_1" index="1" speed="13.89" length="137.78" shape="212.14,51.61 202.38,189.04"/>
    </edge>
    <edge id="4fi" from="4" to="m4" priority="46">
        <lane id="4fi_0" index="0" speed="13.89" length="48.63" shape="184.20,399.89 187.65,351.38"/>
    </edge>
    <edge id="4fo" from="m4" to="4" priority="46">
        <lane id="4fo_0" index="0" speed="13.89" length="48.63" shape="190.84,351.61 187.40,400.11"/>
    </edge>
    <edge id="4o" from="0" to="m4" priority="46">
        <lane id="4o_0" index="0" speed="13.89" length="137.78" shape="200.81,211.19 191.05,348.62"/>
    </edge>
    <edge id="4si" from="m4" to="0" priority="74">
        <lane id="4si_0" index="0" speed="13.89" length="137.78" shape="184.67,348.16 194.43,210.73"/>
        <lane id="4si_1" index="1" speed="13.89" length="137.78" shape="187.86,348.39 197.62,210.96"/>
    </edge>

    <tlLogic id="0" type="static" programID="0" offset="0">
        <phase duration="3"  state="rryrrrrryrrr"/>
        <phase duration="3"  state="rrrrrrrrrrrr"/>
        <phase duration="10000" state="rrrGGrrrrGGr"/>
    </tlLogic>
    <tlLogic id="0" type="static" programID="1" offset="0">
        <phase duration="3"  state="rrryyrrrryyr"/>
        <phase duration="3"  state="rrrrrrrrrrrr"/>
        <phase duration="10000" state="rrrrrGrrrrrG"/>
    </tlLogic>
    <tlLogic id="0" type="static" programID="2" offset="0">
        <phase duration="3"  state="rrrrryrrrrry"/>
        <phase duration="3"  state="rrrrrrrrrrrr"/>
        <phase duration="10000" state="GGrrrrGGrrrr"/>
    </tlLogic>
    <tlLogic id="0" type="static" programID="3" offset="0">
        <phase duration="3"  state="yyrrrryyrrrr"/>
        <phase duration="3"  state="rrrrrrrrrrrr"/>
        <phase duration="10000" state="rrGrrrrrGrrr"/>
    </tlLogic>

    <junction id="0" type="traffic_light" x="200.00" y="200.00" incLanes="2si_0 2si_1 2si_2 3si_0 3si_1 1si_0 1si_1 1si_2 4si_0 4si_1" intLanes=":0_0_0 :0_1_0 :0_2_0 :0_3_0 :0_4_0 :0_5_0 :0_6_0 :0_7_0 :0_8_0 :0_9_0 :0_10_0 :0_11_0" shape="207.20,210.14 208.11,197.37 207.17,189.38 197.59,188.70 192.80,189.86 191.89,202.63 192.83,210.62 202.41,211.30">
        <request index="0"  response="000000000000" foes="000100010000" cont="0"/>
        <request index="1"  response="000000000000" foes="111100110000" cont="0"/>
        <request index="2"  response="000011000000" foes="110011110000" cont="0"/>
        <request index="3"  response="000010000000" foes="100010000000" cont="0"/>
        <request index="4"  response="000110000111" foes="100110000111" cont="0"/>
        <request index="5"  response="011110000110" foes="011110000110" cont="0"/>
        <request index="6"  response="000000000000" foes="010000000100" cont="0"/>
        <request index="7"  response="000000000000" foes="110000111100" cont="0"/>
        <request index="8"  response="000000000011" foes="110000110011" cont="0"/>
        <request index="9"  response="000000000010" foes="000000100010" cont="0"/>
        <request index="10" response="000111000110" foes="000111100110" cont="0"/>
        <request index="11" response="000110011110" foes="000110011110" cont="0"/>
    </junction>
    <junction id="1" type="dead_end" x="0.00" y="185.80" incLanes="1fo_0" intLanes="" shape="-0.00,185.80 -0.23,188.99 -0.00,185.80"/>
    <junction id="2" type="dead_end" x="400.00" y="214.20" incLanes="2fo_0" intLanes="" shape="400.00,214.20 400.23,211.01 400.00,214.20"/>
    <junction id="3" type="dead_end" x="214.20" y="0.00" incLanes="3fo_0" intLanes="" shape="214.20,-0.00 211.01,-0.23 214.20,-0.00"/>
    <junction id="4" type="dead_end" x="185.80" y="400.00" incLanes="4fo_0" intLanes="" shape="185.80,400.00 188.99,400.23 185.80,400.00"/>
    <junction id="m1" type="priority" x="50.00" y="189.35" incLanes="1o_0 1fi_0" intLanes=":m1_0_0 :m1_1_0 :m1_1_1 :m1_1_2" shape="51.27,192.65 52.18,179.88 48.73,186.05 48.28,192.44">
        <request index="0" response="0000" foes="0000" cont="0"/>
        <request index="1" response="0000" foes="0000" cont="0"/>
        <request index="2" response="0000" foes="0000" cont="0"/>
        <request index="3" response="0000" foes="0000" cont="0"/>
    </junction>
    <junction id="m2" type="priority" x="350.00" y="210.65" incLanes="2fi_0 2o_0" intLanes=":m2_0_0 :m2_0_1 :m2_0_2 :m2_3_0" shape="351.27,213.95 351.72,207.56 348.73,207.35 347.82,220.12">
        <request index="0" response="0000" foes="0000" cont="0"/>
        <request index="1" response="0000" foes="0000" cont="0"/>
        <request index="2" response="0000" foes="0000" cont="0"/>
        <request index="3" response="0000" foes="0000" cont="0"/>
    </junction>
    <junction id="m3" type="priority" x="210.65" y="50.00" incLanes="3fi_0 3o_0" intLanes=":m3_0_0 :m3_0_1 :m3_2_0" shape="213.95,48.73 207.56,48.28 207.35,51.27 216.93,51.95">
        <request index="0" response="000" foes="000" cont="0"/>
        <request index="1" response="000" foes="000" cont="0"/>
        <request index="2" response="000" foes="000" cont="0"/>
    </junction>
    <junction id="m4" type="priority" x="189.35" y="350.00" incLanes="4o_0 4fi_0" intLanes=":m4_0_0 :m4_1_0 :m4_1_1" shape="192.65,348.73 183.07,348.05 186.05,351.27 192.44,351.72">
        <request index="0" response="000" foes="000" cont="0"/>
        <request index="1" response="000" foes="000" cont="0"/>
        <request index="2" response="000" foes="000" cont="0"/>
    </junction>

    <connection from="1fi" to="1si" fromLane="0" toLane="0" via=":m1_1_0" dir="s" state="M"/>
    <connection from="1fi" to="1si" fromLane="0" toLane="1" via=":m1_1_1" dir="s" state="M"/>
    <connection from="1fi" to="1si" fromLane="0" toLane="2" via=":m1_1_2" dir="s" state="M"/>
    <connection from="1o" to="1fo" fromLane="0" toLane="0" via=":m1_0_0" dir="s" state="M"/>
    <connection from="1si" to="3o" fromLane="0" toLane="0" via=":0_6_0" tl="0" linkIndex="6" dir="r" state="O"/>
    <connection from="1si" to="2o" fromLane="1" toLane="0" via=":0_7_0" tl="0" linkIndex="7" dir="s" state="O"/>
    <connection from="1si" to="4o" fromLane="2" toLane="0" via=":0_8_0" tl="0" linkIndex="8" dir="l" state="o"/>
    <connection from="2fi" to="2si" fromLane="0" toLane="0" via=":m2_0_0" dir="s" state="M"/>
    <connection from="2fi" to="2si" fromLane="0" toLane="1" via=":m2_0_1" dir="s" state="M"/>
    <connection from="2fi" to="2si" fromLane="0" toLane="2" via=":m2_0_2" dir="s" state="M"/>
    <connection from="2o" to="2fo" fromLane="0" toLane="0" via=":m2_3_0" dir="s" state="M"/>
    <connection from="2si" to="4o" fromLane="0" toLane="0" via=":0_0_0" tl="0" linkIndex="0" dir="r" state="O"/>
    <connection from="2si" to="1o" fromLane="1" toLane="0" via=":0_1_0" tl="0" linkIndex="1" dir="s" state="O"/>
    <connection from="2si" to="3o" fromLane="2" toLane="0" via=":0_2_0" tl="0" linkIndex="2" dir="l" state="o"/>
    <connection from="3fi" to="3si" fromLane="0" toLane="0" via=":m3_0_0" dir="s" state="M"/>
    <connection from="3fi" to="3si" fromLane="0" toLane="1" via=":m3_0_1" dir="s" state="M"/>
    <connection from="3o" to="3fo" fromLane="0" toLane="0" via=":m3_2_0" dir="s" state="M"/>
    <connection from="3si" to="2o" fromLane="0" toLane="0" via=":0_3_0" tl="0" linkIndex="3" dir="r" state="o"/>
    <connection from="3si" to="4o" fromLane="0" toLane="0" via=":0_4_0" tl="0" linkIndex="4" dir="s" state="o"/>
    <connection from="3si" to="1o" fromLane="1" toLane="0" via=":0_5_0" tl="0" linkIndex="5" dir="l" state="o"/>
    <connection from="4fi" to="4si" fromLane="0" toLane="0" via=":m4_1_0" dir="s" state="M"/>
    <connection from="4fi" to="4si" fromLane="0" toLane="1" via=":m4_1_1" dir="s" state="M"/>
    <connection from="4o" to="4fo" fromLane="0" toLane="0" via=":m4_0_0" dir="s" state="M"/>
    <connection from="4si" to="1o" fromLane="0" toLane="0" via=":0_9_0" tl="0" linkIndex="9" dir="r" state="o"/>
    <connection from="4si" to="3o" fromLane="0" toLane="0" via=":0_10_0" tl="0" linkIndex="10" dir="s" state="o"/>
    <connection from="4si" to="2o" fromLane="1" toLane="0" via=":0_11_0" tl="0" linkIndex="11" dir="l" state="o"/>

    <connection from=":0_0" to="4o" fromLane="0" toLane="0" dir="r" state="M"/>
    <connection from=":0_1" to="1o" fromLane="0" toLane="0" dir="s" state="M"/>
    <connection from=":0_2" to="3o" fromLane="0" toLane="0" dir="l" state="M"/>
    <connection from=":0_3" to="2o" fromLane="0" toLane="0" dir="r" state="M"/>
    <connection from=":0_4" to="4o" fromLane="0" toLane="0" dir="s" state="M"/>
    <connection from=":0_5" to="1o" fromLane="0" toLane="0" dir="l" state="M"/>
    <connection from=":0_6" to="3o" fromLane="0" toLane="0" dir="r" state="M"/>
    <connection from=":0_7" to="2o" fromLane="0" toLane="0" dir="s" state="M"/>
    <connection from=":0_8" to="4o" fromLane="0" toLane="0" dir="l" state="M"/>
    <connection from=":0_9" to="1o" fromLane="0" toLane="0" dir="r" state="M"/>
    <connection from=":0_10" to="3o" fromLane="0" toLane="0" dir="s" state="M"/>
    <connection from=":0_11" to="2o" fromLane="0" toLane="0" dir="l" state="M"/>
    <connection from=":m1_0" to="1fo" fromLane="0" toLane="0" dir="s" state="M"/>
    <connection from=":m1_1" to="1si" fromLane="0" toLane="0" dir="s" state="M"/>
    <connection from=":m1_1" to="1si" fromLane="1" toLane="1" dir="s" state="M"/>
    <connection from=":m1_1" to="1si" fromLane="2" toLane="2" dir="s" state="M"/>
    <connection from=":m2_0" to="2si" fromLane="0" toLane="0" dir="s" state="M"/>
    <connection from=":m2_0" to="2si" fromLane="1" toLane="1" dir="s" state="M"/>
    <connection from=":m2_0" to="2si" fromLane="2" toLane="2" dir="s" state="M"/>
    <connection from=":m2_3" to="2fo" fromLane="0" toLane="0" dir="s" state="M"/>
    <connection from=":m3_0" to="3si" fromLane="0" toLane="0" dir="s" state="M"/>
    <connection from=":m3_0" to="3si" fromLane="1" toLane="1" dir="s" state="M"/>
    <connection from=":m3_2" to="3fo" fromLane="0" toLane="0" dir="s" state="M"/>
    <connection from=":m4_0" to="4fo" fromLane="0" toLane="0" dir="s" state="M"/>
    <connection from=":m4_1" to="4si" fromLane="0" toLane="0" dir="s" state="M"/>
    <connection from=":m4_1" to="4si" fromLane="1" toLane="1" dir="s" state="M"/>

</net>
