<routes xmlns:xsi="http://www.w3.org/2001/XMLSchema-instance" xsi:noNamespaceSchemaLocation="http://sumo-sim.org/xsd/routes_file.xsd">
    <vType sigma="0" id="debug"/>
    <vehicle id="glitch" departPos="0" depart="0" departSpeed="max" arrivalSpeed="current">
        <route edges="beg end"/>
    </vehicle>
</routes>
