<routes>
    <route id="r0" edges="beg end2"/>
    <route id="r1" edges="beg2 end2"/>

    <vType id="t0" sigma="0.5" accel="1" decel="1" impatience="1.0" maxSpeed="8"/>
    <vType id="t1" sigma="0.5" accel="1" decel="4" impatience="1.0"/>

    <vehicle id="v0" route="r0" type="t0" depart="0" departPos="-40" departSpeed="max"/>
    <vehicle id="v1" route="r1" type="t1" depart="0" departPos="-336" departSpeed="max"/>
</routes>
