<?xml version="1.0" encoding="UTF-8"?>

<!-- generated on 2025-03-14 12:29:56.924492 by gtfs2pt.py v1_22_0+0845-59555b53774
<configuration>
    <merged-csv value="data.csv"/>
    <modes value="bus"/>
    <vtype-output value="vehtypes.xml"/>
    <network value="net.net.xml"/>
    <stops value="input_stops.xml"/>
</configuration>
-->

<additional xmlns:xsi="http://www.w3.org/2001/XMLSchema-instance" xsi:noNamespaceSchemaLocation="http://sumo.dlr.de/xsd/additional_file.xsd">
    <busStop id="t1.0" lane="beg_0" startPos="10.00" endPos="20.00" friendlyPos="true" name="stopname1"/>
    <busStop id="t1.1" lane="middle_2" startPos="100.00" endPos="110.00" friendlyPos="true" name="stopname2"/>
    <busStop id="t1.2" lane="end_0" startPos="80.00" endPos="90.00" friendlyPos="true" name="stopname3"/>
</additional>
