<?xml version="1.0" encoding="UTF-8"?>

<!-- generated on Fri Sep 21 08:29:19 2018 by Eclipse SUMO netconvert Version v1_0_1+0040-3be8b73
<configuration xmlns:xsi="http://www.w3.org/2001/XMLSchema-instance" xsi:noNamespaceSchemaLocation="http://sumo.dlr.de/xsd/netconvertConfiguration.xsd">

    <input>
        <sumo-net-file value="net2.net.xml"/>
    </input>

    <output>
        <output-file value="net2b.net.xml"/>
    </output>

    <processing>
        <offset.disable-normalization value="true"/>
        <lefthand value="false"/>
    </processing>

    <building_defaults>
        <default.junctions.radius value="1.5"/>
    </building_defaults>

    <junctions>
        <no-turnarounds value="true"/>
        <junctions.corner-detail value="0"/>
        <junctions.limit-turn-speed value="-1"/>
        <rectangular-lane-cut value="false"/>
    </junctions>

    <pedestrian>
        <walkingareas value="false"/>
    </pedestrian>

</configuration>
-->

<net version="1.0" xmlns:xsi="http://www.w3.org/2001/XMLSchema-instance" xsi:noNamespaceSchemaLocation="http://sumo.dlr.de/xsd/net_file.xsd">

    <location netOffset="0.00,0.00" convBoundary="0.00,0.00,400.00,100.00" origBoundary="-10000000000.00,-10000000000.00,10000000000.00,10000000000.00" projParameter="!"/>

    <edge id=":C_0" function="internal">
        <lane id=":C_0_0" index="0" speed="13.89" length="5.00" shape="48.40,4.70 48.21,3.34 47.62,2.37 46.66,1.79 45.30,1.60"/>
    </edge>
    <edge id=":C_1" function="internal">
        <lane id=":C_1_0" index="0" speed="13.89" length="10.16" shape="48.40,4.70 48.79,1.94 49.97,-0.03 51.94,-1.21 54.70,-1.60"/>
    </edge>
    <edge id=":C_2" function="internal">
        <lane id=":C_2_0" index="0" speed="13.89" length="5.00" shape="54.70,1.60 53.34,1.79 52.38,2.37 51.79,3.34 51.60,4.70"/>
    </edge>
    <edge id=":C_3" function="internal">
        <lane id=":C_3_0" index="0" speed="13.89" length="9.40" shape="54.70,1.60 45.30,1.60">
            <neigh lane=":C_4_0"/>
        </lane>
    </edge>
    <edge id=":C_4" function="internal">
        <lane id=":C_4_0" index="0" speed="13.89" length="9.40" shape="45.30,-1.60 54.70,-1.60">
            <neigh lane=":C_3_0"/>
        </lane>
    </edge>
    <edge id=":C_5" function="internal">
        <lane id=":C_5_0" index="0" speed="13.89" length="5.08" shape="45.30,-1.60 48.06,-1.21 50.03,-0.03"/>
    </edge>
    <edge id=":C_6" function="internal">
        <lane id=":C_6_0" index="0" speed="13.89" length="5.08" shape="50.03,-0.03 51.21,1.94 51.60,4.70"/>
    </edge>
    <edge id=":E_0" function="internal">
        <lane id=":E_0_0" index="0" speed="13.89" length="5.00" shape="198.40,4.70 198.21,3.34 197.62,2.37 196.66,1.79 195.30,1.60"/>
    </edge>
    <edge id=":E_1" function="internal">
        <lane id=":E_1_0" index="0" speed="13.89" length="4.82" shape="198.40,4.70 198.59,1.94 199.18,-0.03"/>
    </edge>
    <edge id=":E_3" function="internal">
        <lane id=":E_3_0" index="0" speed="13.89" length="2.94" shape="199.18,-0.03 200.14,-1.21 201.50,-1.60"/>
    </edge>
    <edge id=":E_2" function="internal">
        <lane id=":E_2_0" index="0" speed="13.89" length="6.20" shape="195.30,-1.60 201.50,-1.60"/>
    </edge>

    <edge id="-VODUGES_beg" from="C" to="W" priority="1">
        <lane id="-VODUGES_beg_0" index="0" speed="13.89" length="45.30" shape="45.30,1.60 0.00,1.60">
            <neigh lane="VODUGES_beg_0"/>
        </lane>
    </edge>
    <edge id="-VODUGES_end" from="E" to="C" priority="1">
        <lane id="-VODUGES_end_0" index="0" speed="13.89" length="140.60" shape="195.30,1.60 54.70,1.60">
            <neigh lane="VODUGES_end_0"/>
        </lane>
    </edge>
    <edge id="CN" from="C" to="N" priority="0">
        <lane id="CN_0" index="0" speed="13.89" length="95.30" shape="51.60,4.70 51.60,100.00">
            <neigh lane="NC_0"/>
        </lane>
    </edge>
    <edge id="N2E" from="N2" to="E" priority="1">
        <lane id="N2E_0" index="0" speed="13.89" length="95.30" shape="198.40,100.00 198.40,4.70"/>
    </edge>
    <edge id="NC" from="N" to="C" priority="0">
        <lane id="NC_0" index="0" speed="13.89" length="95.30" shape="48.40,100.00 48.40,4.70">
            <neigh lane="CN_0"/>
        </lane>
    </edge>
    <edge id="VODUGES_beg" from="W" to="C" priority="1">
        <lane id="VODUGES_beg_0" index="0" speed="13.89" length="45.30" shape="0.00,-1.60 45.30,-1.60">
            <neigh lane="-VODUGES_beg_0"/>
        </lane>
    </edge>
    <edge id="VODUGES_end" from="C" to="E" priority="1">
        <lane id="VODUGES_end_0" index="0" speed="13.89" length="140.60" shape="54.70,-1.60 195.30,-1.60">
            <neigh lane="-VODUGES_end_0"/>
        </lane>
    </edge>
    <edge id="end2" from="E" to="E2" priority="1">
        <lane id="end2_0" index="0" speed="13.89" length="198.50" shape="201.50,-1.60 400.00,-1.60"/>
    </edge>

    <junction id="C" type="priority" x="50.00" y="0.00" incLanes="NC_0 -VODUGES_end_0 VODUGES_beg_0" intLanes=":C_0_0 :C_1_0 :C_2_0 :C_3_0 :C_4_0 :C_6_0" shape="46.80,4.70 53.20,4.70 54.70,3.20 54.70,-3.20 45.30,-3.20 45.30,3.20" radius="1.50">
        <request index="0" response="001000" foes="001000" cont="0"/>
        <request index="1" response="111000" foes="111000" cont="0"/>
        <request index="2" response="000000" foes="100000" cont="0"/>
        <request index="3" response="000000" foes="100011" cont="0"/>
        <request index="4" response="000000" foes="000010" cont="0"/>
        <request index="5" response="001100" foes="001110" cont="1"/>
    </junction>
    <junction id="E" type="priority" x="200.00" y="0.00" incLanes="N2E_0 VODUGES_end_0" intLanes=":E_0_0 :E_3_0 :E_2_0" shape="196.80,4.70 200.00,4.70 201.50,0.00 201.50,-3.20 195.30,-3.20 195.30,3.20" radius="1.50">
        <request index="0" response="000" foes="000" cont="0"/>
        <request index="1" response="100" foes="100" cont="1"/>
        <request index="2" response="000" foes="010" cont="0"/>
    </junction>
    <junction id="E2" type="dead_end" x="400.00" y="0.00" incLanes="end2_0" intLanes="" shape="400.00,-3.20 400.00,0.00"/>
    <junction id="N" type="dead_end" x="50.00" y="100.00" incLanes="CN_0" intLanes="" shape="50.00,100.00 53.20,100.00 50.00,100.00"/>
    <junction id="N2" type="dead_end" x="200.00" y="100.00" incLanes="" intLanes="" shape="200.00,100.00 196.80,100.00"/>
    <junction id="W" type="dead_end" x="0.00" y="0.00" incLanes="-VODUGES_beg_0" intLanes="" shape="0.00,0.00 0.00,3.20 0.00,0.00"/>

    <junction id=":C_6_0" type="internal" x="50.03" y="-0.03" incLanes=":C_5_0 -VODUGES_end_0" intLanes=":C_1_0 :C_2_0 :C_3_0"/>
    <junction id=":E_3_0" type="internal" x="199.18" y="-0.03" incLanes=":E_1_0 VODUGES_end_0" intLanes=":E_2_0"/>

    <connection from="-VODUGES_end" to="CN" fromLane="0" toLane="0" via=":C_2_0" dir="r" state="M"/>
    <connection from="-VODUGES_end" to="-VODUGES_beg" fromLane="0" toLane="0" via=":C_3_0" dir="s" state="M"/>
    <connection from="N2E" to="-VODUGES_end" fromLane="0" toLane="0" via=":E_0_0" dir="r" state="M"/>
    <connection from="N2E" to="end2" fromLane="0" toLane="0" via=":E_1_0" dir="l" state="m"/>
    <connection from="NC" to="-VODUGES_beg" fromLane="0" toLane="0" via=":C_0_0" dir="r" state="m"/>
    <connection from="NC" to="VODUGES_end" fromLane="0" toLane="0" via=":C_1_0" dir="l" state="m"/>
    <connection from="VODUGES_beg" to="VODUGES_end" fromLane="0" toLane="0" via=":C_4_0" dir="s" state="M"/>
    <connection from="VODUGES_beg" to="CN" fromLane="0" toLane="0" via=":C_5_0" dir="l" state="m"/>
    <connection from="VODUGES_end" to="end2" fromLane="0" toLane="0" via=":E_2_0" dir="s" state="M"/>

    <connection from=":C_0" to="-VODUGES_beg" fromLane="0" toLane="0" dir="r" state="M"/>
    <connection from=":C_1" to="VODUGES_end" fromLane="0" toLane="0" dir="l" state="M"/>
    <connection from=":C_2" to="CN" fromLane="0" toLane="0" dir="r" state="M"/>
    <connection from=":C_3" to="-VODUGES_beg" fromLane="0" toLane="0" dir="s" state="M"/>
    <connection from=":C_4" to="VODUGES_end" fromLane="0" toLane="0" dir="s" state="M"/>
    <connection from=":C_5" to="CN" fromLane="0" toLane="0" via=":C_6_0" dir="l" state="m"/>
    <connection from=":C_6" to="CN" fromLane="0" toLane="0" dir="l" state="M"/>
    <connection from=":E_0" to="-VODUGES_end" fromLane="0" toLane="0" dir="r" state="M"/>
    <connection from=":E_1" to="end2" fromLane="0" toLane="0" via=":E_3_0" dir="l" state="m"/>
    <connection from=":E_3" to="end2" fromLane="0" toLane="0" dir="l" state="M"/>
    <connection from=":E_2" to="end2" fromLane="0" toLane="0" dir="s" state="M"/>

</net>
