<?xml version="1.0" encoding="UTF-8"?>

<!-- generated on 2023-06-20 17:02:53 by Eclipse SUMO netedit Version v1_17_0+1059-87fb121
<configuration xmlns:xsi="http://www.w3.org/2001/XMLSchema-instance" xsi:noNamespaceSchemaLocation="http://sumo.dlr.de/xsd/neteditConfiguration.xsd">

    <input>
        <sumo-net-file value="net.netconvert"/>
    </input>

    <processing>
        <geometry.min-radius.fix.railways value="false"/>
        <geometry.max-grade.fix value="false"/>
        <offset.disable-normalization value="true"/>
        <lefthand value="0"/>
    </processing>

    <junctions>
        <no-turnarounds value="true"/>
        <junctions.corner-detail value="5"/>
        <junctions.limit-turn-speed value="5.50"/>
        <rectangular-lane-cut value="0"/>
    </junctions>

    <pedestrian>
        <walkingareas value="0"/>
    </pedestrian>

</configuration>
-->

<tlLogics version="1.16" xmlns:xsi="http://www.w3.org/2001/XMLSchema-instance" xsi:noNamespaceSchemaLocation="http://sumo.dlr.de/xsd/tllogic_file.xsd">
    <connection from="-gneE1" to="-gneE0" fromLane="0" toLane="0" tl="gneJ1" linkIndex="0"/>
    <connection from="-gneE2" to="-gneE0" fromLane="0" toLane="0" tl="gneJ1" linkIndex="1"/>
    <connection from="gneE0" to="gneE2" fromLane="0" toLane="0" tl="gneJ1" linkIndex="2"/>
    <connection from="gneE0" to="gneE1" fromLane="0" toLane="0" tl="gneJ1" linkIndex="3"/>
</tlLogics>
