<?xml version="1.0" encoding="UTF-8"?>

<!-- generated on 2022-03-21 15:21:08 by Eclipse SUMO netedit Version v1_12_0+1564-8bd65cf89d9
-->

<data xmlns:xsi="http://www.w3.org/2001/XMLSchema-instance" xsi:noNamespaceSchemaLocation="http://sumo.dlr.de/xsd/datamode_file.xsd">
</data>
