<?xml version="1.0" encoding="UTF-8"?>

<!-- generated on 2022-07-07 11:20:43.124839 by generateRailSignalConstraints.py v1_13_0+1343-240e5d48340
<configuration>
    <additional-file value="input_additional.add.xml"/>
    <begin value="500"/>
    <net-file value="net.net.xml"/>
    <output-file value="out.add.xml"/>
    <route-file value="input_routes2.rou.xml"/>
</configuration>
-->

<additional xmlns:xsi="http://www.w3.org/2001/XMLSchema-instance" xsi:noNamespaceSchemaLocation="http://sumo.dlr.de/xsd/additional_file.xsd">
    <railSignalConstraints id="A">
        <predecessor tripId="t2" tl="D" foes="t3"/>
    </railSignalConstraints>
</additional>
