<?xml version="1.0" encoding="UTF-8"?>

<!-- generated on Wed Sep 28 13:48:32 2016 by SUMO netconvert Version dev-SVN-r21560
<?xml version="1.0" encoding="UTF-8"?>

<configuration xmlns:xsi="http://www.w3.org/2001/XMLSchema-instance" xsi:noNamespaceSchemaLocation="http://sumo.dlr.de/xsd/netconvertConfiguration.xsd">

    <input>
        <osm-files value="osm.xml"/>
    </input>

    <output>
        <output-file value="net.net.xml"/>
        <plain-output-prefix value="plain"/>
    </output>

    <projection>
        <proj.utm value="true"/>
    </projection>

    <report>
        <xml-validation value="never"/>
    </report>

</configuration>
-->

<net version="0.27" xmlns:xsi="http://www.w3.org/2001/XMLSchema-instance" xsi:noNamespaceSchemaLocation="http://sumo.dlr.de/xsd/net_file.xsd">

    <location netOffset="-362705.63,-5761721.48" convBoundary="0.00,0.00,4118.45,2224.15" origBoundary="13.000000,51.990000,13.060000,52.010000" projParameter="+proj=utm +zone=33 +ellps=WGS84 +datum=WGS84 +units=m +no_defs"/>

    <type id="highway.bridleway" priority="1" numLanes="1" speed="2.78" allow="pedestrian" oneway="1" width="2.00"/>
    <type id="highway.bus_guideway" priority="1" numLanes="1" speed="8.33" allow="bus" oneway="1"/>
    <type id="highway.cycleway" priority="1" numLanes="1" speed="5.56" allow="bicycle" oneway="0" width="1.00"/>
    <type id="highway.footway" priority="1" numLanes="1" speed="2.78" allow="pedestrian" oneway="1" width="2.00"/>
    <type id="highway.ford" priority="1" numLanes="1" speed="2.78" allow="army" oneway="0"/>
    <type id="highway.living_street" priority="3" numLanes="1" speed="2.78" disallow="tram rail_urban rail rail_electric ship" oneway="0"/>
    <type id="highway.motorway" priority="13" numLanes="2" speed="44.44" allow="private emergency authority army vip passenger hov taxi bus coach delivery truck trailer motorcycle evehicle custom1 custom2" oneway="1"/>
    <type id="highway.motorway_link" priority="12" numLanes="1" speed="22.22" allow="private emergency authority army vip passenger hov taxi bus coach delivery truck trailer motorcycle evehicle custom1 custom2" oneway="1"/>
    <type id="highway.path" priority="1" numLanes="1" speed="2.78" allow="bicycle pedestrian" oneway="1" width="2.00"/>
    <type id="highway.pedestrian" priority="1" numLanes="1" speed="2.78" allow="pedestrian" oneway="1" width="2.00"/>
    <type id="highway.primary" priority="9" numLanes="2" speed="27.78" disallow="tram rail_urban rail rail_electric ship" oneway="0"/>
    <type id="highway.primary_link" priority="8" numLanes="1" speed="22.22" disallow="tram rail_urban rail rail_electric ship" oneway="0"/>
    <type id="highway.raceway" priority="14" numLanes="2" speed="83.33" allow="vip" oneway="0"/>
    <type id="highway.residential" priority="4" numLanes="1" speed="13.89" disallow="tram rail_urban rail rail_electric ship" oneway="0"/>
    <type id="highway.secondary" priority="7" numLanes="2" speed="27.78" disallow="tram rail_urban rail rail_electric ship" oneway="0"/>
    <type id="highway.secondary_link" priority="6" numLanes="1" speed="22.22" disallow="tram rail_urban rail rail_electric ship" oneway="0"/>
    <type id="highway.service" priority="2" numLanes="1" speed="5.56" allow="delivery bicycle pedestrian" oneway="0"/>
    <type id="highway.services" priority="1" numLanes="1" speed="8.33" disallow="tram rail_urban rail rail_electric ship" oneway="0"/>
    <type id="highway.stairs" priority="1" numLanes="1" speed="1.39" allow="pedestrian" oneway="1" width="2.00"/>
    <type id="highway.step" priority="1" numLanes="1" speed="1.39" allow="pedestrian" oneway="1" width="2.00"/>
    <type id="highway.steps" priority="1" numLanes="1" speed="1.39" allow="pedestrian" oneway="1" width="2.00"/>
    <type id="highway.tertiary" priority="6" numLanes="1" speed="22.22" disallow="tram rail_urban rail rail_electric ship" oneway="0"/>
    <type id="highway.tertiary_link" priority="5" numLanes="1" speed="22.22" disallow="tram rail_urban rail rail_electric ship" oneway="0"/>
    <type id="highway.track" priority="1" numLanes="1" speed="5.56" disallow="tram rail_urban rail rail_electric ship" oneway="0"/>
    <type id="highway.trunk" priority="11" numLanes="2" speed="27.78" disallow="tram rail_urban rail rail_electric bicycle pedestrian ship" oneway="0"/>
    <type id="highway.trunk_link" priority="10" numLanes="1" speed="22.22" disallow="tram rail_urban rail rail_electric bicycle pedestrian ship" oneway="0"/>
    <type id="highway.unclassified" priority="5" numLanes="1" speed="13.89" disallow="tram rail_urban rail rail_electric ship" oneway="0"/>
    <type id="highway.unsurfaced" priority="1" numLanes="1" speed="8.33" disallow="tram rail_urban rail rail_electric ship" oneway="0"/>
    <type id="railway.light_rail" priority="15" numLanes="1" speed="27.78" allow="rail_urban" oneway="1"/>
    <type id="railway.preserved" priority="15" numLanes="1" speed="27.78" allow="rail" oneway="1"/>
    <type id="railway.rail" priority="15" numLanes="1" speed="83.33" allow="rail rail_electric" oneway="1"/>
    <type id="railway.subway" priority="15" numLanes="1" speed="27.78" allow="rail_urban" oneway="1"/>
    <type id="railway.tram" priority="15" numLanes="1" speed="13.89" allow="tram" oneway="1"/>

    <edge id=":0_0" function="internal">
        <lane id=":0_0_0" index="0" disallow="tram rail_urban rail rail_electric ship" speed="27.78" length="4.82" shape="0.05,1206.98 -1.21,1206.19 -1.65,1205.38 -1.26,1204.54 -0.05,1203.68"/>
    </edge>
    <edge id=":1_0" function="internal">
        <lane id=":1_0_0" index="0" disallow="tram rail_urban rail rail_electric ship" speed="27.78" length="9.50" shape="691.20,1188.01 681.70,1188.27"/>
    </edge>
    <edge id=":1_1" function="internal">
        <lane id=":1_1_0" index="0" disallow="tram rail_urban rail rail_electric ship" speed="27.78" length="4.49" shape="691.20,1188.01 688.38,1187.48 687.15,1186.42"/>
    </edge>
    <edge id=":1_2" function="internal">
        <lane id=":1_2_0" index="0" disallow="tram rail_urban rail rail_electric ship" speed="27.78" length="2.41" shape="691.20,1188.01 689.94,1187.22 689.50,1186.41"/>
    </edge>
    <edge id=":1_9" function="internal">
        <lane id=":1_9_0" index="0" speed="27.78" length="8.60" shape="687.15,1186.42 686.33,1185.72 685.05,1182.72 684.54,1178.49"/>
    </edge>
    <edge id=":1_10" function="internal">
        <lane id=":1_10_0" index="0" speed="27.78" length="2.41" shape="689.50,1186.41 689.89,1185.57 691.11,1184.71"/>
    </edge>
    <edge id=":1_3" function="internal">
        <lane id=":1_3_0" index="0" disallow="tram rail_urban rail rail_electric ship" speed="27.78" length="5.00" shape="687.83,1178.40 688.06,1179.75 688.67,1180.70 689.66,1181.26 691.02,1181.41"/>
    </edge>
    <edge id=":1_4" function="internal">
        <lane id=":1_4_0" index="0" disallow="tram rail_urban rail rail_electric ship" speed="27.78" length="13.09" shape="687.83,1178.40 687.55,1182.65 686.43,1185.72 684.48,1187.59 681.70,1188.27"/>
    </edge>
    <edge id=":1_5" function="internal">
        <lane id=":1_5_0" index="0" disallow="tram rail_urban rail rail_electric ship" speed="27.78" length="4.82" shape="687.83,1178.40 687.04,1179.66 686.23,1180.09 685.39,1179.71 684.54,1178.49"/>
    </edge>
    <edge id=":1_6" function="internal">
        <lane id=":1_6_0" index="0" disallow="tram rail_urban rail rail_electric ship" speed="27.78" length="9.50" shape="681.52,1181.67 691.02,1181.41"/>
        <lane id=":1_6_1" index="1" disallow="tram rail_urban rail rail_electric ship" speed="27.78" length="9.50" shape="681.61,1184.97 691.11,1184.71"/>
    </edge>
    <edge id=":1_8" function="internal">
        <lane id=":1_8_0" index="0" disallow="tram rail_urban rail rail_electric ship" speed="27.78" length="2.41" shape="681.61,1184.97 682.87,1185.76 683.31,1186.58"/>
    </edge>
    <edge id=":1_11" function="internal">
        <lane id=":1_11_0" index="0" speed="27.78" length="2.41" shape="683.31,1186.58 682.92,1187.41 681.70,1188.27"/>
    </edge>
    <edge id=":10_0" function="internal">
        <lane id=":10_0_0" index="0" disallow="tram rail_urban rail rail_electric ship" speed="27.78" length="4.82" shape="4118.40,1092.05 4119.66,1092.85 4120.09,1093.66 4119.70,1094.50 4118.49,1095.35"/>
    </edge>
    <edge id=":11_0" function="internal">
        <lane id=":11_0_0" index="0" disallow="tram rail_urban rail rail_electric ship" speed="27.78" length="4.82" shape="3400.55,0.04 3401.34,-1.21 3402.16,-1.65 3402.99,-1.26 3403.85,-0.04"/>
    </edge>
    <edge id=":12_0" function="internal">
        <lane id=":12_0_0" index="0" disallow="tram rail_urban rail rail_electric ship" speed="27.78" length="4.82" shape="3463.52,2224.10 3462.73,2225.36 3461.92,2225.80 3461.08,2225.41 3460.22,2224.19"/>
    </edge>
    <edge id=":2_0" function="internal">
        <lane id=":2_0_0" index="0" disallow="tram rail_urban rail rail_electric ship" speed="27.78" length="9.50" shape="1377.60,1169.27 1368.11,1169.52"/>
    </edge>
    <edge id=":2_1" function="internal">
        <lane id=":2_1_0" index="0" disallow="tram rail_urban rail rail_electric ship" speed="27.78" length="9.55" shape="1377.60,1169.27 1374.79,1168.74 1372.74,1166.97 1371.46,1163.97 1371.37,1163.26"/>
    </edge>
    <edge id=":2_2" function="internal">
        <lane id=":2_2_0" index="0" disallow="tram rail_urban rail rail_electric ship" speed="27.78" length="4.82" shape="1377.60,1169.27 1376.34,1168.47 1375.91,1167.66 1376.30,1166.83 1377.51,1165.97"/>
    </edge>
    <edge id=":2_8" function="internal">
        <lane id=":2_8_0" index="0" speed="27.78" length="3.54" shape="1371.37,1163.26 1370.94,1159.74"/>
    </edge>
    <edge id=":2_3" function="internal">
        <lane id=":2_3_0" index="0" disallow="tram rail_urban rail rail_electric ship" speed="27.78" length="6.42" shape="1374.24,1159.65 1374.47,1161.00 1375.08,1161.96 1376.06,1162.51 1377.42,1162.67"/>
        <lane id=":2_3_1" index="1" disallow="tram rail_urban rail rail_electric ship" speed="27.78" length="6.42" shape="1374.24,1159.65 1374.51,1162.45 1375.15,1164.43 1376.15,1165.60 1377.51,1165.97"/>
    </edge>
    <edge id=":2_5" function="internal">
        <lane id=":2_5_0" index="0" disallow="tram rail_urban rail rail_electric ship" speed="27.78" length="13.09" shape="1374.24,1159.65 1373.96,1163.91 1372.84,1166.97 1370.89,1168.84 1368.11,1169.52"/>
    </edge>
    <edge id=":2_6" function="internal">
        <lane id=":2_6_0" index="0" disallow="tram rail_urban rail rail_electric ship" speed="27.78" length="4.82" shape="1374.24,1159.65 1373.45,1160.91 1372.64,1161.35 1371.80,1160.96 1370.94,1159.74"/>
    </edge>
    <edge id=":2_7" function="internal">
        <lane id=":2_7_0" index="0" disallow="tram rail_urban rail rail_electric ship" speed="27.78" length="5.00" shape="1367.93,1162.93 1369.28,1162.70 1370.23,1162.09 1370.79,1161.10 1370.94,1159.74"/>
    </edge>
    <edge id=":3_0" function="internal">
        <lane id=":3_0_0" index="0" disallow="tram rail_urban rail rail_electric ship" speed="27.78" length="9.50" shape="2064.01,1150.61 2054.52,1150.87"/>
    </edge>
    <edge id=":3_1" function="internal">
        <lane id=":3_1_0" index="0" disallow="tram rail_urban rail rail_electric ship" speed="27.78" length="2.41" shape="2064.01,1150.61 2062.75,1149.82 2062.32,1149.01"/>
    </edge>
    <edge id=":3_9" function="internal">
        <lane id=":3_9_0" index="0" speed="27.78" length="2.41" shape="2062.32,1149.01 2062.71,1148.17 2063.92,1147.32"/>
    </edge>
    <edge id=":3_2" function="internal">
        <lane id=":3_2_0" index="0" disallow="tram rail_urban rail rail_electric ship" speed="27.78" length="5.00" shape="2060.65,1141.00 2060.88,1142.35 2061.49,1143.30 2062.47,1143.86 2063.83,1144.02"/>
    </edge>
    <edge id=":3_3" function="internal">
        <lane id=":3_3_0" index="0" disallow="tram rail_urban rail rail_electric ship" speed="27.78" length="13.09" shape="2060.65,1141.00 2060.36,1145.25 2059.25,1148.32 2057.30,1150.19 2054.52,1150.87"/>
    </edge>
    <edge id=":3_4" function="internal">
        <lane id=":3_4_0" index="0" disallow="tram rail_urban rail rail_electric ship" speed="27.78" length="4.82" shape="2060.65,1141.00 2059.86,1142.26 2059.04,1142.70 2058.21,1142.31 2057.35,1141.09"/>
    </edge>
    <edge id=":3_5" function="internal">
        <lane id=":3_5_0" index="0" disallow="tram rail_urban rail rail_electric ship" speed="27.78" length="5.00" shape="2054.34,1144.27 2055.69,1144.04 2056.64,1143.44 2057.19,1142.45 2057.35,1141.09"/>
    </edge>
    <edge id=":3_6" function="internal">
        <lane id=":3_6_0" index="0" disallow="tram rail_urban rail rail_electric ship" speed="27.78" length="9.50" shape="2054.34,1144.27 2063.83,1144.02"/>
        <lane id=":3_6_1" index="1" disallow="tram rail_urban rail rail_electric ship" speed="27.78" length="9.50" shape="2054.43,1147.57 2063.92,1147.32"/>
    </edge>
    <edge id=":3_8" function="internal">
        <lane id=":3_8_0" index="0" disallow="tram rail_urban rail rail_electric ship" speed="27.78" length="2.41" shape="2054.43,1147.57 2055.68,1148.36 2056.12,1149.18"/>
    </edge>
    <edge id=":3_10" function="internal">
        <lane id=":3_10_0" index="0" speed="27.78" length="2.41" shape="2056.12,1149.18 2055.73,1150.01 2054.52,1150.87"/>
    </edge>
    <edge id=":4_0" function="internal">
        <lane id=":4_0_0" index="0" disallow="tram rail_urban rail rail_electric ship" speed="27.78" length="10.49" shape="2750.60,1138.65 2747.76,1137.30 2745.64,1133.06 2745.14,1130.50"/>
    </edge>
    <edge id=":4_9" function="internal">
        <lane id=":4_9_0" index="0" speed="27.78" length="14.67" shape="2745.14,1130.50 2744.25,1125.94 2743.58,1115.94"/>
    </edge>
    <edge id=":4_1" function="internal">
        <lane id=":4_1_0" index="0" disallow="tram rail_urban rail rail_electric ship" speed="27.78" length="6.42" shape="2746.88,1115.85 2747.11,1117.20 2747.72,1118.15 2748.70,1118.70 2750.06,1118.86"/>
        <lane id=":4_1_1" index="1" disallow="tram rail_urban rail rail_electric ship" speed="27.78" length="6.42" shape="2746.88,1115.85 2747.15,1118.64 2747.78,1120.62 2748.79,1121.80 2750.15,1122.16"/>
    </edge>
    <edge id=":4_3" function="internal">
        <lane id=":4_3_0" index="0" disallow="tram rail_urban rail rail_electric ship" speed="27.78" length="19.01" shape="2746.88,1115.85 2746.67,1122.99 2745.61,1128.11 2743.69,1131.22 2740.92,1132.31"/>
    </edge>
    <edge id=":4_4" function="internal">
        <lane id=":4_4_0" index="0" disallow="tram rail_urban rail rail_electric ship" speed="27.78" length="4.82" shape="2746.88,1115.85 2746.09,1117.11 2745.28,1117.54 2744.44,1117.15 2743.58,1115.94"/>
    </edge>
    <edge id=":4_5" function="internal">
        <lane id=":4_5_0" index="0" disallow="tram rail_urban rail rail_electric ship" speed="27.78" length="10.88" shape="2740.74,1125.72 2742.08,1125.07 2743.00,1123.23 2743.50,1120.18 2743.58,1115.94"/>
    </edge>
    <edge id=":4_6" function="internal">
        <lane id=":4_6_0" index="0" disallow="tram rail_urban rail rail_electric ship" speed="27.78" length="9.50" shape="2740.74,1125.72 2750.24,1125.46"/>
        <lane id=":4_6_1" index="1" disallow="tram rail_urban rail rail_electric ship" speed="27.78" length="9.50" shape="2740.83,1129.01 2750.33,1128.76"/>
    </edge>
    <edge id=":4_8" function="internal">
        <lane id=":4_8_0" index="0" disallow="tram rail_urban rail rail_electric ship" speed="27.78" length="4.82" shape="2740.83,1129.01 2742.09,1129.81 2742.53,1130.62 2742.14,1131.46 2740.92,1132.31"/>
    </edge>
    <edge id=":5_0" function="internal">
        <lane id=":5_0_0" index="0" disallow="tram rail_urban rail rail_electric ship" speed="27.78" length="5.00" shape="3424.09,1123.64 3423.86,1122.29 3423.26,1121.34 3422.27,1120.78 3420.91,1120.62"/>
    </edge>
    <edge id=":5_1" function="internal">
        <lane id=":5_1_0" index="0" disallow="tram rail_urban rail rail_electric ship" speed="27.78" length="26.28" shape="3424.09,1123.64 3424.40,1115.88 3425.39,1110.60 3426.39,1105.32 3426.69,1097.56"/>
        <lane id=":5_1_1" index="1" disallow="tram rail_urban rail rail_electric ship" speed="27.78" length="26.28" shape="3427.39,1123.55 3427.70,1115.79 3428.69,1110.51 3429.69,1105.23 3429.99,1097.47"/>
    </edge>
    <edge id=":5_3" function="internal">
        <lane id=":5_3_0" index="0" disallow="tram rail_urban rail rail_electric ship" speed="27.78" length="23.63" shape="3427.39,1123.55 3428.22,1116.40 3431.14,1111.22 3436.15,1108.03 3443.25,1106.82"/>
        <lane id=":5_3_1" index="1" disallow="tram rail_urban rail rail_electric ship" speed="27.78" length="23.63" shape="3430.69,1123.46 3431.35,1117.76 3433.68,1113.63 3437.67,1111.08 3443.34,1110.12"/>
    </edge>
    <edge id=":5_5" function="internal">
        <lane id=":5_5_0" index="0" disallow="tram rail_urban rail rail_electric ship" speed="27.78" length="4.82" shape="3430.69,1123.46 3431.48,1122.20 3432.30,1121.77 3433.13,1122.16 3433.99,1123.37"/>
    </edge>
    <edge id=":5_6" function="internal">
        <lane id=":5_6_0" index="0" disallow="tram rail_urban rail rail_electric ship" speed="27.78" length="7.85" shape="3443.51,1116.72 3442.17,1117.15 3441.23,1118.38 3440.71,1120.39 3440.59,1123.20"/>
    </edge>
    <edge id=":5_7" function="internal">
        <lane id=":5_7_0" index="0" disallow="tram rail_urban rail rail_electric ship" speed="27.78" length="22.70" shape="3443.51,1116.72 3420.82,1117.33"/>
        <lane id=":5_7_1" index="1" disallow="tram rail_urban rail rail_electric ship" speed="27.78" length="22.70" shape="3443.43,1113.42 3420.73,1114.03"/>
    </edge>
    <edge id=":5_9" function="internal">
        <lane id=":5_9_0" index="0" disallow="tram rail_urban rail rail_electric ship" speed="27.78" length="18.32" shape="3443.43,1113.42 3437.71,1112.55 3433.57,1109.61 3431.00,1104.58 3430.74,1102.78"/>
    </edge>
    <edge id=":5_10" function="internal">
        <lane id=":5_10_0" index="0" disallow="tram rail_urban rail rail_electric ship" speed="27.78" length="4.82" shape="3443.43,1113.42 3442.17,1112.63 3441.73,1111.81 3442.12,1110.98 3443.34,1110.12"/>
    </edge>
    <edge id=":5_22" function="internal">
        <lane id=":5_22_0" index="0" speed="27.78" length="5.37" shape="3430.74,1102.78 3429.99,1097.47"/>
    </edge>
    <edge id=":5_11" function="internal">
        <lane id=":5_11_0" index="0" disallow="tram rail_urban rail rail_electric ship" speed="27.78" length="10.47" shape="3439.89,1097.21 3440.16,1100.00 3440.79,1101.98 3441.79,1103.16 3443.16,1103.52"/>
        <lane id=":5_11_1" index="1" disallow="tram rail_urban rail rail_electric ship" speed="27.78" length="10.47" shape="3436.59,1097.30 3437.10,1101.53 3438.39,1104.52 3440.43,1106.29 3443.25,1106.82"/>
    </edge>
    <edge id=":5_13" function="internal">
        <lane id=":5_13_0" index="0" disallow="tram rail_urban rail rail_electric ship" speed="27.78" length="26.00" shape="3436.59,1097.30 3437.29,1123.29"/>
        <lane id=":5_13_1" index="1" disallow="tram rail_urban rail rail_electric ship" speed="27.78" length="26.00" shape="3433.29,1097.38 3433.99,1123.37"/>
    </edge>
    <edge id=":5_15" function="internal">
        <lane id=":5_15_0" index="0" disallow="tram rail_urban rail rail_electric ship" speed="27.78" length="23.69" shape="3433.29,1097.38 3432.67,1104.53 3430.37,1109.69 3426.39,1112.86 3420.73,1114.03"/>
    </edge>
    <edge id=":5_16" function="internal">
        <lane id=":5_16_0" index="0" disallow="tram rail_urban rail rail_electric ship" speed="27.78" length="4.82" shape="3433.29,1097.38 3432.50,1098.64 3431.69,1099.08 3430.85,1098.69 3429.99,1097.47"/>
    </edge>
    <edge id=":5_17" function="internal">
        <lane id=":5_17_0" index="0" disallow="tram rail_urban rail rail_electric ship" speed="27.78" length="10.32" shape="3420.38,1100.83 3421.73,1100.60 3422.68,1099.99 3423.24,1099.01 3423.40,1097.65"/>
        <lane id=":5_17_1" index="1" disallow="tram rail_urban rail rail_electric ship" speed="27.78" length="10.32" shape="3420.47,1104.13 3423.26,1103.66 3425.22,1102.40 3426.37,1100.37 3426.69,1097.56"/>
        <lane id=":5_17_2" index="2" disallow="tram rail_urban rail rail_electric ship" speed="27.78" length="10.32" shape="3420.56,1107.43 3424.78,1106.71 3427.76,1104.81 3429.50,1101.73 3429.99,1097.47"/>
    </edge>
    <edge id=":5_20" function="internal">
        <lane id=":5_20_0" index="0" disallow="tram rail_urban rail rail_electric ship" speed="27.78" length="7.47" shape="3420.64,1110.73 3426.35,1111.39 3427.86,1112.24"/>
    </edge>
    <edge id=":5_21" function="internal">
        <lane id=":5_21_0" index="0" disallow="tram rail_urban rail rail_electric ship" speed="27.78" length="2.41" shape="3420.64,1110.73 3421.90,1111.52 3422.34,1112.33"/>
    </edge>
    <edge id=":5_23" function="internal">
        <lane id=":5_23_0" index="0" speed="27.78" length="13.50" shape="3427.86,1112.24 3430.48,1113.71 3433.02,1117.71 3433.99,1123.37"/>
    </edge>
    <edge id=":5_24" function="internal">
        <lane id=":5_24_0" index="0" speed="27.78" length="2.41" shape="3422.34,1112.33 3421.95,1113.17 3420.73,1114.03"/>
    </edge>
    <edge id=":6_0" function="internal">
        <lane id=":6_0_0" index="0" disallow="tram rail_urban rail rail_electric ship" speed="27.78" length="4.82" shape="654.31,74.47 655.10,73.21 655.91,72.78 656.75,73.17 657.61,74.38"/>
    </edge>
    <edge id=":7_0" function="internal">
        <lane id=":7_0_0" index="0" disallow="tram rail_urban rail rail_electric ship" speed="27.78" length="4.82" shape="1340.87,55.72 1341.66,54.46 1342.47,54.03 1343.31,54.42 1344.17,55.63"/>
    </edge>
    <edge id=":8_0" function="internal">
        <lane id=":8_0_0" index="0" disallow="tram rail_urban rail rail_electric ship" speed="27.78" length="4.82" shape="2027.43,37.07 2028.22,35.81 2029.03,35.37 2029.87,35.76 2030.73,36.98"/>
    </edge>
    <edge id=":9_0" function="internal">
        <lane id=":9_0_0" index="0" disallow="tram rail_urban rail rail_electric ship" speed="27.78" length="4.82" shape="2713.99,18.51 2714.78,17.25 2715.59,16.82 2716.43,17.21 2717.29,18.42"/>
    </edge>

    <edge id="-101" from="6" to="1" priority="7" type="highway.secondary">
        <lane id="-101_0" index="0" disallow="tram rail_urban rail rail_electric ship" speed="27.78" length="1104.43" shape="657.61,74.38 687.83,1178.40"/>
    </edge>
    <edge id="-102" from="7" to="2" priority="7" type="highway.secondary">
        <lane id="-102_0" index="0" disallow="tram rail_urban rail rail_electric ship" speed="27.78" length="1104.43" shape="1344.17,55.63 1374.24,1159.65"/>
    </edge>
    <edge id="-103" from="8" to="3" priority="7" type="highway.secondary">
        <lane id="-103_0" index="0" disallow="tram rail_urban rail rail_electric ship" speed="27.78" length="1104.43" shape="2030.73,36.98 2060.65,1141.00"/>
    </edge>
    <edge id="-104" from="9" to="4" priority="7" type="highway.secondary">
        <lane id="-104_0" index="0" disallow="tram rail_urban rail rail_electric ship" speed="27.78" length="1097.83" shape="2717.29,18.42 2746.88,1115.85"/>
    </edge>
    <edge id="-105" from="11" to="5" priority="7" type="highway.secondary">
        <lane id="-105_0" index="0" disallow="tram rail_urban rail rail_electric ship" speed="27.78" length="1097.82" shape="3410.45,-0.22 3439.89,1097.21"/>
        <lane id="-105_1" index="1" disallow="tram rail_urban rail rail_electric ship" speed="27.78" length="1097.82" shape="3407.15,-0.13 3436.59,1097.30"/>
        <lane id="-105_2" index="2" disallow="tram rail_urban rail rail_electric ship" speed="27.78" length="1097.82" shape="3403.85,-0.04 3433.29,1097.38"/>
    </edge>
    <edge id="-106" from="12" to="5" priority="7" type="highway.secondary">
        <lane id="-106_0" index="0" disallow="tram rail_urban rail rail_electric ship" speed="27.78" length="1101.12" shape="3453.63,2224.37 3424.09,1123.64"/>
        <lane id="-106_1" index="1" disallow="tram rail_urban rail rail_electric ship" speed="27.78" length="1101.12" shape="3456.93,2224.28 3427.39,1123.55"/>
        <lane id="-106_2" index="2" disallow="tram rail_urban rail rail_electric ship" speed="27.78" length="1101.12" shape="3460.22,2224.19 3430.69,1123.46"/>
    </edge>
    <edge id="-200" from="1" to="0" priority="7" type="highway.secondary">
        <lane id="-200_0" index="0" disallow="tram rail_urban rail rail_electric ship" speed="27.78" length="681.91" shape="681.70,1188.27 0.05,1206.98"/>
    </edge>
    <edge id="-201" from="2" to="1" priority="7" type="highway.secondary">
        <lane id="-201_0" index="0" disallow="tram rail_urban rail rail_electric ship" speed="27.78" length="677.16" shape="1368.11,1169.52 691.20,1188.01"/>
    </edge>
    <edge id="-202" from="3" to="2" priority="7" type="highway.secondary">
        <lane id="-202_0" index="0" disallow="tram rail_urban rail rail_electric ship" speed="27.78" length="677.16" shape="2054.52,1150.87 1377.60,1169.27"/>
    </edge>
    <edge id="-203" from="4" to="3" priority="7" type="highway.secondary">
        <lane id="-203_0" index="0" disallow="tram rail_urban rail rail_electric ship" speed="27.78" length="677.16" shape="2740.92,1132.31 2064.01,1150.61"/>
    </edge>
    <edge id="-204" from="5" to="4" priority="7" type="highway.secondary">
        <lane id="-204_0" index="0" disallow="tram rail_urban rail rail_electric ship" speed="27.78" length="670.56" shape="3420.91,1120.62 2750.60,1138.65"/>
        <lane id="-204_1" index="1" disallow="tram rail_urban rail rail_electric ship" speed="27.78" length="670.56" shape="3420.82,1117.33 2750.51,1135.36"/>
        <lane id="-204_2" index="2" disallow="tram rail_urban rail rail_electric ship" speed="27.78" length="670.56" shape="3420.73,1114.03 2750.42,1132.06"/>
    </edge>
    <edge id="-205" from="10" to="5" priority="7" type="highway.secondary">
        <lane id="-205_0" index="0" disallow="tram rail_urban rail rail_electric ship" speed="27.78" length="675.31" shape="4118.58,1098.65 3443.51,1116.72"/>
        <lane id="-205_1" index="1" disallow="tram rail_urban rail rail_electric ship" speed="27.78" length="675.31" shape="4118.49,1095.35 3443.43,1113.42"/>
    </edge>
    <edge id="101" from="1" to="6" priority="7" type="highway.secondary">
        <lane id="101_0" index="0" disallow="tram rail_urban rail rail_electric ship" speed="27.78" length="1104.43" shape="684.54,1178.49 654.31,74.47"/>
    </edge>
    <edge id="102" from="2" to="7" priority="7" type="highway.secondary">
        <lane id="102_0" index="0" disallow="tram rail_urban rail rail_electric ship" speed="27.78" length="1104.43" shape="1370.94,1159.74 1340.87,55.72"/>
    </edge>
    <edge id="103" from="3" to="8" priority="7" type="highway.secondary">
        <lane id="103_0" index="0" disallow="tram rail_urban rail rail_electric ship" speed="27.78" length="1104.43" shape="2057.35,1141.09 2027.43,37.07"/>
    </edge>
    <edge id="104" from="4" to="9" priority="7" type="highway.secondary">
        <lane id="104_0" index="0" disallow="tram rail_urban rail rail_electric ship" speed="27.78" length="1097.83" shape="2743.58,1115.94 2713.99,18.51"/>
    </edge>
    <edge id="105" from="5" to="11" priority="7" type="highway.secondary">
        <lane id="105_0" index="0" disallow="tram rail_urban rail rail_electric ship" speed="27.78" length="1097.82" shape="3423.40,1097.65 3393.95,0.22"/>
        <lane id="105_1" index="1" disallow="tram rail_urban rail rail_electric ship" speed="27.78" length="1097.82" shape="3426.69,1097.56 3397.25,0.13"/>
        <lane id="105_2" index="2" disallow="tram rail_urban rail rail_electric ship" speed="27.78" length="1097.82" shape="3429.99,1097.47 3400.55,0.04"/>
    </edge>
    <edge id="106" from="5" to="12" priority="7" type="highway.secondary">
        <lane id="106_0" index="0" disallow="tram rail_urban rail rail_electric ship" speed="27.78" length="1101.12" shape="3440.59,1123.20 3470.12,2223.92"/>
        <lane id="106_1" index="1" disallow="tram rail_urban rail rail_electric ship" speed="27.78" length="1101.12" shape="3437.29,1123.29 3466.82,2224.01"/>
        <lane id="106_2" index="2" disallow="tram rail_urban rail rail_electric ship" speed="27.78" length="1101.12" shape="3433.99,1123.37 3463.52,2224.10"/>
    </edge>
    <edge id="200" from="0" to="1" priority="7" type="highway.secondary">
        <lane id="200_0" index="0" disallow="tram rail_urban rail rail_electric ship" speed="27.78" length="681.91" shape="-0.14,1200.39 681.52,1181.67"/>
        <lane id="200_1" index="1" disallow="tram rail_urban rail rail_electric ship" speed="27.78" length="681.91" shape="-0.05,1203.68 681.61,1184.97"/>
    </edge>
    <edge id="201" from="1" to="2" priority="7" type="highway.secondary">
        <lane id="201_0" index="0" disallow="tram rail_urban rail rail_electric ship" speed="27.78" length="677.16" shape="691.02,1181.41 1367.93,1162.93"/>
        <lane id="201_1" index="1" disallow="tram rail_urban rail rail_electric ship" speed="27.78" length="677.16" shape="691.11,1184.71 1368.02,1166.23"/>
    </edge>
    <edge id="202" from="2" to="3" priority="7" type="highway.secondary">
        <lane id="202_0" index="0" disallow="tram rail_urban rail rail_electric ship" speed="27.78" length="677.16" shape="1377.42,1162.67 2054.34,1144.27"/>
        <lane id="202_1" index="1" disallow="tram rail_urban rail rail_electric ship" speed="27.78" length="677.16" shape="1377.51,1165.97 2054.43,1147.57"/>
    </edge>
    <edge id="203" from="3" to="4" priority="7" type="highway.secondary">
        <lane id="203_0" index="0" disallow="tram rail_urban rail rail_electric ship" speed="27.78" length="677.16" shape="2063.83,1144.02 2740.74,1125.72"/>
        <lane id="203_1" index="1" disallow="tram rail_urban rail rail_electric ship" speed="27.78" length="677.16" shape="2063.92,1147.32 2740.83,1129.01"/>