<?xml version="1.0" encoding="UTF-8"?>

<!-- generated on 05/21/15 14:56:28 by SUMO netconvert Version dev-SVN-r18422
<?xml version="1.0" encoding="UTF-8"?>

<configuration xmlns:xsi="http://www.w3.org/2001/XMLSchema-instance" xsi:noNamespaceSchemaLocation="http://sumo.dlr.de/xsd/netconvertConfiguration.xsd">

    <input>
        <osm-files value="osm.xml"/>
    </input>

    <output>
        <plain-output-prefix value="plain"/>
    </output>

    <projection>
        <proj.utm value="true"/>
    </projection>

    <report>
        <xml-validation value="never"/>
    </report>

</configuration>
-->

<types version="0.13" xmlns:xsi="http://www.w3.org/2001/XMLSchema-instance" xsi:noNamespaceSchemaLocation="http://sumo.dlr.de/xsd/types_file.xsd">
    <type id="highway.bridleway" priority="1" numLanes="1" speed="2.78" allow="bicycle" oneway="0" discard="0"/>
    <type id="highway.bus_guideway" priority="1" numLanes="1" speed="8.33" allow="bus" oneway="0" discard="0"/>
    <type id="highway.cycleway" priority="1" numLanes="1" speed="5.56" allow="bicycle" oneway="0" discard="0"/>
    <type id="highway.footway" priority="1" numLanes="1" speed="2.78" allow="pedestrian" oneway="1" discard="0"/>
    <type id="highway.ford" priority="1" numLanes="1" speed="2.78" allow="army" oneway="0" discard="0"/>
    <type id="highway.living_street" priority="3" numLanes="1" speed="2.78" oneway="0" discard="0"/>
    <type id="highway.motorway" priority="13" numLanes="2" speed="44.44" oneway="1" discard="0"/>
    <type id="highway.motorway_link" priority="12" numLanes="1" speed="22.22" oneway="1" discard="0"/>
    <type id="highway.path" priority="1" numLanes="1" speed="2.78" allow="pedestrian" oneway="1" discard="0"/>
    <type id="highway.pedestrian" priority="1" numLanes="1" speed="8.33" allow="pedestrian" oneway="1" discard="0"/>
    <type id="highway.primary" priority="9" numLanes="2" speed="27.78" oneway="0" discard="0"/>
    <type id="highway.primary_link" priority="8" numLanes="1" speed="22.22" oneway="0" discard="0"/>
    <type id="highway.raceway" priority="14" numLanes="2" speed="83.33" allow="vip" oneway="0" discard="0"/>
    <type id="highway.residential" priority="4" numLanes="1" speed="13.89" oneway="0" discard="0"/>
    <type id="highway.secondary" priority="7" numLanes="2" speed="27.78" oneway="0" discard="0"/>
    <type id="highway.secondary_link" priority="6" numLanes="1" speed="22.22" oneway="0" discard="0"/>
    <type id="highway.service" priority="2" numLanes="1" speed="5.56" allow="delivery" oneway="0" discard="0"/>
    <type id="highway.services" priority="1" numLanes="1" speed="8.33" oneway="0" discard="0"/>
    <type id="highway.stairs" priority="1" numLanes="1" speed="1.39" allow="pedestrian" oneway="1" discard="0"/>
    <type id="highway.step" priority="1" numLanes="1" speed="1.39" allow="pedestrian" oneway="1" discard="0"/>
    <type id="highway.steps" priority="1" numLanes="1" speed="1.39" allow="pedestrian" oneway="1" discard="0"/>
    <type id="highway.tertiary" priority="6" numLanes="1" speed="22.22" oneway="0" discard="0"/>
    <type id="highway.tertiary_link" priority="5" numLanes="1" speed="22.22" oneway="0" discard="0"/>
    <type id="highway.track" priority="1" numLanes="1" speed="5.56" oneway="0" discard="0"/>
    <type id="highway.trunk" priority="11" numLanes="2" speed="27.78" oneway="0" discard="0"/>
    <type id="highway.trunk_link" priority="10" numLanes="1" speed="22.22" oneway="0" discard="0"/>
    <type id="highway.unclassified" priority="5" numLanes="1" speed="22.22" oneway="0" discard="0"/>
    <type id="highway.unsurfaced" priority="1" numLanes="1" speed="8.33" oneway="0" discard="0"/>
    <type id="railway.light_rail" priority="15" numLanes="1" speed="27.78" allow="rail_urban" oneway="1" discard="0"/>
    <type id="railway.preserved" priority="15" numLanes="1" speed="27.78" allow="rail" oneway="1" discard="0"/>
    <type id="railway.rail" priority="15" numLanes="1" speed="83.33" allow="rail" oneway="1" discard="0"/>
    <type id="railway.subway" priority="15" numLanes="1" speed="27.78" allow="rail_urban" oneway="1" discard="0"/>
    <type id="railway.tram" priority="15" numLanes="1" speed="27.78" allow="tram" oneway="1" discard="0"/>

</types>
