<?xml version="1.0" encoding="UTF-8"?>

<!-- generated on 2022-10-20 16:25:00 by Eclipse SUMO netedit Version v1_14_1+1858-9c52672d8be
-->

<routes xmlns:xsi="http://www.w3.org/2001/XMLSchema-instance" xsi:noNamespaceSchemaLocation="http://sumo.dlr.de/xsd/routes_file.xsd">
    <!-- VTypes -->
    <vType id="customType"/>
    <!-- Vehicles, persons and containers (sorted by depart) -->
    <container id="c_0" depart="0.00">
        <tranship from="gneE2" to="gneE5" departPos="0.00"/>
        <stop edge="gneE5" endPos="36.89" duration="60.00"/>
        <stop edge="gneE5" endPos="24.09" duration="60.00" actType="dummy"/>
        <stop edge="gneE5" endPos="29.21" duration="60.00" actType="singing"/>
    </container>
</routes>
