<?xml version="1.0"?>

<!-- generated on 12/11/08 13:35:32 by SUMO netconvert Version 0.9.7
<configuration>

   <input>
      <xml-node-files>t.nod.xml</xml-node-files>
      <xml-edge-files>t.edg.xml</xml-edge-files>
   </input>

   <output>
      <output-file>input_net.net.xml</output-file>
   </output>

</configuration>
-->

<net>

   <net-offset>0.00,250.00</net-offset>
   <conv-boundary>0.00,0.00,1200.00,500.00</conv-boundary>
   <orig-boundary>0.00,-250.00,1200.00,250.00</orig-boundary>
   <orig-proj>!</orig-proj>

   <node_count>14</node_count>


   <edge id="1toL" from="1" to="L1" priority="-1" type="" function="normal">
      <lanes>
         <lane id="1toL_0" depart="1" vclasses="" maxspeed="19.44" length="195.30">101.65,251.45 101.65,446.75</lane>
      </lanes>
   </edge>

   <edge id="1toR" from="1" to="R1" priority="-1" type="" function="normal">
      <lanes>
         <lane id="1toR_0" depart="1" vclasses="" maxspeed="19.44" length="195.30">98.35,245.25 98.35,49.95</lane>
      </lanes>
   </edge>

   <edge id="L" from="L1" to="L2" priority="-1" type="" function="normal">
      <lanes>
         <lane id="L_0" depart="1" vclasses="" maxspeed="19.44" length="999.64">103.25,448.35 1102.89,448.35</lane>
      </lanes>
   </edge>

   <edge id="LtoL2a" from="L2" to="L2a" priority="-1" type="" function="normal">
      <lanes>
         <lane id="LtoL2a_0" depart="1" vclasses="" maxspeed="19.44" length="103.92">1107.79,452.05 1200.74,498.52</lane>
      </lanes>
   </edge>

   <edge id="LtoL2b" from="L2" to="L2b" priority="-1" type="" function="normal">
      <lanes>
         <lane id="LtoL2b_0" depart="1" vclasses="" maxspeed="19.44" length="91.33">1108.67,448.35 1200.00,448.35</lane>
      </lanes>
   </edge>

   <edge id="LtoL2c" from="L2" to="L2c" priority="-1" type="" function="normal">
      <lanes>
         <lane id="LtoL2c_0" depart="1" vclasses="" maxspeed="19.44" length="103.14">1107.01,444.65 1199.26,398.52</lane>
      </lanes>
   </edge>

   <edge id="R" from="R1" to="R2" priority="-1" type="" function="normal">
      <lanes>
         <lane id="R_0" depart="1" vclasses="" maxspeed="19.44" length="1002.94">99.95,48.35 1102.89,48.35</lane>
      </lanes>
   </edge>

   <edge id="RtoR2a" from="R2" to="R2a" priority="-1" type="" function="normal">
      <lanes>
         <lane id="RtoR2a_0" depart="1" vclasses="" maxspeed="19.44" length="103.14">1107.01,44.65 1199.26,-1.48</lane>
      </lanes>
   </edge>

   <edge id="RtoR2b" from="R2" to="R2b" priority="-1" type="" function="normal">
      <lanes>
         <lane id="RtoR2b_0" depart="1" vclasses="" maxspeed="19.44" length="91.33">1108.67,48.35 1200.00,48.35</lane>
      </lanes>
   </edge>

   <edge id="RtoR2c" from="R2" to="R2c" priority="-1" type="" function="normal">
      <lanes>
         <lane id="RtoR2c_0" depart="1" vclasses="" maxspeed="19.44" length="103.92">1107.79,52.05 1200.74,98.52</lane>
      </lanes>
   </edge>

   <edge id="beg" from="beg" to="1" priority="-1" type="" function="normal">
      <lanes>
         <lane id="beg_0" depart="1" vclasses="" maxspeed="19.44" length="95.25">0.00,248.35 95.25,248.35</lane>
      </lanes>
   </edge>

   <edge id="end" from="2" to="end" priority="-1" type="" function="normal">
      <lanes>
         <lane id="end_0" depart="1" vclasses="" maxspeed="19.44" length="100.00">1100.00,248.35 1200.00,248.35</lane>
      </lanes>
   </edge>

   <edge id="middle" from="1" to="2" priority="-1" type="" function="normal">
      <lanes>
         <lane id="middle_0" depart="1" vclasses="" maxspeed="19.44" length="995.25">104.75,248.35 1100.00,248.35</lane>
      </lanes>
   </edge>


   <row-logic>
      <key>1</key>
      <requestsize>3</requestsize>
      <lanenumber>1</lanenumber>
      <logic>
         <logicitem request="0" response="000" foes="000"/>
         <logicitem request="1" response="000" foes="000"/>
         <logicitem request="2" response="000" foes="000"/>
      </logic>
   </row-logic>

   <row-logic>
      <key>2</key>
      <requestsize>1</requestsize>
      <lanenumber>1</lanenumber>
      <logic>
         <logicitem request="0" response="0" foes="0"/>
      </logic>
   </row-logic>

   <row-logic>
      <key>L1</key>
      <requestsize>1</requestsize>
      <lanenumber>1</lanenumber>
      <logic>
         <logicitem request="0" response="0" foes="0"/>
      </logic>
   </row-logic>

   <row-logic>
      <key>L2</key>
      <requestsize>3</requestsize>
      <lanenumber>1</lanenumber>
      <logic>
         <logicitem request="0" response="000" foes="000"/>
         <logicitem request="1" response="000" foes="000"/>
         <logicitem request="2" response="000" foes="000"/>
      </logic>
   </row-logic>

   <row-logic>
      <key>R1</key>
      <requestsize>1</requestsize>
      <lanenumber>1</lanenumber>
      <logic>
         <logicitem request="0" response="0" foes="0"/>
      </logic>
   </row-logic>

   <row-logic>
      <key>R2</key>
      <requestsize>3</requestsize>
      <lanenumber>1</lanenumber>
      <logic>
         <logicitem request="0" response="000" foes="000"/>
         <logicitem request="1" response="000" foes="000"/>
         <logicitem request="2" response="000" foes="000"/>
      </logic>
   </row-logic>



   <junction id="1" type="priority" x="100.00" y="250.00">
      <inclanes>beg_0</inclanes>
      <shape>100.05,251.45 103.25,251.45 104.75,249.95 104.75,246.75 99.95,245.25 96.75,245.25 95.25,246.75 95.25,249.95</shape>
   </junction>

   <junction id="2" type="priority" x="1100.00" y="250.00">
      <inclanes>middle_0</inclanes>
      <shape>1100.00,249.95 1100.00,246.75 1100.00,249.95</shape>
   </junction>

   <junction id="L1" type="priority" x="100.00" y="450.00">
      <inclanes>1toL_0</inclanes>
      <shape>103.25,449.95 103.25,446.75 100.05,446.75</shape>
   </junction>

   <junction id="L2" type="priority" x="1100.00" y="450.00">
      <inclanes>L_0</inclanes>
      <shape>1107.08,453.48 1108.51,450.62 1108.67,449.95 1108.67,446.75 1107.73,446.08 1106.30,443.22 1102.89,446.75 1102.89,449.95</shape>
   </junction>

   <junction id="L2a" type="DEAD_END" x="1200.00" y="500.00">
      <inclanes>LtoL2a_0</inclanes>
      <shape>1201.45,497.09 1200.02,499.96</shape>
   </junction>

   <junction id="L2b" type="DEAD_END" x="1200.00" y="450.00">
      <inclanes>LtoL2b_0</inclanes>
      <shape>1200.00,446.75 1200.00,449.95</shape>
   </junction>

   <junction id="L2c" type="DEAD_END" x="1200.00" y="400.00">
      <inclanes>LtoL2c_0</inclanes>
      <shape>1198.55,397.09 1199.98,399.96</shape>
   </junction>

   <junction id="R1" type="priority" x="100.00" y="50.00">
      <inclanes>1toR_0</inclanes>
      <shape>96.75,49.95 99.95,49.95 99.95,46.75</shape>
   </junction>

   <junction id="R2" type="priority" x="1100.00" y="50.00">
      <inclanes>R_0</inclanes>
      <shape>1107.08,53.48 1108.51,50.62 1108.67,49.95 1108.67,46.75 1107.73,46.08 1106.30,43.22 1102.89,46.75 1102.89,49.95</shape>
   </junction>

   <junction id="R2a" type="DEAD_END" x="1200.00" y="0.00">
      <inclanes>RtoR2a_0</inclanes>
      <shape>1198.55,-2.91 1199.98,-0.04</shape>
   </junction>

   <junction id="R2b" type="DEAD_END" x="1200.00" y="50.00">
      <inclanes>RtoR2b_0</inclanes>
      <shape>1200.00,46.75 1200.00,49.95</shape>
   </junction>

   <junction id="R2c" type="DEAD_END" x="1200.00" y="100.00">
      <inclanes>RtoR2c_0</inclanes>
      <shape>1201.45,97.09 1200.02,99.96</shape>
   </junction>

   <junction id="beg" type="DEAD_END" x="0.00" y="250.00">
      <inclanes></inclanes>
      <shape>-0.00,249.95 -0.00,246.75</shape>
   </junction>

   <junction id="end" type="DEAD_END" x="1200.00" y="250.00">
      <inclanes>end_0</inclanes>
      <shape>1200.00,246.75 1200.00,249.95</shape>
   </junction>


   <succ edge="1toL" lane="1toL_0" junction="L1">
      <succlane lane="L_0" yield="0" dir="r" state="M"/>
   </succ>

   <succ edge="1toR" lane="1toR_0" junction="R1">
      <succlane lane="R_0" yield="0" dir="l" state="M"/>
   </succ>

   <succ edge="L" lane="L_0" junction="L2">
      <succlane lane="LtoL2c_0" yield="0" dir="s" state="M"/>
      <succlane lane="LtoL2b_0" yield="0" dir="s" state="M"/>
      <succlane lane="LtoL2a_0" yield="0" dir="s" state="M"/>
   </succ>

   <succ edge="LtoL2a" lane="LtoL2a_0" junction="L2a">
      <succlane lane="SUMO_NO_DESTINATION" yield="1" dir="s" state="O"/>
   </succ>

   <succ edge="LtoL2b" lane="LtoL2b_0" junction="L2b">
      <succlane lane="SUMO_NO_DESTINATION" yield="1" dir="s" state="O"/>
   </succ>

   <succ edge="LtoL2c" lane="LtoL2c_0" junction="L2c">
      <succlane lane="SUMO_NO_DESTINATION" yield="1" dir="s" state="O"/>
   </succ>

   <succ edge="R" lane="R_0" junction="R2">
      <succlane lane="RtoR2a_0" yield="0" dir="s" state="M"/>
      <succlane lane="RtoR2b_0" yield="0" dir="s" state="M"/>
      <succlane lane="RtoR2c_0" yield="0" dir="s" state="M"/>
   </succ>

   <succ edge="RtoR2a" lane="RtoR2a_0" junction="R2a">
      <succlane lane="SUMO_NO_DESTINATION" yield="1" dir="s" state="O"/>
   </succ>

   <succ edge="RtoR2b" lane="RtoR2b_0" junction="R2b">
      <succlane lane="SUMO_NO_DESTINATION" yield="1" dir="s" state="O"/>
   </succ>

   <succ edge="RtoR2c" lane="RtoR2c_0" junction="R2c">
      <succlane lane="SUMO_NO_DESTINATION" yield="1" dir="s" state="O"/>
   </succ>

   <succ edge="beg" lane="beg_0" junction="1">
      <succlane lane="1toR_0" yield="0" dir="r" state="M"/>
      <succlane lane="middle_0" yield="0" dir="s" state="M"/>
      <succlane lane="1toL_0" yield="0" dir="l" state="M"/>
   </succ>

   <succ edge="end" lane="end_0" junction="end">
      <succlane lane="SUMO_NO_DESTINATION" yield="1" dir="s" state="O"/>
   </succ>

   <succ edge="middle" lane="middle_0" junction="2">
      <succlane lane="end_0" yield="0" dir="s" state="M"/>
   </succ>


</net>
