<?xml version="1.0"?>

<!-- generated on 01/12/11 13:07:14 by SUMO netconvert Version dev-SVN-r9534
<?xml version="1.0" encoding="iso-8859-1"?>

<configuration xmlns:xsi="http://www.w3.org/2001/XMLSchema-instance" xsi:noNamespaceSchemaLocation="http://sumo.sf.net/xsd/netconvertConfiguration.xsd">

    <input>
        <xml-node-files value="./dfrouter/function/all_end_follower/t.nod.xml"/>
        <xml-edge-files value="./dfrouter/function/all_end_follower/t.edg.xml"/>
    </input>

    <output>
        <output-file value="./dfrouter/function/all_end_follower/input_net.net.xml"/>
    </output>

    <report>
        <verbose value="true"/>
    </report>

</configuration>
-->

<net>

   <location netOffset="0.00,250.00" convBoundary="0.00,0.00,1200.00,500.00" origBoundary="0.00,-250.00,1200.00,250.00" projParameter="!"/>

   <edge id=":1_0" function="internal">
      <lane id=":1_0_0" depart="0" maxspeed="19.44" length="5.00" shape="95.25,248.35 96.61,248.16 97.57,247.58 98.16,246.61 98.35,245.25"/>
   </edge>
   <edge id=":1_1" function="internal">
      <lane id=":1_1_0" depart="0" maxspeed="19.44" length="9.50" shape="95.25,248.35 104.75,248.35"/>
   </edge>
   <edge id=":1_2" function="internal">
      <lane id=":1_2_0" depart="0" maxspeed="19.44" length="7.85" shape="95.25,248.35 98.05,248.54 100.05,249.13 101.25,250.09 101.65,251.45"/>
   </edge>
   <edge id=":2_0" function="internal">
      <lane id=":2_0_0" depart="0" maxspeed="19.44" length="0.10" shape="1100.00,248.35 1100.00,248.35"/>
   </edge>
   <edge id=":L1_0" function="internal">
      <lane id=":L1_0_0" depart="0" maxspeed="19.44" length="2.58" shape="101.65,446.75 101.75,447.45 102.05,447.95 102.55,448.25 103.25,448.35"/>
   </edge>
   <edge id=":L2_0" function="internal">
      <lane id=":L2_0_0" depart="0" maxspeed="19.44" length="5.54" shape="1102.89,448.35 1107.01,444.65"/>
   </edge>
   <edge id=":L2_1" function="internal">
      <lane id=":L2_1_0" depart="0" maxspeed="19.44" length="5.78" shape="1102.89,448.35 1108.67,448.35"/>
   </edge>
   <edge id=":L2_2" function="internal">
      <lane id=":L2_2_0" depart="0" maxspeed="19.44" length="6.15" shape="1102.89,448.35 1107.79,452.05"/>
   </edge>
   <edge id=":R1_0" function="internal">
      <lane id=":R1_0_0" depart="0" maxspeed="19.44" length="2.58" shape="98.35,49.95 98.45,49.25 98.75,48.75 99.25,48.45 99.95,48.35"/>
   </edge>
   <edge id=":R2_0" function="internal">
      <lane id=":R2_0_0" depart="0" maxspeed="19.44" length="5.54" shape="1102.89,48.35 1107.01,44.65"/>
   </edge>
   <edge id=":R2_1" function="internal">
      <lane id=":R2_1_0" depart="0" maxspeed="19.44" length="5.78" shape="1102.89,48.35 1108.67,48.35"/>
   </edge>
   <edge id=":R2_2" function="internal">
      <lane id=":R2_2_0" depart="0" maxspeed="19.44" length="6.15" shape="1102.89,48.35 1107.79,52.05"/>
   </edge>

   <edge id="1toL" from="1" to="L1" priority="-1" type="" function="normal">
      <lane id="1toL_0" depart="1" maxspeed="19.44" length="195.30" shape="101.65,251.45 101.65,446.75"/>
   </edge>
   <edge id="1toR" from="1" to="R1" priority="-1" type="" function="normal">
      <lane id="1toR_0" depart="1" maxspeed="19.44" length="195.30" shape="98.35,245.25 98.35,49.95"/>
   </edge>
   <edge id="L" from="L1" to="L2" priority="-1" type="" function="normal">
      <lane id="L_0" depart="1" maxspeed="19.44" length="999.64" shape="103.25,448.35 1102.89,448.35"/>
   </edge>
   <edge id="LtoL2a" from="L2" to="L2a" priority="-1" type="" function="normal">
      <lane id="LtoL2a_0" depart="1" maxspeed="19.44" length="103.92" shape="1107.79,452.05 1200.74,498.52"/>
   </edge>
   <edge id="LtoL2b" from="L2" to="L2b" priority="-1" type="" function="normal">
      <lane id="LtoL2b_0" depart="1" maxspeed="19.44" length="91.33" shape="1108.67,448.35 1200.00,448.35"/>
   </edge>
   <edge id="LtoL2c" from="L2" to="L2c" priority="-1" type="" function="normal">
      <lane id="LtoL2c_0" depart="1" maxspeed="19.44" length="103.14" shape="1107.01,444.65 1199.26,398.52"/>
   </edge>
   <edge id="R" from="R1" to="R2" priority="-1" type="" function="normal">
      <lane id="R_0" depart="1" maxspeed="19.44" length="1002.94" shape="99.95,48.35 1102.89,48.35"/>
   </edge>
   <edge id="RtoR2a" from="R2" to="R2a" priority="-1" type="" function="normal">
      <lane id="RtoR2a_0" depart="1" maxspeed="19.44" length="103.14" shape="1107.01,44.65 1199.26,-1.48"/>
   </edge>
   <edge id="RtoR2b" from="R2" to="R2b" priority="-1" type="" function="normal">
      <lane id="RtoR2b_0" depart="1" maxspeed="19.44" length="91.33" shape="1108.67,48.35 1200.00,48.35"/>
   </edge>
   <edge id="RtoR2c" from="R2" to="R2c" priority="-1" type="" function="normal">
      <lane id="RtoR2c_0" depart="1" maxspeed="19.44" length="103.92" shape="1107.79,52.05 1200.74,98.52"/>
   </edge>
   <edge id="beg" from="beg" to="1" priority="-1" type="" function="normal">
      <lane id="beg_0" depart="1" maxspeed="19.44" length="95.25" shape="0.00,248.35 95.25,248.35"/>
   </edge>
   <edge id="end" from="2" to="end" priority="-1" type="" function="normal">
      <lane id="end_0" depart="1" maxspeed="19.44" length="100.00" shape="1100.00,248.35 1200.00,248.35"/>
   </edge>
   <edge id="middle" from="1" to="2" priority="-1" type="" function="normal">
      <lane id="middle_0" depart="1" maxspeed="19.44" length="995.25" shape="104.75,248.35 1100.00,248.35"/>
   </edge>

   <row-logic id="1" requestSize="3" laneNumber="1">
      <logicitem request="0" response="000" foes="000" cont="0"/>
      <logicitem request="1" response="000" foes="000" cont="0"/>
      <logicitem request="2" response="000" foes="000" cont="0"/>
   </row-logic>
   <row-logic id="2" requestSize="1" laneNumber="1">
      <logicitem request="0" response="0" foes="0" cont="0"/>
   </row-logic>
   <row-logic id="L1" requestSize="1" laneNumber="1">
      <logicitem request="0" response="0" foes="0" cont="0"/>
   </row-logic>
   <row-logic id="L2" requestSize="3" laneNumber="1">
      <logicitem request="0" response="000" foes="000" cont="0"/>
      <logicitem request="1" response="000" foes="000" cont="0"/>
      <logicitem request="2" response="000" foes="000" cont="0"/>
   </row-logic>
   <row-logic id="R1" requestSize="1" laneNumber="1">
      <logicitem request="0" response="0" foes="0" cont="0"/>
   </row-logic>
   <row-logic id="R2" requestSize="3" laneNumber="1">
      <logicitem request="0" response="000" foes="000" cont="0"/>
      <logicitem request="1" response="000" foes="000" cont="0"/>
      <logicitem request="2" response="000" foes="000" cont="0"/>
   </row-logic>

   <junction id="1" type="priority" x="100.00" y="250.00" incLanes="beg_0" intLanes=":1_0_0 :1_1_0 :1_2_0" shape="100.05,251.45 103.25,251.45 104.75,249.95 104.75,246.75 99.95,245.25 96.75,245.25 95.25,246.75 95.25,249.95"/>
   <junction id="2" type="priority" x="1100.00" y="250.00" incLanes="middle_0" intLanes=":2_0_0" shape="1100.00,249.95 1100.00,246.75 1100.00,249.95"/>
   <junction id="L1" type="priority" x="100.00" y="450.00" incLanes="1toL_0" intLanes=":L1_0_0" shape="103.25,449.95 103.25,446.75 100.05,446.75"/>
   <junction id="L2" type="priority" x="1100.00" y="450.00" incLanes="L_0" intLanes=":L2_0_0 :L2_1_0 :L2_2_0" shape="1107.08,453.48 1108.51,450.62 1108.67,449.95 1108.67,446.75 1107.73,446.08 1106.30,443.22 1102.89,446.75 1102.89,449.95"/>
   <junction id="L2a" type="DEAD_END" x="1200.00" y="500.00" incLanes="LtoL2a_0" intLanes="" shape="1201.45,497.09 1200.02,499.96"/>
   <junction id="L2b" type="DEAD_END" x="1200.00" y="450.00" incLanes="LtoL2b_0" intLanes="" shape="1200.00,446.75 1200.00,449.95"/>
   <junction id="L2c" type="DEAD_END" x="1200.00" y="400.00" incLanes="LtoL2c_0" intLanes="" shape="1198.55,397.09 1199.98,399.96"/>
   <junction id="R1" type="priority" x="100.00" y="50.00" incLanes="1toR_0" intLanes=":R1_0_0" shape="96.75,49.95 99.95,49.95 99.95,46.75"/>
   <junction id="R2" type="priority" x="1100.00" y="50.00" incLanes="R_0" intLanes=":R2_0_0 :R2_1_0 :R2_2_0" shape="1107.08,53.48 1108.51,50.62 1108.67,49.95 1108.67,46.75 1107.73,46.08 1106.30,43.22 1102.89,46.75 1102.89,49.95"/>
   <junction id="R2a" type="DEAD_END" x="1200.00" y="0.00" incLanes="RtoR2a_0" intLanes="" shape="1198.55,-2.91 1199.98,-0.04"/>
   <junction id="R2b" type="DEAD_END" x="1200.00" y="50.00" incLanes="RtoR2b_0" intLanes="" shape="1200.00,46.75 1200.00,49.95"/>
   <junction id="R2c" type="DEAD_END" x="1200.00" y="100.00" incLanes="RtoR2c_0" intLanes="" shape="1201.45,97.09 1200.02,99.96"/>
   <junction id="beg" type="DEAD_END" x="0.00" y="250.00" incLanes="" intLanes="" shape="0.00,249.95 0.00,246.75"/>
   <junction id="end" type="DEAD_END" x="1200.00" y="250.00" incLanes="end_0" intLanes="" shape="1200.00,246.75 1200.00,249.95"/>

   <succ edge="1toL" lane="1toL_0" junction="L1">
      <succlane lane="L_0" via=":L1_0_0" yield="0" dir="r" state="M"/>
   </succ>
   <succ edge="1toR" lane="1toR_0" junction="R1">
      <succlane lane="R_0" via=":R1_0_0" yield="0" dir="l" state="M"/>
   </succ>
   <succ edge="L" lane="L_0" junction="L2">
      <succlane lane="LtoL2c_0" via=":L2_0_0" yield="0" dir="s" state="M"/>
      <succlane lane="LtoL2b_0" via=":L2_1_0" yield="0" dir="s" state="M"/>
      <succlane lane="LtoL2a_0" via=":L2_2_0" yield="0" dir="s" state="M"/>
   </succ>
   <succ edge="LtoL2a" lane="LtoL2a_0" junction="L2a">
      <succlane lane="SUMO_NO_DESTINATION" yield="1" dir="s" state="O"/>
   </succ>
   <succ edge="LtoL2b" lane="LtoL2b_0" junction="L2b">
      <succlane lane="SUMO_NO_DESTINATION" yield="1" dir="s" state="O"/>
   </succ>
   <succ edge="LtoL2c" lane="LtoL2c_0" junction="L2c">
      <succlane lane="SUMO_NO_DESTINATION" yield="1" dir="s" state="O"/>
   </succ>
   <succ edge="R" lane="R_0" junction="R2">
      <succlane lane="RtoR2a_0" via=":R2_0_0" yield="0" dir="s" state="M"/>
      <succlane lane="RtoR2b_0" via=":R2_1_0" yield="0" dir="s" state="M"/>
      <succlane lane="RtoR2c_0" via=":R2_2_0" yield="0" dir="s" state="M"/>
   </succ>
   <succ edge="RtoR2a" lane="RtoR2a_0" junction="R2a">
      <succlane lane="SUMO_NO_DESTINATION" yield="1" dir="s" state="O"/>
   </succ>
   <succ edge="RtoR2b" lane="RtoR2b_0" junction="R2b">
      <succlane lane="SUMO_NO_DESTINATION" yield="1" dir="s" state="O"/>
   </succ>
   <succ edge="RtoR2c" lane="RtoR2c_0" junction="R2c">
      <succlane lane="SUMO_NO_DESTINATION" yield="1" dir="s" state="O"/>
   </succ>
   <succ edge="beg" lane="beg_0" junction="1">
      <succlane lane="1toR_0" via=":1_0_0" yield="0" dir="r" state="M"/>
      <succlane lane="middle_0" via=":1_1_0" yield="0" dir="s" state="M"/>
      <succlane lane="1toL_0" via=":1_2_0" yield="0" dir="l" state="M"/>
   </succ>
   <succ edge="end" lane="end_0" junction="end">
      <succlane lane="SUMO_NO_DESTINATION" yield="1" dir="s" state="O"/>
   </succ>
   <succ edge="middle" lane="middle_0" junction="2">
      <succlane lane="end_0" via=":2_0_0" yield="0" dir="s" state="M"/>
   </succ>

   <succ edge=":1_0" lane=":1_0_0" junction="1">
      <succlane lane="1toR_0" tl="" linkno="" yield="0" dir="s" state="M"/>
   </succ>
   <succ edge=":1_1" lane=":1_1_0" junction="1">
      <succlane lane="middle_0" tl="" linkno="" yield="0" dir="s" state="M"/>
   </succ>
   <succ edge=":1_2" lane=":1_2_0" junction="1">
      <succlane lane="1toL_0" tl="" linkno="" yield="0" dir="s" state="M"/>
   </succ>
   <succ edge=":2_0" lane=":2_0_0" junction="2">
      <succlane lane="end_0" tl="" linkno="" yield="0" dir="s" state="M"/>
   </succ>
   <succ edge=":L1_0" lane=":L1_0_0" junction="L1">
      <succlane lane="L_0" tl="" linkno="" yield="0" dir="s" state="M"/>
   </succ>
   <succ edge=":L2_0" lane=":L2_0_0" junction="L2">
      <succlane lane="LtoL2c_0" tl="" linkno="" yield="0" dir="s" state="M"/>
   </succ>
   <succ edge=":L2_1" lane=":L2_1_0" junction="L2">
      <succlane lane="LtoL2b_0" tl="" linkno="" yield="0" dir="s" state="M"/>
   </succ>
   <succ edge=":L2_2" lane=":L2_2_0" junction="L2">
      <succlane lane="LtoL2a_0" tl="" linkno="" yield="0" dir="s" state="M"/>
   </succ>
   <succ edge=":R1_0" lane=":R1_0_0" junction="R1">
      <succlane lane="R_0" tl="" linkno="" yield="0" dir="s" state="M"/>
   </succ>
   <succ edge=":R2_0" lane=":R2_0_0" junction="R2">
      <succlane lane="RtoR2a_0" tl="" linkno="" yield="0" dir="s" state="M"/>
   </succ>
   <succ edge=":R2_1" lane=":R2_1_0" junction="R2">
      <succlane lane="RtoR2b_0" tl="" linkno="" yield="0" dir="s" state="M"/>
   </succ>
   <succ edge=":R2_2" lane=":R2_2_0" junction="R2">
      <succlane lane="RtoR2c_0" tl="" linkno="" yield="0" dir="s" state="M"/>
   </succ>

</net>

