<?xml version="1.0" encoding="UTF-8"?>

<!-- generated on 03/05/14 13:14:28 by SUMO polyconvert Version dev-SVN-r15814
<?xml version="1.0" encoding="UTF-8"?>

<configuration xmlns:xsi="http://www.w3.org/2001/XMLSchema-instance" xsi:noNamespaceSchemaLocation="http://sumo.dlr.de/xsd/polyconvertConfiguration.xsd">

    <input>
        <net-file value="input_net.net.xml"/>
        <dlr-navteq-poi-files value="dlr_navteq_pois.txt"/>
    </input>

    <output>
        <output-file value="pois.poi.xml"/>
    </output>

    <report>
        <verbose value="true"/>
        <xml-validation value="never"/>
    </report>

</configuration>
-->

<additional xmlns:xsi="http://www.w3.org/2001/XMLSchema-instance" xsi:noNamespaceSchemaLocation="http://sumo.dlr.de/xsd/additional_file.xsd">
    <poi id="1" type="unknown" color="51,128,255" layer="-1.00" x="35510.00" y="4610.13"/>
    <poi id="2" type="unknown" color="51,128,255" layer="-1.00" x="31932.41" y="12285.73"/>
</additional>
