<?xml version="1.0" encoding="UTF-8"?>

<!-- generated on 2023-06-28 11:40:06 by Eclipse SUMO netedit Version v1_17_0+1325-7bcb1ae21f2
-->

<additional xmlns:xsi="http://www.w3.org/2001/XMLSchema-instance" xsi:noNamespaceSchemaLocation="http://sumo.dlr.de/xsd/additional_file.xsd">
    <!-- StoppingPlaces -->
    <parkingArea id="pa_0" lane="center1_1" startPos="18.00" endPos="28.00" lefthand="1"/>
</additional>
