<?xml version="1.0" encoding="UTF-8"?>

<!-- generated on 2022-03-04 10:46:36 by Eclipse SUMO netedit Version v1_12_0+1137-e9106068858
-->

<additional xmlns:xsi="http://www.w3.org/2001/XMLSchema-instance" xsi:noNamespaceSchemaLocation="http://sumo.dlr.de/xsd/additional_file.xsd">
    <!-- Detectors -->
    <e3Detector id="e3Detector_A" name="customName" pos="7.50,-2.00" freq="100.00" file="fileA.txt">
        <detEntry lane="gneE1_0" pos="5.00"/>
        <detExit lane="gneE1_0" pos="25.00"/>
        <param key="KeyA1" value="valueA1"/>
        <param key="KeyA2" value="valueA3"/>
        <param key="KeyA3" value="valueA2"/>
    </e3Detector>
    <e3Detector id="e3Detector_B" name="customName" pos="17.50,-2.00" freq="120.00" file="fileB.txt" timeThreshold="2000" speedThreshold="3.39">
        <detEntry lane="gneE1_0" pos="10.00"/>
        <detExit lane="gneE1_0" pos="30.00"/>
        <param key="KeyB1" value="valueB1"/>
        <param key="KeyB2" value="valueB3"/>
        <param key="KeyB3" value="valueB2"/>
    </e3Detector>
</additional>
