<?xml version="1.0" encoding="UTF-8"?>

<!-- generated on 2023-01-26 09:21:47 by Eclipse SUMO netconvert Version v1_15_0+1955-2a740b567ac
<configuration xmlns:xsi="http://www.w3.org/2001/XMLSchema-instance" xsi:noNamespaceSchemaLocation="http://sumo.dlr.de/xsd/netconvertConfiguration.xsd">

    <input>
        <node-files value="D:/SUMO/tests/netedit\demandelements\stop\containerstop\volatilerecomputing/net.nod.xml"/>
        <edge-files value="D:/SUMO/tests/netedit\demandelements\stop\containerstop\volatilerecomputing/net.edg.xml"/>
        <connection-files value="D:/SUMO/tests/netedit\demandelements\stop\containerstop\volatilerecomputing/net.con.xml"/>
        <tllogic-files value="D:/SUMO/tests/netedit\demandelements\stop\containerstop\volatilerecomputing/net.tll.xml"/>
    </input>

    <output>
        <output-file value="D:/SUMO/tests/netedit\demandelements\stop\containerstop\volatilerecomputing/net.net.xml"/>
    </output>

</configuration>
-->

<net version="1.16" junctionCornerDetail="5" limitTurnSpeed="5.50" xmlns:xsi="http://www.w3.org/2001/XMLSchema-instance" xsi:noNamespaceSchemaLocation="http://sumo.dlr.de/xsd/net_file.xsd">

    <location netOffset="25.00,0.00" convBoundary="0.00,0.00,50.00,20.00" origBoundary="-10000000000.00,-10000000000.00,10000000000.00,10000000000.00" projParameter="!"/>

    <edge id=":gneJ0_0" function="internal">
        <lane id=":gneJ0_0_0" index="0" speed="6.08" length="7.74" shape="-1.60,3.20 -1.30,1.10 -0.40,-0.40 1.10,-1.30 3.20,-1.60"/>
    </edge>
    <edge id=":gneJ0_1" function="internal">
        <lane id=":gneJ0_1_0" index="0" speed="3.90" length="2.58" shape="3.20,1.60 2.50,1.70 2.00,2.00 1.70,2.50 1.60,3.20"/>
    </edge>
    <edge id=":gneJ0_2" function="internal">
        <lane id=":gneJ0_2_0" index="0" speed="3.65" length="1.30" shape="3.20,1.60 2.12,0.88"/>
    </edge>
    <edge id=":gneJ0_3" function="internal">
        <lane id=":gneJ0_3_0" index="0" speed="3.65" length="3.37" shape="2.12,0.88 2.00,0.80 1.60,0.00 2.00,-0.80 3.20,-1.60"/>
    </edge>
    <edge id=":gneJ1_0" function="internal">
        <lane id=":gneJ1_0_0" index="0" speed="3.90" length="2.58" shape="48.40,3.20 48.30,2.50 48.00,2.00 47.50,1.70 46.80,1.60"/>
    </edge>
    <edge id=":gneJ1_1" function="internal">
        <lane id=":gneJ1_1_0" index="0" speed="6.08" length="7.74" shape="46.80,-1.60 48.90,-1.30 50.40,-0.40 51.30,1.10 51.60,3.20"/>
    </edge>
    <edge id=":gneJ1_2" function="internal">
        <lane id=":gneJ1_2_0" index="0" speed="3.65" length="1.44" shape="46.80,-1.60 48.00,-0.80"/>
    </edge>
    <edge id=":gneJ1_3" function="internal">
        <lane id=":gneJ1_3_0" index="0" speed="3.65" length="3.23" shape="48.00,-0.80 48.40,0.00 48.00,0.80 46.80,1.60"/>
    </edge>
    <edge id=":gneJ2_0" function="internal">
        <lane id=":gneJ2_0_0" index="0" speed="10.54" length="25.39" shape="51.60,12.80 51.05,22.25 49.40,29.00 46.65,33.05 42.80,34.40"/>
        <lane id=":gneJ2_0_1" index="1" speed="9.94" length="22.48" shape="51.60,12.80 51.05,20.85 49.40,26.60 46.65,30.05 42.80,31.20"/>
        <lane id=":gneJ2_0_2" index="2" speed="9.32" length="19.63" shape="51.60,12.80 51.05,19.45 49.40,24.20 46.65,27.05 42.80,28.00"/>
        <lane id=":gneJ2_0_3" index="3" speed="8.67" length="16.85" shape="51.60,12.80 51.05,18.05 49.40,21.80 46.65,24.05 42.80,24.80"/>
        <lane id=":gneJ2_0_4" index="4" speed="8.00" length="14.19" shape="51.60,12.80 51.05,16.65 49.40,19.40 46.65,21.05 42.80,21.60"/>
    </edge>
    <edge id=":gneJ2_5" function="internal">
        <lane id=":gneJ2_5_0" index="0" speed="6.51" length="9.03" shape="42.80,18.40 45.25,18.05 47.00,17.00 48.05,15.25 48.40,12.80"/>
    </edge>
    <edge id=":gneJ2_6" function="internal">
        <lane id=":gneJ2_6_0" index="0" speed="3.65" length="4.67" shape="42.80,18.40 44.00,19.20 44.40,20.00 44.00,20.80 42.80,21.60"/>
    </edge>
    <edge id=":gneJ3_0" function="internal">
        <lane id=":gneJ3_0_0" index="0" speed="10.54" length="25.39" shape="7.20,34.40 3.35,33.05 0.60,29.00 -1.05,22.25 -1.60,12.80"/>
    </edge>
    <edge id=":gneJ3_1" function="internal">
        <lane id=":gneJ3_1_0" index="0" speed="3.65" length="4.67" shape="7.20,21.60 6.00,20.80 5.60,20.00 6.00,19.20 7.20,18.40"/>
    </edge>
    <edge id=":gneJ3_2" function="internal">
        <lane id=":gneJ3_2_0" index="0" speed="6.51" length="9.03" shape="1.60,12.80 1.95,15.25 3.00,17.00 4.75,18.05 7.20,18.40"/>
    </edge>

    <edge id="-E0" from="gneJ0" to="gneJ3" priority="-1">
        <lane id="-E0_0" index="0" speed="13.89" length="9.60" shape="1.60,3.20 1.60,12.80"/>
    </edge>
    <edge id="-E1" from="gneJ1" to="gneJ2" priority="-1">
        <lane id="-E1_0" index="0" speed="13.89" length="9.60" shape="51.60,3.20 51.60,12.80"/>
    </edge>
    <edge id="E0" from="gneJ3" to="gneJ0" priority="-1">
        <lane id="E0_0" index="0" speed="13.89" length="9.60" shape="-1.60,12.80 -1.60,3.20"/>
    </edge>
    <edge id="E1" from="gneJ2" to="gneJ1" priority="-1">
        <lane id="E1_0" index="0" speed="13.89" length="9.60" shape="48.40,12.80 48.40,3.20"/>
    </edge>
    <edge id="gneE0" from="gneJ0" to="gneJ1" priority="1">
        <lane id="gneE0_0" index="0" speed="13.89" length="43.60" shape="3.20,-1.60 46.80,-1.60"/>
    </edge>
    <edge id="gneE1" from="gneJ1" to="gneJ0" priority="1">
        <lane id="gneE1_0" index="0" speed="13.89" length="43.60" shape="46.80,1.60 3.20,1.60"/>
    </edge>
    <edge id="gneE2" from="gneJ2" to="gneJ3" priority="1">
        <lane id="gneE2_0" index="0" speed="13.89" length="35.60" shape="42.80,34.40 7.20,34.40"/>
        <lane id="gneE2_1" index="1" speed="13.89" length="35.60" shape="42.80,31.20 7.20,31.20"/>
        <lane id="gneE2_2" index="2" speed="13.89" length="35.60" shape="42.80,28.00 7.20,28.00"/>
        <lane id="gneE2_3" index="3" speed="13.89" length="35.60" shape="42.80,24.80 7.20,24.80"/>
        <lane id="gneE2_4" index="4" speed="13.89" length="35.60" shape="42.80,21.60 7.20,21.60"/>
    </edge>
    <edge id="gneE4" from="gneJ3" to="gneJ2" priority="1">
        <lane id="gneE4_0" index="0" speed="60.00" length="35.60" shape="7.20,18.40 42.80,18.40"/>
    </edge>

    <tlLogic id="gneJ0" type="static" programID="0" offset="0">
        <phase duration="42" state="GGr"/>
        <phase duration="3"  state="yyr"/>
        <phase duration="42" state="GGg"/>
        <phase duration="3"  state="yyy"/>
    </tlLogic>
    <tlLogic id="gneJ1" type="static" programID="0" offset="0">
        <phase duration="42" state="GGr"/>
        <phase duration="3"  state="yyr"/>
        <phase duration="42" state="GGg"/>
        <phase duration="3"  state="yyy"/>
    </tlLogic>

    <junction id="gneJ0" type="traffic_light" x="0.00" y="0.00" incLanes="E0_0 gneE1_0" intLanes=":gneJ0_0_0 :gneJ0_1_0 :gneJ0_3_0" shape="-3.20,3.20 3.20,3.20 3.20,-3.20 -0.36,-2.49 -1.60,-1.60 -2.49,-0.36 -3.02,1.24">
        <request index="0" response="000" foes="100" cont="0"/>
        <request index="1" response="000" foes="000" cont="0"/>
        <request index="2" response="001" foes="001" cont="1"/>
    </junction>
    <junction id="gneJ1" type="traffic_light" x="50.00" y="0.00" incLanes="E1_0 gneE0_0" intLanes=":gneJ1_0_0 :gneJ1_1_0 :gneJ1_3_0" shape="46.80,3.20 53.20,3.20 52.49,-0.36 51.60,-1.60 50.36,-2.49 48.76,-3.02 46.80,-3.20">
        <request index="0" response="000" foes="100" cont="0"/>
        <request index="1" response="000" foes="000" cont="0"/>
        <request index="2" response="001" foes="001" cont="1"/>
    </junction>
    <junction id="gneJ2" type="priority" x="50.00" y="20.00" incLanes="-E1_0 gneE4_0" intLanes=":gneJ2_0_0 :gneJ2_0_1 :gneJ2_0_2 :gneJ2_0_3 :gneJ2_0_4 :gneJ2_5_0 :gneJ2_6_0" shape="53.20,12.80 46.80,12.80 46.36,15.02 45.80,15.80 45.02,16.36 44.02,16.69 42.80,16.80 42.80,36.00 45.98,35.36 48.58,33.42 50.60,30.20 52.04,25.69 52.91,19.89">
        <request index="0" response="0000000" foes="1000000" cont="0"/>
        <request index="1" response="0000000" foes="1000000" cont="0"/>
        <request index="2" response="0000000" foes="1000000" cont="0"/>
        <request index="3" response="0000000" foes="1000000" cont="0"/>
        <request index="4" response="0000000" foes="1000000" cont="0"/>
        <request index="5" response="0000000" foes="0000000" cont="0"/>
        <request index="6" response="0011111" foes="0011111" cont="0"/>
    </junction>
    <junction id="gneJ3" type="priority" x="0.00" y="20.00" incLanes="gneE2_0 gneE2_1 gneE2_2 gneE2_3 gneE2_4 -E0_0" intLanes=":gneJ3_0_0 :gneJ3_1_0 :gneJ3_2_0" shape="7.20,36.00 7.20,16.80 4.98,16.36 4.20,15.80 3.64,15.02 3.31,14.02 3.20,12.80 -3.20,12.80 -2.91,19.89 -2.04,25.69 -0.60,30.20 1.42,33.42 4.02,35.36">
        <request index="0" response="000" foes="000" cont="0"/>
        <request index="1" response="100" foes="100" cont="0"/>
        <request index="2" response="000" foes="010" cont="0"/>
    </junction>

    <junction id=":gneJ0_3_0" type="internal" x="2.12" y="0.88" incLanes=":gneJ0_2_0 E0_0" intLanes=":gneJ0_0_0"/>
    <junction id=":gneJ1_3_0" type="internal" x="48.00" y="-0.80" incLanes=":gneJ1_2_0 E1_0" intLanes=":gneJ1_0_0"/>

    <connection from="-E0" to="gneE4" fromLane="0" toLane="0" keepClear="0" via=":gneJ3_2_0" dir="r" state="M"/>
    <connection from="-E1" to="gneE2" fromLane="0" toLane="0" keepClear="0" via=":gneJ2_0_0" dir="l" state="M"/>
    <connection from="-E1" to="gneE2" fromLane="0" toLane="1" keepClear="0" via=":gneJ2_0_1" dir="l" state="M"/>
    <connection from="-E1" to="gneE2" fromLane="0" toLane="2" keepClear="0" via=":gneJ2_0_2" dir="l" state="M"/>
    <connection from="-E1" to="gneE2" fromLane="0" toLane="3" keepClear="0" via=":gneJ2_0_3" dir="l" state="M"/>
    <connection from="-E1" to="gneE2" fromLane="0" toLane="4" keepClear="0" via=":gneJ2_0_4" dir="l" state="M"/>
    <connection from="E0" to="gneE0" fromLane="0" toLane="0" via=":gneJ0_0_0" tl="gneJ0" linkIndex="0" dir="l" state="O"/>
    <connection from="E1" to="gneE1" fromLane="0" toLane="0" via=":gneJ1_0_0" tl="gneJ1" linkIndex="0" dir="r" state="O"/>
    <connection from="gneE0" to="-E1" fromLane="0" toLane="0" via=":gneJ1_1_0" tl="gneJ1" linkIndex="1" dir="l" state="O"/>
    <connection from="gneE0" to="gneE1" fromLane="0" toLane="0" via=":gneJ1_2_0" tl="gneJ1" linkIndex="2" dir="t" state="o"/>
    <connection from="gneE1" to="-E0" fromLane="0" toLane="0" via=":gneJ0_1_0" tl="gneJ0" linkIndex="1" dir="r" state="O"/>
    <connection from="gneE1" to="gneE0" fromLane="0" toLane="0" via=":gneJ0_2_0" tl="gneJ0" linkIndex="2" dir="t" state="o"/>
    <connection from="gneE2" to="E0" fromLane="0" toLane="0" via=":gneJ3_0_0" dir="l" state="M"/>
    <connection from="gneE2" to="gneE4" fromLane="4" toLane="0" via=":gneJ3_1_0" dir="t" state="m"/>
    <connection from="gneE4" to="E1" fromLane="0" toLane="0" keepClear="0" via=":gneJ2_5_0" dir="r" state="M"/>
    <connection from="gneE4" to="gneE2" fromLane="0" toLane="4" via=":gneJ2_6_0" dir="t" state="m"/>

    <connection from=":gneJ0_0" to="gneE0" fromLane="0" toLane="0" dir="l" state="M"/>
    <connection from=":gneJ0_1" to="-E0" fromLane="0" toLane="0" dir="r" state="M"/>
    <connection from=":gneJ0_2" to="gneE0" fromLane="0" toLane="0" via=":gneJ0_3_0" dir="t" state="m"/>
    <connection from=":gneJ0_3" to="gneE0" fromLane="0" toLane="0" dir="t" state="M"/>
    <connection from=":gneJ1_0" to="gneE1" fromLane="0" toLane="0" dir="r" state="M"/>
    <connection from=":gneJ1_1" to="-E1" fromLane="0" toLane="0" dir="l" state="M"/>
    <connection from=":gneJ1_2" to="gneE1" fromLane="0" toLane="0" via=":gneJ1_3_0" dir="t" state="m"/>
    <connection from=":gneJ1_3" to="gneE1" fromLane="0" toLane="0" dir="t" state="M"/>
    <connection from=":gneJ2_0" to="gneE2" fromLane="0" toLane="0" dir="l" state="M"/>
    <connection from=":gneJ2_0" to="gneE2" fromLane="1" toLane="1" dir="l" state="M"/>
    <connection from=":gneJ2_0" to="gneE2" fromLane="2" toLane="2" dir="l" state="M"/>
    <connection from=":gneJ2_0" to="gneE2" fromLane="3" toLane="3" dir="l" state="M"/>
    <connection from=":gneJ2_0" to="gneE2" fromLane="4" toLane="4" dir="l" state="M"/>
    <connection from=":gneJ2_5" to="E1" fromLane="0" toLane="0" dir="r" state="M"/>
    <connection from=":gneJ2_6" to="gneE2" fromLane="0" toLane="4" dir="t" state="M"/>
    <connection from=":gneJ3_0" to="E0" fromLane="0" toLane="0" dir="l" state="M"/>
    <connection from=":gneJ3_1" to="gneE4" fromLane="0" toLane="0" dir="t" state="M"/>
    <connection from=":gneJ3_2" to="gneE4" fromLane="0" toLane="0" dir="r" state="M"/>

</net>
