<?xml version="1.0" encoding="UTF-8"?>

<!-- generated on 2022-03-07 09:59:18 by Eclipse SUMO netedit Version v1_12_0+1177-f6b46b7e4a3
-->

<routes xmlns:xsi="http://www.w3.org/2001/XMLSchema-instance" xsi:noNamespaceSchemaLocation="http://sumo.dlr.de/xsd/routes_file.xsd">
    <!-- VTypes -->
    <vType id="id" vClass="ignoring"/>
    <!-- Vehicles, persons and containers (sorted by depart) -->
    <trip id="trip0" type="id" depart="0.00" from="gneE0" to="gneE1">
        <stop containerStop="containerStopH" duration="60.00"/>
        <stop containerStop="containerStopG" duration="60.00"/>
        <stop containerStop="containerStopF" duration="60.00"/>
        <stop containerStop="containerStopE" duration="60.00"/>
        <stop containerStop="containerStopD" duration="60.00"/>
        <stop containerStop="containerStopC" duration="60.00"/>
    </trip>
    <trip id="trip1" type="id" depart="0.00" from="gneE0" to="gneE1">
        <stop containerStop="containerStopB" duration="60.00"/>
        <stop containerStop="containerStopA" duration="60.00"/>
    </trip>
</routes>
