<routes xmlns:xsi="http://www.w3.org/2001/XMLSchema-instance" xsi:noNamespaceSchemaLocation="http://sumo.dlr.de/xsd/routes_file.xsd">
    <person id="1" depart="0" departPos="50">
        <walk from="beg" to="end"/>
    </person>
    <container id="1" depart="0" departPos="220">
        <transport from="beg" to="end" lines="v1"/>
    </container>
</routes>
