<?xml version="1.0" encoding="UTF-8"?>

<!-- generated on 21.08.2020 16:13:45 by Eclipse SUMO netedit Version v1_6_0+1715-1ccaaec835
-->

<additional xmlns:xsi="http://www.w3.org/2001/XMLSchema-instance" xsi:noNamespaceSchemaLocation="http://sumo.dlr.de/xsd/additional_file.xsd">
    <chargingStation id="cs_0" lane="gneE0_0" startPos="16.00" endPos="26.00"/>
    <chargingStation id="cs_1" lane="gneE0_0" startPos="4.00" endPos="14.00"/>
    <chargingStation id="cs_2" lane="gneE0_0" startPos="31.00" endPos="41.00"/>
</additional>
