<routes>
    <vType id="DEFAULT_VEHTYPE" sigma="0"/>
    <vType id="emergency" vClass="emergency" jmDriveAfterRedTime="1000" sigma="0"/>

    <route id="r0" edges="WC CE"/>

    <flow id="blockers"  route="r0" departPos="last" begin="0" end="0" number="5"/>
    <vehicle id="overtaking" type="emergency" route="r0" departPos="0"  depart="1"/>

</routes>
