<?xml version="1.0" encoding="UTF-8"?>

<!-- generated on Mon Feb 17 15:31:03 2020 by Eclipse SUMO netconvert Version v1_5_0+0130-ceb0a01
This data file and the accompanying materials
are made available under the terms of the Eclipse Public License v2.0
which accompanies this distribution, and is available at
http://www.eclipse.org/legal/epl-v20.html
SPDX-License-Identifier: EPL-2.0
<configuration xmlns:xsi="http://www.w3.org/2001/XMLSchema-instance" xsi:noNamespaceSchemaLocation="http://sumo.dlr.de/xsd/netconvertConfiguration.xsd">

    <input>
        <node-files value="input_plain.nod.xml"/>
        <edge-files value="input_plain.edg.xml"/>
    </input>

    <output>
        <write-license value="true"/>
    </output>

    <processing>
        <roundabouts.guess value="true"/>
    </processing>

    <junctions>
        <no-internal-links value="true"/>
    </junctions>

    <report>
        <xml-validation value="never"/>
        <aggregate-warnings value="5"/>
    </report>

</configuration>
-->

<net version="1.6" junctionCornerDetail="5" limitTurnSpeed="5.50" xmlns:xsi="http://www.w3.org/2001/XMLSchema-instance" xsi:noNamespaceSchemaLocation="http://sumo.dlr.de/xsd/net_file.xsd">

    <location netOffset="-392703.18,-5819257.60" convBoundary="0.00,0.00,331.63,290.75" origBoundary="1275890.000000,5218519.000000,1383308.000000,5282609.000000" projParameter="+proj=utm +zone=33 +ellps=WGS84 +datum=WGS84 +units=m +no_defs"/>

    <edge id="-53517343" from="565355469" to="61057727" priority="-4" spreadType="center" shape="42.07,260.31 33.20,258.27 30.44,256.11 28.98,251.69 30.17,243.88">
        <lane id="-53517343_0" index="0" speed="8.33" length="15.23" shape="30.04,254.91 29.42,253.02"/>
    </edge>
    <edge id="-733292862" from="817135706" to="817135705" priority="-6">
        <lane id="-733292862_0" index="0" allow="pedestrian" speed="1.39" length="42.47" shape="73.19,291.42 60.51,263.98"/>
    </edge>
    <edge id="-733292874" from="817135710" to="817135711" priority="-6">
        <lane id="-733292874_0" index="0" allow="pedestrian" speed="1.39" length="58.91" shape="289.52,184.47 262.46,139.34"/>
    </edge>
    <edge id="-733292875" from="817135712" to="565355470" priority="-2" spreadType="center">
        <lane id="-733292875_0" index="0" speed="13.89" length="54.22" shape="254.93,107.78 291.22,85.90"/>
        <lane id="-733292875_1" index="1" speed="13.89" length="54.22" shape="256.58,110.52 292.87,88.64"/>
        <lane id="-733292875_2" index="2" speed="13.89" length="54.22" shape="258.23,113.26 294.53,91.38"/>
        <lane id="-733292875_3" index="3" speed="13.89" length="54.22" shape="259.89,116.00 296.18,94.12"/>
    </edge>
    <edge id="-754278085" from="565355470" to="832012177" priority="-2" spreadType="center">
        <lane id="-754278085_0" index="0" speed="13.89" length="27.48" shape="296.29,81.09 315.82,69.58"/>
        <lane id="-754278085_1" index="1" speed="13.89" length="27.48" shape="297.91,83.84 317.45,72.34"/>
        <lane id="-754278085_2" index="2" speed="13.89" length="27.48" shape="299.54,86.60 319.07,75.10"/>
        <lane id="-754278085_3" index="3" speed="13.89" length="27.48" shape="301.16,89.36 320.69,77.86"/>
        <lane id="-754278085_4" index="4" speed="13.89" length="27.48" shape="302.78,92.12 322.32,80.62"/>
    </edge>
    <edge id="-774056209" from="845427206" to="848552965" priority="-6" shape="36.20,178.09 123.41,130.56 146.77,174.56">
        <lane id="-774056209_0" index="0" allow="pedestrian" speed="1.39" length="149.14" shape="35.43,176.69 124.06,128.38 145.19,168.17"/>
    </edge>
    <edge id="-778474594" from="61057727" to="848552962" priority="-2" spreadType="center">
        <lane id="-778474594_0" index="0" speed="13.89" length="20.29" shape="28.53,241.13 45.82,230.81"/>
        <lane id="-778474594_1" index="1" speed="13.89" length="20.29" shape="30.17,243.88 47.46,233.56"/>
        <lane id="-778474594_2" index="2" speed="13.89" length="20.29" shape="31.81,246.63 49.10,236.30"/>
    </edge>
    <edge id="-778474597" from="848552964" to="61057727" priority="-2" spreadType="center">
        <lane id="-778474597_0" index="0" speed="13.89" length="34.80" shape="-1.60,258.46 21.85,244.97"/>
        <lane id="-778474597_1" index="1" speed="13.89" length="34.80" shape="0.00,261.23 23.44,247.75"/>
        <lane id="-778474597_2" index="2" speed="13.89" length="34.80" shape="1.60,264.00 25.04,250.52"/>
    </edge>
    <edge id="-778474599" from="848552965" to="817135712" priority="-2" spreadType="center">
        <lane id="-778474599_0" index="0" speed="13.89" length="120.13" shape="149.40,169.40 243.31,116.41"/>
        <lane id="-778474599_1" index="1" speed="13.89" length="120.13" shape="150.97,172.19 244.88,119.19"/>
        <lane id="-778474599_2" index="2" speed="13.89" length="120.13" shape="152.54,174.98 246.45,121.98"/>
    </edge>
    <edge id="-778474600" from="848552962" to="848552965" priority="-2" spreadType="center">
        <lane id="-778474600_0" index="0" speed="13.89" length="115.36" shape="46.08,230.65 141.29,174.09"/>
        <lane id="-778474600_1" index="1" speed="13.89" length="115.36" shape="47.72,233.40 142.92,176.84"/>
        <lane id="-778474600_2" index="2" speed="13.89" length="115.36" shape="49.35,236.15 144.56,179.60"/>
    </edge>
    <edge id="-782340477" from="817135712" to="851117110" priority="-6" shape="251.39,115.52 218.35,63.94 215.44,55.11 226.76,44.84 253.54,27.57 292.99,0.00">
        <lane id="-782340477_0" index="0" allow="pedestrian" speed="1.39" length="165.83" shape="244.48,107.70 216.89,64.63 213.60,54.62 225.78,43.57 252.65,26.24 292.07,-1.31"/>
    </edge>
    <edge id="53517341" from="565355470" to="61057722" priority="-4" spreadType="center" shape="291.59,91.28 299.78,93.32 304.02,101.02 300.80,108.88">
        <lane id="53517341_0" index="0" speed="8.33" length="12.19" shape="302.24,97.79 302.74,98.70"/>
    </edge>
    <edge id="733292861" from="817135705" to="565355469" priority="-2" spreadType="center">
        <lane id="733292861_0" index="0" speed="13.89" length="28.56" shape="53.11,261.54 41.34,268.01"/>
        <lane id="733292861_1" index="1" speed="13.89" length="28.56" shape="51.56,258.74 39.80,265.21"/>
        <lane id="733292861_2" index="2" speed="13.89" length="28.56" shape="50.02,255.94 38.26,262.41"/>
        <lane id="733292861_3" index="3" speed="13.89" length="28.56" shape="48.48,253.13 36.72,259.60"/>
        <lane id="733292861_4" index="4" speed="13.89" length="28.56" shape="46.94,250.33 35.17,256.80"/>
    </edge>
    <edge id="733292862" from="817135705" to="817135706" priority="-6">
        <lane id="733292862_0" index="0" allow="pedestrian" speed="1.39" length="42.47" shape="63.42,262.64 76.09,290.08"/>
    </edge>
    <edge id="733292872" from="61057722" to="817135711" priority="-2" spreadType="center">
        <lane id="733292872_0" index="0" speed="13.89" length="55.09" shape="304.40,110.45 266.27,133.44"/>
        <lane id="733292872_1" index="1" speed="13.89" length="55.09" shape="302.75,107.71 264.61,130.70"/>
        <lane id="733292872_2" index="2" speed="13.89" length="55.09" shape="301.09,104.97 262.96,127.96"/>
    </edge>
    <edge id="733292874" from="817135711" to="817135710" priority="-6">
        <lane id="733292874_0" index="0" allow="pedestrian" speed="1.39" length="58.91" shape="265.21,137.69 292.26,182.83"/>
    </edge>
    <edge id="733292978" from="817135763" to="61057722" priority="-2" spreadType="center">
        <lane id="733292978_0" index="0" speed="13.89" length="9.68" shape="314.33,104.79 310.89,106.77"/>
        <lane id="733292978_1" index="1" speed="13.89" length="9.68" shape="312.73,102.02 309.30,103.99"/>
        <lane id="733292978_2" index="2" speed="13.89" length="9.68" shape="311.14,99.24 307.70,101.22"/>
    </edge>
    <edge id="754262765" from="832002545" to="817135705" priority="-2" spreadType="center">
        <lane id="754262765_0" index="0" speed="13.89" length="75.96" shape="121.50,220.18 64.96,253.02"/>
        <lane id="754262765_1" index="1" speed="13.89" length="75.96" shape="119.90,217.41 63.35,250.25"/>
        <lane id="754262765_2" index="2" speed="13.89" length="75.96" shape="118.29,214.65 61.75,247.48"/>
        <lane id="754262765_3" index="3" speed="13.89" length="75.96" shape="116.68,211.88 60.14,244.72"/>
    </edge>
    <edge id="774056209" from="848552965" to="845427206" priority="-6" shape="146.77,174.56 123.41,130.56 36.20,178.09">
        <lane id="774056209_0" index="0" allow="pedestrian" speed="1.39" length="149.14" shape="142.36,169.67 122.76,132.74 36.97,179.49"/>
    </edge>
    <edge id="778474595" from="565355469" to="848552963" priority="-2" spreadType="center">
        <lane id="778474595_0" index="0" speed="13.89" length="40.17" shape="36.18,271.17 7.77,287.79"/>
        <lane id="778474595_1" index="1" speed="13.89" length="40.17" shape="34.56,268.41 6.16,285.03"/>
        <lane id="778474595_2" index="2" speed="13.89" length="40.17" shape="32.95,265.65 4.54,282.27"/>
        <lane id="778474595_3" index="3" speed="13.89" length="40.17" shape="31.33,262.89 2.92,279.51"/>
        <lane id="778474595_4" index="4" speed="13.89" length="40.17" shape="29.71,260.12 1.31,276.75"/>
    </edge>
    <edge id="778474601" from="817135711" to="848552966" priority="-2" spreadType="center" shape="260.60,133.12 218.36,157.41 155.33,193.29">
        <lane id="778474601_0" index="0" speed="13.89" length="121.25" shape="258.20,138.19 219.95,160.19 157.11,195.96"/>
        <lane id="778474601_1" index="1" speed="13.89" length="121.25" shape="256.60,135.42 218.36,157.41 155.53,193.18"/>
        <lane id="778474601_2" index="2" speed="13.89" length="121.25" shape="255.01,132.65 216.77,154.63 153.94,190.40"/>
    </edge>
    <edge id="778474602" from="848552966" to="832002545" priority="-2" spreadType="center">
        <lane id="778474602_0" index="0" speed="13.89" length="38.82" shape="156.85,196.11 127.58,214.63"/>
        <lane id="778474602_1" index="1" speed="13.89" length="38.82" shape="155.14,193.41 125.87,211.92"/>
        <lane id="778474602_2" index="2" speed="13.89" length="38.82" shape="153.43,190.71 124.16,209.22"/>
    </edge>
    <edge id="781909616" from="850831077" to="817135763" priority="-2" spreadType="center">
        <lane id="781909616_0" index="0" speed="13.89" length="22.03" shape="333.31,93.13 314.68,104.58"/>
        <lane id="781909616_1" index="1" speed="13.89" length="22.03" shape="331.63,90.40 313.00,101.86"/>
        <lane id="781909616_2" index="2" speed="13.89" length="22.03" shape="329.95,87.67 311.33,99.13"/>
    </edge>
    <edge id="782340477" from="851117110" to="817135712" priority="-6" shape="292.99,0.00 253.54,27.57 226.76,44.84 215.44,55.11 218.35,63.94 251.39,115.52">
        <lane id="782340477_0" index="0" allow="pedestrian" speed="1.39" length="165.83" shape="293.91,1.31 254.43,28.90 227.74,46.11 217.28,55.60 219.81,63.25 247.17,105.97"/>
    </edge>

    <junction id="565355469" type="priority" x="42.07" y="260.31" incLanes="733292861_0 733292861_1 733292861_2 733292861_3 733292861_4" intLanes="" shape="42.11,269.42 34.40,255.40 33.08,255.63 32.50,255.34 31.96,254.77 31.47,253.93 31.04,252.82 29.05,257.01 29.31,257.77 29.36,258.05 29.33,258.30 29.19,258.53 28.91,258.74 36.99,272.55">
        <request index="0" response="000000" foes="000000"/>
        <request index="1" response="000000" foes="000000"/>
        <request index="2" response="000000" foes="000000"/>
        <request index="3" response="000000" foes="000000"/>
        <request index="4" response="000000" foes="000000"/>
        <request index="5" response="000000" foes="000000"/>
    </junction>
    <junction id="565355470" type="priority" x="291.59" y="91.28" incLanes="-733292875_0 -733292875_1 -733292875_2 -733292875_3" intLanes="" shape="301.51,99.78 302.97,95.79 302.68,94.89 302.72,94.49 302.89,94.12 303.18,93.79 303.60,93.49 295.48,79.71 293.49,81.34 292.93,82.11 292.38,82.87 291.60,83.67 290.39,84.53 297.00,95.49 298.22,95.53 298.94,96.08 299.72,96.97 300.58,98.20">
        <request index="0" response="000000" foes="000000"/>
        <request index="1" response="000000" foes="000000"/>
        <request index="2" response="000000" foes="000000"/>
        <request index="3" response="000000" foes="000000"/>
        <request index="4" response="000000" foes="000000"/>
        <request index="5" response="000000" foes="000000"/>
    </junction>
    <junction id="61057722" type="priority" x="300.80" y="108.88" incLanes="733292978_0 733292978_1 733292978_2 53517341_0" intLanes="" shape="311.69,108.16 306.90,99.83 306.10,100.10 305.75,100.07 305.43,99.91 305.14,99.65 304.88,99.27 300.60,98.13 301.53,100.49 301.61,101.47 301.42,102.32 300.98,103.02 300.27,103.60 305.23,111.82">
        <request index="0" response="00000" foes="11000"/>
        <request index="1" response="00000" foes="11000"/>
        <request index="2" response="00000" foes="11000"/>
        <request index="3" response="00111" foes="00111"/>
        <request index="4" response="00111" foes="00111"/>
    </junction>
    <junction id="61057727" type="priority" x="30.17" y="243.88" incLanes="-778474597_0 -778474597_1 -778474597_2 -53517343_0" intLanes="" shape="32.63,248.00 27.71,239.76 21.05,243.59 25.84,251.91 26.61,251.68 26.94,251.76 27.22,251.97 27.46,252.32 27.66,252.79 31.18,253.25 30.80,251.04 30.94,250.11 31.29,249.29 31.85,248.59">
        <request index="0" response="00000" foes="11000"/>
        <request index="1" response="00000" foes="11000"/>
        <request index="2" response="00000" foes="11000"/>
        <request index="3" response="00111" foes="00111"/>
        <request index="4" response="00111" foes="00111"/>
    </junction>
    <junction id="817135705" type="priority" x="56.83" y="252.19" incLanes="-733292862_0 754262765_0 754262765_1 754262765_2 754262765_3" intLanes="" shape="59.06,264.65 64.87,261.96 63.83,258.66 63.81,257.30 64.13,256.14 64.78,255.17 65.76,254.40 59.34,243.33 56.65,244.76 54.56,245.61 52.78,246.18 50.99,246.74 48.89,247.56 46.17,248.93 53.88,262.94 56.01,262.28 56.93,262.41 57.74,262.85 58.45,263.59">
        <request index="0" response="00000" foes="00000"/>
        <request index="1" response="00000" foes="00000"/>
        <request index="2" response="00000" foes="00000"/>
        <request index="3" response="00000" foes="00000"/>
        <request index="4" response="00000" foes="00000"/>
    </junction>
    <junction id="817135706" type="dead_end" x="74.64" y="290.75" incLanes="733292862_0" intLanes="" shape="74.64,290.75 77.55,289.41 74.64,290.75"/>
    <junction id="817135710" type="dead_end" x="290.89" y="183.65" incLanes="733292874_0" intLanes="" shape="290.89,183.65 293.63,182.00 290.89,183.65"/>
    <junction id="817135711" type="priority" x="260.60" y="133.12" incLanes="-733292874_0 733292872_0 733292872_1 733292872_2" intLanes="" shape="261.09,140.16 266.58,136.87 266.29,136.07 266.32,135.71 266.46,135.38 266.72,135.08 267.09,134.81 262.14,126.59 254.21,131.26 258.99,139.58 259.80,139.31 260.17,139.35 260.50,139.51 260.81,139.78">
        <request index="0" response="000" foes="000"/>
        <request index="1" response="000" foes="000"/>
        <request index="2" response="000" foes="000"/>
    </junction>
    <junction id="817135712" type="priority" x="251.39" y="115.52" incLanes="782340477_0 -778474599_0 -778474599_1 -778474599_2" intLanes="" shape="260.71,117.37 254.10,106.41 251.96,107.18 250.99,107.12 250.10,106.75 249.27,106.08 248.52,105.11 243.13,108.56 244.34,111.27 244.42,112.42 244.14,113.42 243.51,114.29 242.52,115.01 247.24,123.37 250.03,121.93 252.18,121.05 254.02,120.44 255.84,119.81 257.97,118.89">
        <request index="0" response="0000" foes="0000"/>
        <request index="1" response="0000" foes="0000"/>
        <request index="2" response="0000" foes="0000"/>
        <request index="3" response="0000" foes="0000"/>
    </junction>
    <junction id="817135763" type="priority" x="312.87" y="101.94" incLanes="781909616_0 781909616_1 781909616_2" intLanes="" shape="315.52,105.95 310.49,97.77 310.34,97.86 315.13,106.18">
        <request index="0" response="000" foes="000"/>
        <request index="1" response="000" foes="000"/>
        <request index="2" response="000" foes="000"/>
    </junction>
    <junction id="832002545" type="priority" x="122.52" y="214.04" incLanes="778474602_0 778474602_1 778474602_2" intLanes="" shape="128.44,215.98 123.30,207.86 120.66,209.04 119.62,209.23 118.58,209.40 117.38,209.76 115.88,210.50 122.31,221.57 124.71,219.68 125.40,218.82 126.09,217.95 127.01,217.02">
        <request index="0" response="0000" foes="0000"/>
        <request index="1" response="0000" foes="0000"/>
        <request index="2" response="0000" foes="0000"/>
        <request index="3" response="0000" foes="0000"/>
    </junction>
    <junction id="832012177" type="dead_end" x="319.07" y="75.10" incLanes="-754278085_0 -754278085_1 -754278085_2 -754278085_3 -754278085_4" intLanes="" shape="315.01,68.21 323.13,81.99"/>
    <junction id="845427206" type="dead_end" x="36.20" y="178.09" incLanes="774056209_0" intLanes="" shape="36.20,178.09 37.73,180.90 36.20,178.09"/>
    <junction id="848552962" type="priority" x="47.59" y="233.48" incLanes="-778474594_0 -778474594_1 -778474594_2" intLanes="" shape="50.17,237.53 45.27,229.28 45.00,229.44 49.92,237.68">
        <request index="0" response="000" foes="000"/>
        <request index="1" response="000" foes="000"/>
        <request index="2" response="000" foes="000"/>
    </junction>
    <junction id="848552963" type="dead_end" x="4.54" y="282.27" incLanes="778474595_0 778474595_1 778474595_2 778474595_3 778474595_4" intLanes="" shape="8.58,289.17 0.50,275.37"/>
    <junction id="848552964" type="dead_end" x="0.00" y="261.23" incLanes="" intLanes="" shape="2.39,265.39 -2.39,257.07"/>
    <junction id="848552965" type="priority" x="146.77" y="174.56" incLanes="-774056209_0 -778474600_0 -778474600_1 -778474600_2" intLanes="" shape="153.33,176.37 148.61,168.01 147.81,168.27 147.46,168.23 147.14,168.08 146.85,167.81 146.60,167.42 140.95,170.42 141.26,171.36 141.24,171.76 141.10,172.12 140.84,172.44 140.47,172.72 145.38,180.97">
        <request index="0" response="000" foes="000"/>
        <request index="1" response="000" foes="000"/>
        <request index="2" response="000" foes="000"/>
    </junction>
    <junction id="848552966" type="priority" x="155.33" y="193.29" incLanes="778474601_0 778474601_1 778474601_2" intLanes="" shape="157.90,197.35 153.15,189.01 152.57,189.35 157.71,197.47">
        <request index="0" response="000" foes="000"/>
        <request index="1" response="000" foes="000"/>
        <request index="2" response="000" foes="000"/>
    </junction>
    <junction id="850831077" type="dead_end" x="331.63" y="90.40" incLanes="" intLanes="" shape="329.12,86.31 334.14,94.49"/>
    <junction id="851117110" type="dead_end" x="292.99" y="0.00" incLanes="-782340477_0" intLanes="" shape="292.99,0.00 291.16,-2.62 292.99,0.00"/>

    <connection from="-53517343" to="-778474594" fromLane="0" toLane="1" dir="l" state="m"/>
    <connection from="-53517343" to="-778474594" fromLane="0" toLane="2" dir="l" state="m"/>
    <connection from="-733292875" to="-754278085" fromLane="0" toLane="0" dir="s" state="M"/>
    <connection from="-733292875" to="-754278085" fromLane="1" toLane="1" dir="s" state="M"/>
    <connection from="-733292875" to="-754278085" fromLane="2" toLane="2" dir="s" state="M"/>
    <connection from="-733292875" to="-754278085" fromLane="3" toLane="3" dir="s" state="M"/>
    <connection from="-733292875" to="-754278085" fromLane="3" toLane="4" dir="s" state="M"/>
    <connection from="-733292875" to="53517341" fromLane="3" toLane="0" dir="l" state="M"/>
    <connection from="-778474594" to="-778474600" fromLane="0" toLane="0" dir="s" state="M"/>
    <connection from="-778474594" to="-778474600" fromLane="1" toLane="1" dir="s" state="M"/>
    <connection from="-778474594" to="-778474600" fromLane="2" toLane="2" dir="s" state="M"/>
    <connection from="-778474597" to="-778474594" fromLane="0" toLane="0" dir="s" state="M"/>
    <connection from="-778474597" to="-778474594" fromLane="1" toLane="1" dir="s" state="M"/>
    <connection from="-778474597" to="-778474594" fromLane="2" toLane="2" dir="s" state="M"/>
    <connection from="-778474599" to="-733292875" fromLane="0" toLane="0" dir="s" state="M"/>
    <connection from="-778474599" to="-733292875" fromLane="1" toLane="1" dir="s" state="M"/>
    <connection from="-778474599" to="-733292875" fromLane="2" toLane="2" dir="s" state="M"/>
    <connection from="-778474599" to="-733292875" fromLane="2" toLane="3" dir="s" state="M"/>
    <connection from="-778474600" to="-778474599" fromLane="0" toLane="0" dir="s" state="M"/>
    <connection from="-778474600" to="-778474599" fromLane="1" toLane="1" dir="s" state="M"/>
    <connection from="-778474600" to="-778474599" fromLane="2" toLane="2" dir="s" state="M"/>
    <connection from="53517341" to="733292872" fromLane="0" toLane="1" dir="s" state="m"/>
    <connection from="53517341" to="733292872" fromLane="0" toLane="2" dir="s" state="m"/>
    <connection from="733292861" to="778474595" fromLane="0" toLane="0" dir="s" state="M"/>
    <connection from="733292861" to="778474595" fromLane="1" toLane="1" dir="s" state="M"/>
    <connection from="733292861" to="778474595" fromLane="2" toLane="2" dir="s" state="M"/>
    <connection from="733292861" to="778474595" fromLane="3" toLane="3" dir="s" state="M"/>
    <connection from="733292861" to="778474595" fromLane="4" toLane="4" dir="s" state="M"/>
    <connection from="733292861" to="-53517343" fromLane="4" toLane="0" dir="L" state="M"/>
    <connection from="733292872" to="778474601" fromLane="0" toLane="0" dir="s" state="M"/>
    <connection from="733292872" to="778474601" fromLane="1" toLane="1" dir="s" state="M"/>
    <connection from="733292872" to="778474601" fromLane="2" toLane="2" dir="s" state="M"/>
    <connection from="733292978" to="733292872" fromLane="0" toLane="0" dir="s" state="M"/>
    <connection from="733292978" to="733292872" fromLane="1" toLane="1" dir="s" state="M"/>
    <connection from="733292978" to="733292872" fromLane="2" toLane="2" dir="s" state="M"/>
    <connection from="754262765" to="733292861" fromLane="0" toLane="0" dir="s" state="M"/>
    <connection from="754262765" to="733292861" fromLane="1" toLane="1" dir="s" state="M"/>
    <connection from="754262765" to="733292861" fromLane="2" toLane="2" dir="s" state="M"/>
    <connection from="754262765" to="733292861" fromLane="3" toLane="3" dir="s" state="M"/>
    <connection from="754262765" to="733292861" fromLane="3" toLane="4" dir="s" state="M"/>
    <connection from="778474601" to="778474602" fromLane="0" toLane="0" dir="s" state="M"/>
    <connection from="778474601" to="778474602" fromLane="1" toLane="1" dir="s" state="M"/>
    <connection from="778474601" to="778474602" fromLane="2" toLane="2" dir="s" state="M"/>
    <connection from="778474602" to="754262765" fromLane="0" toLane="0" dir="s" state="M"/>
    <connection from="778474602" to="754262765" fromLane="1" toLane="1" dir="s" state="M"/>
    <connection from="778474602" to="754262765" fromLane="2" toLane="2" dir="s" state="M"/>
    <connection from="778474602" to="754262765" fromLane="2" toLane="3" dir="s" state="M"/>
    <connection from="781909616" to="733292978" fromLane="0" toLane="0" dir="s" state="M"/>
    <connection from="781909616" to="733292978" fromLane="1" toLane="1" dir="s" state="M"/>
    <connection from="781909616" to="733292978" fromLane="2" toLane="2" dir="s" state="M"/>

</net>
