<?xml version="1.0" encoding="UTF-8"?>

<!-- generated on 2022-03-29 15:43:04 by Eclipse SUMO sumo Version v1_12_0+1743-2adbd7c
<configuration xmlns:xsi="http://www.w3.org/2001/XMLSchema-instance" xsi:noNamespaceSchemaLocation="http://sumo.dlr.de/xsd/sumoConfiguration.xsd">

    <input>
        <net-file value="net.net.xml"/>
        <route-files value="input_routes.rou.xml"/>
        <additional-files value="input_additional.add.xml"/>
    </input>

    <output>
        <tripinfo-output value="tripinfo.xml"/>
        <save-state.times value="20"/>
        <save-state.files value="state.xml"/>
    </output>

    <processing>
        <default.speeddev value="0"/>
    </processing>

    <report>
        <verbose value="true"/>
        <duration-log.disable value="true"/>
        <no-step-log value="true"/>
    </report>

</configuration>
-->

<snapshot xmlns:xsi="http://www.w3.org/2001/XMLSchema-instance" xsi:noNamespaceSchemaLocation="http://sumo.dlr.de/xsd/state_file.xsd" version="v1_12_0+1743-2adbd7c" time="20.00" type="micro">
    <route id="r0" state="1" edges="beg middle end"/>
    <delay number="2" begin="2" end="0" depart="1.00" time="0.00"/>
    <vType id="t0" sigma="0"/>
    <vehicle id="v0" type="t0" depart="0.00" route="r0" distance="7 0" speedFactor="1.0000" line="testLine" state="2050 0 1 5.10 0 6.62 19000 1 1" pos="60.00 55.00 0.00" speed="0.00 0.00" angle="90.00" posLat="0.00" waitingTime="100000 0">
        <stop lane="middle_0" endPos="10.00" duration="2.00" parking="0" tripId="testTripID" line="testLine" started="6.00" ended="8.00"/>
        <stop lane="middle_0" startPos="59.80" endPos="60.00" duration="16.00" parking="0" started="15.00"/>
        <stop lane="middle_0" startPos="149.80" endPos="150.00" duration="20.00" parking="0" tripId="testTripID2" line="testLine2"/>
        <stop busStop="busstop" duration="20.00" parking="1"/>
        <param key="tripId" value="testTripID"/>
        <device id="tripinfo_v0" state="beg_0 0 0 1.9 0 0 0 7000 -1"/>
    </vehicle>
    <vehicle id="v1" type="t0" depart="3.00" route="r0" distance="7 0" speedFactor="1.0000" state="2050 4000 1 5.10 4000 10.16 19000 0 0" pos="52.50 47.50 0.00" speed="0.00 0.00" angle="90.00" posLat="0.00" waitingTime="100000 2 0 4000 11000 12000">
        <device id="tripinfo_v1" state="beg_0 0 0 1.9 5000 1 2 0 -1"/>
    </vehicle>
    <lane id="middle_0">
        <vehicles value="v1 v0"/>
    </lane>
</snapshot>
