<?xml version="1.0"?>

<!-- generated on 03/04/08 10:20:13 by SUMO netconvert Version 0.9.8
<configuration>

   <input>
      <xml-node-files>castellon.nod.xml</xml-node-files>
      <xml-edge-files>castellon.edg.xml</xml-edge-files>
      <xml-connection-files>castellon.con.xml</xml-connection-files>
      <xml-type-files>castellon.typ.xml</xml-type-files>
   </input>

   <output>
      <output-file>castellon.net.xml</output-file>
   </output>

   <processing>
      <no-turnarounds>true</no-turnarounds>
   </processing>

</configuration>
-->

<net>

   <net-offset>26.000000,1263.000000</net-offset>
   <conv-boundary>0.000000,0.000000,2848.000000,1326.000000</conv-boundary>
   <orig-boundary>-26.000000,-1263.000000,2822.000000,63.000000</orig-boundary>
   <orig-proj>!</orig-proj>

   
   <node_count>48</node_count>


   <edge id="01" from="0" to="1" priority="1" type="ReservedBusLane" function="normal">
      <lanes>
         <lane id="01_0" depart="1" vclasses="" maxspeed="27.78" length="47.90">23.34,1261.79 -1.44,1220.81</lane>
      </lanes>
      
   </edge>

   <edge id="1011" from="10" to="11" priority="10" type="NormalRoad" function="normal">
      <lanes>
         <lane id="1011_0" depart="1" vclasses="" maxspeed="13.88" length="310.83">2352.42,393.60 2051.65,472.02</lane>
      </lanes>
      
   </edge>

   <edge id="1112" from="11" to="12" priority="10" type="NormalRoad" function="normal">
      <lanes>
         <lane id="1112_0" depart="1" vclasses="" maxspeed="13.88" length="99.27">2047.05,469.99 2023.42,373.57</lane>
      </lanes>
      
      
   </edge>

   <edge id="1213" from="12" to="13" priority="10" type="NormalRoad" function="normal">
      <lanes>
         <lane id="1213_0" depart="1" vclasses="" maxspeed="13.88" length="364.06">2019.40,371.07 1656.84,404.04</lane>
      </lanes>
      
      
      
   </edge>

   <edge id="13" from="1" to="3" priority="1" type="ReservedBusLane" function="normal">
      <lanes>
         <lane id="13_0" depart="1" vclasses="" maxspeed="27.78" length="350.26">-0.77,1218.54 314.29,1065.51</lane>
      </lanes>
      
   </edge>

   <edge id="1319" from="13" to="19" priority="10" type="NormalRoad" function="normal">
      <lanes>
         <lane id="1319_0" depart="1" vclasses="" maxspeed="13.88" length="423.21">1645.57,405.51 1229.70,483.98</lane>
      </lanes>
      
   </edge>

   <edge id="135" from="13" to="5" priority="10" type="NormalRoad" function="normal">
      <lanes>
         <lane id="135_0" depart="1" vclasses="" maxspeed="13.88" length="359.51">1654.90,407.88 1841.86,714.95</lane>
      </lanes>
      
      
   </edge>

   <edge id="1416" from="14" to="16" priority="10" type="NormalRoad" function="normal">
      <lanes>
         <lane id="1416_0" depart="1" vclasses="" maxspeed="13.88" length="330.24">1461.37,1097.52 1158.50,965.89</lane>
      </lanes>
      
      
   </edge>

   <edge id="1514" from="15" to="14" priority="10" type="NormalRoad" function="normal">
      <lanes>
         <lane id="1514_0" depart="1" vclasses="" maxspeed="13.88" length="238.77">1662.89,967.00 1462.88,1097.40</lane>
      </lanes>
      
   </edge>

   <edge id="15cruceB45" from="15" to="cruceB45" priority="10" type="NormalRoad" function="normal">
      <lanes>
         <lane id="15cruceB45_0" depart="1" vclasses="" maxspeed="13.88" length="218.07">1663.43,962.65 1515.60,802.34</lane>
      </lanes>
      
      
      
   </edge>

   <edge id="1617" from="16" to="17" priority="10" type="NormalRoad" function="normal">
      <lanes>
         <lane id="1617_0" depart="1" vclasses="" maxspeed="13.88" length="480.70">1154.32,966.43 777.02,1264.30</lane>
      </lanes>
   </edge>

   <edge id="16cruceA45" from="16" to="cruceA45" priority="10" type="NormalRoad" function="normal">
      <lanes>
         <lane id="16cruceA45_0" depart="1" vclasses="" maxspeed="13.88" length="92.82">1155.59,960.31 1200.29,878.96</lane>
      </lanes>
      
      
      
   </edge>

   <edge id="1716" from="17" to="16" priority="10" type="NormalRoad" function="normal">
      <lanes>
         <lane id="1716_0" depart="1" vclasses="" maxspeed="13.88" length="480.70">774.98,1261.70 1152.27,963.84</lane>
      </lanes>
      
   </edge>

   <edge id="1918" from="19" to="18" priority="10" type="NormalRoad" function="normal">
      <lanes>
         <lane id="1918_0" depart="1" vclasses="" maxspeed="13.88" length="296.05">1223.05,485.06 929.59,524.19</lane>
      </lanes>
   </edge>

   <edge id="20" from="2" to="0" priority="1" type="ReservedBusLane" function="normal">
      <lanes>
         <lane id="20_0" depart="1" vclasses="" maxspeed="27.78" length="341.43">331.78,1103.46 29.83,1262.84</lane>
      </lanes>
      
      
   </edge>

   <edge id="34" from="3" to="4" priority="1" type="ReservedBusLane" function="normal">
      <lanes>
         <lane id="34_0" depart="1" vclasses="" maxspeed="27.78" length="40.73">315.33,1065.38 355.16,1073.92</lane>
      </lanes>
      
      
   </edge>

   <edge id="42" from="4" to="2" priority="1" type="ReservedBusLane" function="normal">
      <lanes>
         <lane id="42_0" depart="1" vclasses="" maxspeed="27.78" length="34.36">356.46,1078.88 332.16,1103.17</lane>
      </lanes>
      
   </edge>

   <edge id="4cruceA45" from="4" to="cruceA45" priority="1" type="ReservedBusLane" function="normal">
      <lanes>
         <lane id="4cruceA45_0" depart="1" vclasses="" maxspeed="27.78" length="861.90">358.96,1073.83 1197.01,872.46</lane>
      </lanes>
      
      
   </edge>

   <edge id="56" from="5" to="6" priority="10" type="NormalRoad" function="normal">
      <lanes>
         <lane id="56_0" depart="1" vclasses="" maxspeed="13.88" length="98.22">1847.79,722.75 1914.45,794.89</lane>
      </lanes>
      
      
      
   </edge>

   <edge id="5cruceB45" from="5" to="cruceB45" priority="1" type="ReservedBusLane" function="normal">
      <lanes>
         <lane id="5cruceB45_0" depart="1" vclasses="" maxspeed="27.78" length="329.98">1840.90,722.17 1519.29,796.02</lane>
      </lanes>
      
      
      
   </edge>

   <edge id="615" from="6" to="15" priority="10" type="NormalRoad" function="normal">
      <lanes>
         <lane id="615_0" depart="1" vclasses="" maxspeed="13.88" length="286.67">1910.62,804.50 1670.92,961.75</lane>
      </lanes>
      
      
   </edge>

   <edge id="67" from="6" to="7" priority="10" type="NormalRoad" function="normal">
      <lanes>
         <lane id="67_0" depart="1" vclasses="" maxspeed="13.88" length="266.26">1919.77,794.98 2151.66,664.12</lane>
      </lanes>
      
      
      
   </edge>

   <edge id="711" from="7" to="11" priority="10" type="NormalRoad" function="normal">
      <lanes>
         <lane id="711_0" depart="1" vclasses="" maxspeed="13.88" length="210.60">2153.19,659.59 2049.94,476.03</lane>
      </lanes>
      
   </edge>

   <edge id="78" from="7" to="8" priority="10" type="NormalRoad" function="normal">
      <lanes>
         <lane id="78_0" depart="1" vclasses="" maxspeed="13.88" length="710.71">2161.24,660.03 2842.86,458.80</lane>
      </lanes>
      
      
   </edge>

   <edge id="89" from="8" to="9" priority="10" type="NormalRoad" function="normal">
      <lanes>
         <lane id="89_0" depart="1" vclasses="" maxspeed="13.88" length="204.10">2844.87,454.91 2779.22,261.66</lane>
      </lanes>
      
      
   </edge>

   <edge id="910" from="9" to="10" priority="10" type="NormalRoad" function="normal">
      <lanes>
         <lane id="910_0" depart="1" vclasses="" maxspeed="13.88" length="443.15">2772.83,253.13 2352.52,393.57</lane>
      </lanes>
      
   </edge>

   <edge id="busstation0i" from="busstation" to="0" priority="1" type="ReservedBusLane" function="normal">
      <lanes>
         <lane id="busstation0i_0" depart="1" vclasses="" maxspeed="27.78" length="46.54">24.35,1313.00 24.35,1266.46</lane>
      </lanes>
      
   </edge>

   <edge id="busstation0o" from="0" to="busstation" priority="1" type="ReservedBusLane" function="normal">
      <lanes>
         <lane id="busstation0o_0" depart="1" vclasses="" maxspeed="27.78" length="46.54">27.65,1266.46 27.65,1313.00</lane>
      </lanes>
   </edge>

   <edge id="cruce12iS" from="cruce12S" to="12" priority="10" type="NormalRoad" function="normal">
      <lanes>
         <lane id="cruce12iS_0" depart="1" vclasses="" maxspeed="13.88" length="198.85">2025.65,169.00 2025.65,367.85</lane>
      </lanes>
      
   </edge>

   <edge id="cruce12iS_" from="cruce12S2" to="cruce12S" priority="10" type="NormalRoad" function="normal">
      <lanes>
         <lane id="cruce12iS__0" depart="1" vclasses="" maxspeed="13.88" length="50.00">2025.65,119.00 2025.65,169.00</lane>
      </lanes>
      
   </edge>

   <edge id="cruce12oS" from="12" to="cruce12S" priority="10" type="NormalRoad" function="normal">
      <lanes>
         <lane id="cruce12oS_0" depart="1" vclasses="" maxspeed="13.88" length="198.85">2022.35,367.85 2022.35,169.00</lane>
      </lanes>
      
   </edge>

   <edge id="cruce12oS_" from="cruce12S" to="cruce12S2" priority="10" type="NormalRoad" function="normal">
      <lanes>
         <lane id="cruce12oS__0" depart="1" vclasses="" maxspeed="13.88" length="50.00">2022.35,169.00 2022.35,119.00</lane>
      </lanes>
   </edge>

   <edge id="cruce13iS" from="cruce13S" to="13" priority="10" type="NormalRoad" function="normal">
      <lanes>
         <lane id="cruce13iS_0" depart="1" vclasses="" maxspeed="13.88" length="198.25">1651.65,203.00 1651.65,401.25</lane>
      </lanes>
      
      
   </edge>

   <edge id="cruce13iS_" from="cruce13S2" to="cruce13S" priority="10" type="NormalRoad" function="normal">
      <lanes>
         <lane id="cruce13iS__0" depart="1" vclasses="" maxspeed="13.88" length="50.00">1651.65,153.00 1651.65,203.00</lane>
      </lanes>
      
   </edge>

   <edge id="cruce13oS" from="13" to="cruce13S" priority="10" type="NormalRoad" function="normal">
      <lanes>
         <lane id="cruce13oS_0" depart="1" vclasses="" maxspeed="13.88" length="198.25">1648.35,401.25 1648.35,203.00</lane>
      </lanes>
      
   </edge>

   <edge id="cruce13oS_" from="cruce13S" to="cruce13S2" priority="10" type="NormalRoad" function="normal">
      <lanes>
         <lane id="cruce13oS__0" depart="1" vclasses="" maxspeed="13.88" length="50.00">1648.35,203.00 1648.35,153.00</lane>
      </lanes>
   </edge>

   <edge id="cruce6iN" from="cruce6N" to="6" priority="10" type="NormalRoad" function="normal">
      <lanes>
         <lane id="cruce6iN_0" depart="1" vclasses="" maxspeed="13.88" length="192.48">1914.35,999.00 1914.35,806.52</lane>
      </lanes>
      
      
   </edge>

   <edge id="cruce6iN_" from="cruce6N2" to="cruce6N" priority="10" type="NormalRoad" function="normal">
      <lanes>
         <lane id="cruce6iN__0" depart="1" vclasses="" maxspeed="13.88" length="50.00">1914.35,1049.00 1914.35,999.00</lane>
      </lanes>
      
   </edge>

   <edge id="cruce6oN" from="6" to="cruce6N" priority="10" type="NormalRoad" function="normal">
      <lanes>
         <lane id="cruce6oN_0" depart="1" vclasses="" maxspeed="13.88" length="192.48">1917.65,806.52 1917.65,999.00</lane>
      </lanes>
      
   </edge>

   <edge id="cruce6oN_" from="cruce6N" to="cruce6N2" priority="10" type="NormalRoad" function="normal">
      <lanes>
         <lane id="cruce6oN__0" depart="1" vclasses="" maxspeed="13.88" length="50.00">1917.65,999.00 1917.65,1049.00</lane>
      </lanes>
   </edge>

   <edge id="cruce7iN" from="cruce7N" to="7" priority="10" type="NormalRoad" function="normal">
      <lanes>
         <lane id="cruce7iN_0" depart="1" vclasses="" maxspeed="13.88" length="196.72">2155.35,863.00 2155.35,666.28</lane>
      </lanes>
      
      
   </edge>

   <edge id="cruce7iN_" from="cruce7N2" to="cruce7N" priority="10" type="NormalRoad" function="normal">
      <lanes>
         <lane id="cruce7iN__0" depart="1" vclasses="" maxspeed="13.88" length="50.00">2155.35,913.00 2155.35,863.00</lane>
      </lanes>
      
   </edge>

   <edge id="cruce7oN" from="7" to="cruce7N" priority="10" type="NormalRoad" function="normal">
      <lanes>
         <lane id="cruce7oN_0" depart="1" vclasses="" maxspeed="13.88" length="196.72">2158.65,666.28 2158.65,863.00</lane>
      </lanes>
      
   </edge>

   <edge id="cruce7oN_" from="cruce7N" to="cruce7N2" priority="10" type="NormalRoad" function="normal">
      <lanes>
         <lane id="cruce7oN__0" depart="1" vclasses="" maxspeed="13.88" length="50.00">2158.65,863.00 2158.65,913.00</lane>
      </lanes>
   </edge>

   <edge id="cruce8iN" from="cruce8N" to="8" priority="10" type="NormalRoad" function="normal">
      <lanes>
         <lane id="cruce8iN_0" depart="1" vclasses="" maxspeed="13.88" length="188.78">2846.35,659.00 2846.35,470.22</lane>
      </lanes>
      
   </edge>

   <edge id="cruce8iN_" from="cruce8N2" to="cruce8N" priority="10" type="NormalRoad" function="normal">
      <lanes>
         <lane id="cruce8iN__0" depart="1" vclasses="" maxspeed="13.88" length="50.00">2846.35,709.00 2846.35,659.00</lane>
      </lanes>
      
   </edge>

   <edge id="cruce8oN" from="8" to="cruce8N" priority="10" type="NormalRoad" function="normal">
      <lanes>
         <lane id="cruce8oN_0" depart="1" vclasses="" maxspeed="13.88" length="188.78">2849.65,470.22 2849.65,659.00</lane>
      </lanes>
      
   </edge>

   <edge id="cruce8oN_" from="cruce8N" to="cruce8N2" priority="10" type="NormalRoad" function="normal">
      <lanes>
         <lane id="cruce8oN__0" depart="1" vclasses="" maxspeed="13.88" length="50.00">2849.65,659.00 2849.65,709.00</lane>
      </lanes>
   </edge>

   <edge id="cruce9iS" from="cruce9S" to="9" priority="10" type="NormalRoad" function="normal">
      <lanes>
         <lane id="cruce9iS_0" depart="1" vclasses="" maxspeed="13.88" length="199.64">2778.65,50.00 2778.65,249.64</lane>
      </lanes>
      
   </edge>

   <edge id="cruce9iS_" from="cruce9S2" to="cruce9S" priority="10" type="NormalRoad" function="normal">
      <lanes>
         <lane id="cruce9iS__0" depart="1" vclasses="" maxspeed="13.88" length="50.00">2778.65,0.00 2778.65,50.00</lane>
      </lanes>
      
   </edge>

   <edge id="cruce9oS" from="9" to="cruce9S" priority="10" type="NormalRoad" function="normal">
      <lanes>
         <lane id="cruce9oS_0" depart="1" vclasses="" maxspeed="13.88" length="199.64">2775.35,249.64 2775.35,50.00</lane>
      </lanes>
      
   </edge>

   <edge id="cruce9oS_" from="cruce9S" to="cruce9S2" priority="10" type="NormalRoad" function="normal">
      <lanes>
         <lane id="cruce9oS__0" depart="1" vclasses="" maxspeed="13.88" length="50.00">2775.35,50.00 2775.35,0.00</lane>
      </lanes>
   </edge>

   <edge id="cruceA4518" from="cruceA45" to="18" priority="10" type="NormalRoad" function="normal">
      <lanes>
         <lane id="cruceA4518_0" depart="1" vclasses="" maxspeed="13.88" length="435.55">1200.57,867.87 928.01,528.14</lane>
      </lanes>
   </edge>

   <edge id="cruceA454" from="cruceA45" to="4" priority="1" type="ReservedBusLane" function="normal">
      <lanes>
         <lane id="cruceA454_0" depart="1" vclasses="" maxspeed="27.78" length="861.90">1197.78,875.67 359.73,1077.04</lane>
      </lanes>
      
   </edge>

   <edge id="cruceA45cruceB45" from="cruceA45" to="cruceB45" priority="1" type="ReservedBusLane" function="normal">
      <lanes>
         <lane id="cruceA45cruceB45_0" depart="1" vclasses="" maxspeed="27.78" length="308.39">1205.55,870.41 1504.85,796.08</lane>
      </lanes>
      
      
      
   </edge>

   <edge id="cruceB4515" from="cruceB45" to="15" priority="10" type="NormalRoad" function="normal">
      <lanes>
         <lane id="cruceB4515_0" depart="1" vclasses="" maxspeed="13.88" length="218.07">1518.03,800.10 1665.86,960.41</lane>
      </lanes>
      
   </edge>

   <edge id="cruceB4519" from="cruceB45" to="19" priority="10" type="NormalRoad" function="normal">
      <lanes>
         <lane id="cruceB4519_0" depart="1" vclasses="" maxspeed="13.88" length="411.74">1506.09,791.98 1228.35,488.02</lane>
      </lanes>
      
   </edge>

   <edge id="cruceB455" from="cruceB45" to="5" priority="1" type="ReservedBusLane" function="normal">
      <lanes>
         <lane id="cruceB455_0" depart="1" vclasses="" maxspeed="27.78" length="329.98">1518.55,792.80 1840.17,718.96</lane>
      </lanes>
      
   </edge>

   <edge id="cruceB45cruceA45" from="cruceB45" to="cruceA45" priority="1" type="ReservedBusLane" function="normal">
      <lanes>
         <lane id="cruceB45cruceA45_0" depart="1" vclasses="" maxspeed="27.78" length="308.39">1505.64,799.28 1206.34,873.61</lane>
      </lanes>
      
      
   </edge>


   <row-logic>
      <key>0</key>
      <requestsize>3</requestsize>
      <lanenumber>2</lanenumber>
      <logic>
         <logicitem request="0" response="000" foes="100"/>
         <logicitem request="1" response="000" foes="000"/>
         <logicitem request="2" response="001" foes="001"/>
      </logic>
   </row-logic>

   <row-logic>
      <key>1</key>
      <requestsize>1</requestsize>
      <lanenumber>1</lanenumber>
      <logic>
         <logicitem request="0" response="0" foes="0"/>
      </logic>
   </row-logic>

   <row-logic>
      <key>10</key>
      <requestsize>1</requestsize>
      <lanenumber>1</lanenumber>
      <logic>
         <logicitem request="0" response="0" foes="0"/>
      </logic>
   </row-logic>

   <row-logic>
      <key>11</key>
      <requestsize>2</requestsize>
      <lanenumber>2</lanenumber>
      <logic>
         <logicitem request="0" response="00" foes="10"/>
         <logicitem request="1" response="01" foes="01"/>
      </logic>
   </row-logic>

   <row-logic>
      <key>12</key>
      <requestsize>3</requestsize>
      <lanenumber>2</lanenumber>
      <logic>
         <logicitem request="0" response="000" foes="100"/>
         <logicitem request="1" response="000" foes="100"/>
         <logicitem request="2" response="011" foes="011"/>
      </logic>
   </row-logic>

   <row-logic>
      <key>13</key>
      <requestsize>5</requestsize>
      <lanenumber>2</lanenumber>
      <logic>
         <logicitem request="0" response="00000" foes="01000"/>
         <logicitem request="1" response="00000" foes="11000"/>
         <logicitem request="2" response="11000" foes="11000"/>
         <logicitem request="3" response="00011" foes="00111"/>
         <logicitem request="4" response="00010" foes="00110"/>
      </logic>
   </row-logic>

   <row-logic>
      <key>14</key>
      <requestsize>1</requestsize>
      <lanenumber>1</lanenumber>
      <logic>
         <logicitem request="0" response="0" foes="0"/>
      </logic>
   </row-logic>

   <row-logic>
      <key>15</key>
      <requestsize>3</requestsize>
      <lanenumber>2</lanenumber>
      <logic>
         <logicitem request="0" response="000" foes="100"/>
         <logicitem request="1" response="000" foes="100"/>
         <logicitem request="2" response="011" foes="011"/>
      </logic>
   </row-logic>

   <row-logic>
      <key>16</key>
      <requestsize>3</requestsize>
      <lanenumber>2</lanenumber>
      <logic>
         <logicitem request="0" response="000" foes="000"/>
         <logicitem request="1" response="100" foes="100"/>
         <logicitem request="2" response="000" foes="010"/>
      </logic>
   </row-logic>

   <row-logic>
      <key>17</key>
      <requestsize>1</requestsize>
      <lanenumber>1</lanenumber>
      <logic>
         <logicitem request="0" response="1" foes="0"/>
      </logic>
   </row-logic>

   <row-logic>
      <key>19</key>
      <requestsize>2</requestsize>
      <lanenumber>2</lanenumber>
      <logic>
         <logicitem request="0" response="00" foes="10"/>
         <logicitem request="1" response="01" foes="01"/>
      </logic>
   </row-logic>

   <row-logic>
      <key>2</key>
      <requestsize>1</requestsize>
      <lanenumber>1</lanenumber>
      <logic>
         <logicitem request="0" response="0" foes="0"/>
      </logic>
   </row-logic>

   <row-logic>
      <key>3</key>
      <requestsize>1</requestsize>
      <lanenumber>1</lanenumber>
      <logic>
         <logicitem request="0" response="0" foes="0"/>
      </logic>
   </row-logic>

   <row-logic>
      <key>4</key>
      <requestsize>3</requestsize>
      <lanenumber>2</lanenumber>
      <logic>
         <logicitem request="0" response="000" foes="100"/>
         <logicitem request="1" response="000" foes="000"/>
         <logicitem request="2" response="001" foes="001"/>
      </logic>
   </row-logic>

   <row-logic>
      <key>5</key>
      <requestsize>3</requestsize>
      <lanenumber>2</lanenumber>
      <logic>
         <logicitem request="0" response="000" foes="100"/>
         <logicitem request="1" response="000" foes="100"/>
         <logicitem request="2" response="011" foes="011"/>
      </logic>
   </row-logic>

   <row-logic>
      <key>6</key>
      <requestsize>5</requestsize>
      <lanenumber>2</lanenumber>
      <logic>
         <logicitem request="0" response="00000" foes="10000"/>
         <logicitem request="1" response="01100" foes="01100"/>
         <logicitem request="2" response="00000" foes="00010"/>
         <logicitem request="3" response="00000" foes="00010"/>
         <logicitem request="4" response="00001" foes="00001"/>
      </logic>
   </row-logic>

   <row-logic>
      <key>7</key>
      <requestsize>5</requestsize>
      <lanenumber>2</lanenumber>
      <logic>
         <logicitem request="0" response="01100" foes="11100"/>
         <logicitem request="1" response="01000" foes="11000"/>
         <logicitem request="2" response="00000" foes="00001"/>
         <logicitem request="3" response="00000" foes="00011"/>
         <logicitem request="4" response="00011" foes="00011"/>
      </logic>
   </row-logic>

   <row-logic>
      <key>8</key>
      <requestsize>3</requestsize>
      <lanenumber>2</lanenumber>
      <logic>
         <logicitem request="0" response="110" foes="110"/>
         <logicitem request="1" response="000" foes="001"/>
         <logicitem request="2" response="000" foes="001"/>
      </logic>
   </row-logic>

   <row-logic>
      <key>9</key>
      <requestsize>3</requestsize>
      <lanenumber>2</lanenumber>
      <logic>
         <logicitem request="0" response="000" foes="100"/>
         <logicitem request="1" response="000" foes="100"/>
         <logicitem request="2" response="011" foes="011"/>
      </logic>
   </row-logic>

   <row-logic>
      <key>busstation</key>
      <requestsize>1</requestsize>
      <lanenumber>1</lanenumber>
      <logic>
         <logicitem request="0" response="1" foes="0"/>
      </logic>
   </row-logic>

   <row-logic>
      <key>cruce12S</key>
      <requestsize>2</requestsize>
      <lanenumber>2</lanenumber>
      <logic>
         <logicitem request="0" response="00" foes="00"/>
         <logicitem request="1" response="00" foes="00"/>
      </logic>
   </row-logic>

   <row-logic>
      <key>cruce12S2</key>
      <requestsize>1</requestsize>
      <lanenumber>1</lanenumber>
      <logic>
         <logicitem request="0" response="1" foes="0"/>
      </logic>
   </row-logic>

   <row-logic>
      <key>cruce13S</key>
      <requestsize>2</requestsize>
      <lanenumber>2</lanenumber>
      <logic>
         <logicitem request="0" response="00" foes="00"/>
         <logicitem request="1" response="00" foes="00"/>
      </logic>
   </row-logic>

   <row-logic>
      <key>cruce13S2</key>
      <requestsize>1</requestsize>
      <lanenumber>1</lanenumber>
      <logic>
         <logicitem request="0" response="1" foes="0"/>
      </logic>
   </row-logic>

   <row-logic>
      <key>cruce6N</key>
      <requestsize>2</requestsize>
      <lanenumber>2</lanenumber>
      <logic>
         <logicitem request="0" response="00" foes="00"/>
         <logicitem request="1" response="00" foes="00"/>
      </logic>
   </row-logic>

   <row-logic>
      <key>cruce6N2</key>
      <requestsize>1</requestsize>
      <lanenumber>1</lanenumber>
      <logic>
         <logicitem request="0" response="1" foes="0"/>
      </logic>
   </row-logic>

   <row-logic>
      <key>cruce7N</key>
      <requestsize>2</requestsize>
      <lanenumber>2</lanenumber>
      <logic>
         <logicitem request="0" response="00" foes="00"/>
         <logicitem request="1" response="00" foes="00"/>
      </logic>
   </row-logic>

   <row-logic>
      <key>cruce7N2</key>
      <requestsize>1</requestsize>
      <lanenumber>1</lanenumber>
      <logic>
         <logicitem request="0" response="1" foes="0"/>
      </logic>
   </row-logic>

   <row-logic>
      <key>cruce8N</key>
      <requestsize>2</requestsize>
      <lanenumber>2</lanenumber>
      <logic>
         <logicitem request="0" response="00" foes="00"/>
         <logicitem request="1" response="00" foes="00"/>
      </logic>
   </row-logic>

   <row-logic>
      <key>cruce8N2</key>
      <requestsize>1</requestsize>
      <lanenumber>1</lanenumber>
      <logic>
         <logicitem request="0" response="1" foes="0"/>
      </logic>
   </row-logic>

   <row-logic>
      <key>cruce9S</key>
      <requestsize>2</requestsize>
      <lanenumber>2</lanenumber>
      <logic>
         <logicitem request="0" response="00" foes="00"/>
         <logicitem request="1" response="00" foes="00"/>
      </logic>
   </row-logic>

   <row-logic>
      <key>cruce9S2</key>
      <requestsize>1</requestsize>
      <lanenumber>1</lanenumber>
      <logic>
         <logicitem request="0" response="1" foes="0"/>
      </logic>
   </row-logic>

   <row-logic>
      <key>cruceA45</key>
      <requestsize>7</requestsize>
      <lanenumber>3</lanenumber>
      <logic>
         <logicitem request="0" response="1110000" foes="1110000"/>
         <logicitem request="1" response="1101100" foes="1101100"/>
         <logicitem request="2" response="0100000" foes="0100010"/>
         <logicitem request="3" response="1100000" foes="1100010"/>
         <logicitem request="4" response="0000000" foes="0000001"/>
         <logicitem request="5" response="0000000" foes="0001111"/>
         <logicitem request="6" response="0000000" foes="0001011"/>
      </logic>
   </row-logic>

   <row-logic>
      <key>cruceB45</key>
      <requestsize>9</requestsize>
      <lanenumber>3</lanenumber>
      <logic>
         <logicitem request="0" response="000000000" foes="000010000"/>
         <logicitem request="1" response="000000000" foes="111110000"/>
         <logicitem request="2" response="000000000" foes="110110000"/>
         <logicitem request="3" response="000000000" foes="100000000"/>
         <logicitem request="4" response="000000111" foes="100000111"/>
         <logicitem request="5" response="011000110" foes="011000110"/>
         <logicitem request="6" response="000000010" foes="000100010"/>
         <logicitem request="7" response="000000110" foes="000100110"/>
         <logicitem request="8" response="000011110" foes="000011110"/>
      </logic>
   </row-logic>


   <tl-logic type="static">
      <key>11</key>
      <subkey>0</subkey>
      <phaseno>4</phaseno>
      <offset>0</offset>
      <phase duration="31" state="Gr"/>
      <phase duration="4" state="yr"/>
      <phase duration="31" state="rG"/>
      <phase duration="4" state="ry"/>
   </tl-logic>

   <tl-logic type="static">
      <key>12</key>
      <subkey>0</subkey>
      <phaseno>4</phaseno>
      <offset>0</offset>
      <phase duration="31" state="GGr"/>
      <phase duration="4" state="yyr"/>
      <phase duration="31" state="rrG"/>
      <phase duration="4" state="rry"/>
   </tl-logic>

   <tl-logic type="static">
      <key>13</key>
      <subkey>0</subkey>
      <phaseno>6</phaseno>
      <offset>0</offset>
      <phase duration="31" state="GGGrr"/>
      <phase duration="4" state="yyyrr"/>
      <phase duration="31" state="rrrGG"/>
      <phase duration="4" state="rrryG"/>
      <phase duration="6" state="rrrrG"/>
      <phase duration="4" state="rrrry"/>
   </tl-logic>

   <tl-logic type="static">
      <key>5</key>
      <subkey>0</subkey>
      <phaseno>4</phaseno>
      <offset>0</offset>
      <phase duration="31" state="GGr"/>
      <phase duration="9" state="yyr"/>
      <phase duration="31" state="rrG"/>
      <phase duration="9" state="rry"/>
   </tl-logic>

   <tl-logic type="static">
      <key>6</key>
      <subkey>0</subkey>
      <phaseno>6</phaseno>
      <offset>0</offset>
      <phase duration="31" state="GgGGr"/>
      <phase duration="4" state="ygyyr"/>
      <phase duration="6" state="rGrrr"/>
      <phase duration="4" state="ryrrr"/>
      <phase duration="31" state="rrGGG"/>
      <phase duration="4" state="rryyy"/>
   </tl-logic>

   <tl-logic type="static">
      <key>7</key>
      <subkey>0</subkey>
      <phaseno>6</phaseno>
      <offset>0</offset>
      <phase duration="31" state="GGrrr"/>
      <phase duration="4" state="yGrrr"/>
      <phase duration="6" state="rGrrr"/>
      <phase duration="4" state="ryrrr"/>
      <phase duration="31" state="rrGGG"/>
      <phase duration="4" state="rryyy"/>