<?xml version="1.0" encoding="UTF-8"?>

<!-- generated on Mon Feb 17 15:30:43 2020 by Eclipse SUMO netgenerate Version v1_5_0+0130-ceb0a01
This data file and the accompanying materials
are made available under the terms of the Eclipse Public License v2.0
which accompanies this distribution, and is available at
http://www.eclipse.org/legal/epl-v20.html
SPDX-License-Identifier: EPL-2.0
<configuration xmlns:xsi="http://www.w3.org/2001/XMLSchema-instance" xsi:noNamespaceSchemaLocation="http://sumo.dlr.de/xsd/netgenerateConfiguration.xsd">

    <grid_network>
        <grid value="true"/>
        <grid.number value="3"/>
        <grid.length value="40"/>
    </grid_network>

    <output>
        <write-license value="true"/>
        <output-file value="net.net.xml"/>
    </output>

    <building_defaults>
        <default-junction-type value="right_before_left"/>
    </building_defaults>

    <report>
        <verbose value="true"/>
        <xml-validation value="never"/>
    </report>

</configuration>
-->

<net version="1.6" junctionCornerDetail="5" limitTurnSpeed="5.50" xmlns:xsi="http://www.w3.org/2001/XMLSchema-instance" xsi:noNamespaceSchemaLocation="http://sumo.dlr.de/xsd/net_file.xsd">

    <location netOffset="0.00,0.00" convBoundary="0.00,0.00,80.00,80.00" origBoundary="0.00,0.00,80.00,80.00" projParameter="!"/>

    <edge id=":A0_0" function="internal">
        <lane id=":A0_0_0" index="0" speed="6.08" length="7.74" shape="-1.60,3.20 -1.30,1.10 -0.40,-0.40 1.10,-1.30 3.20,-1.60"/>
    </edge>
    <edge id=":A0_1" function="internal">
        <lane id=":A0_1_0" index="0" speed="3.90" length="2.58" shape="3.20,1.60 2.50,1.70 2.00,2.00 1.70,2.50 1.60,3.20"/>
    </edge>
    <edge id=":A1_0" function="internal">
        <lane id=":A1_0_0" index="0" speed="13.89" length="14.40" shape="-1.60,47.20 -1.60,32.80"/>
    </edge>
    <edge id=":A1_1" function="internal">
        <lane id=":A1_1_0" index="0" speed="8.00" length="14.19" shape="-1.60,47.20 -1.05,43.35 0.60,40.60 3.35,38.95 7.20,38.40"/>
    </edge>
    <edge id=":A1_2" function="internal">
        <lane id=":A1_2_0" index="0" speed="3.65" length="4.67" shape="-1.60,47.20 -0.80,46.00 0.00,45.60 0.80,46.00 1.60,47.20"/>
    </edge>
    <edge id=":A1_3" function="internal">
        <lane id=":A1_3_0" index="0" speed="6.51" length="9.03" shape="7.20,41.60 4.75,41.95 3.00,43.00 1.95,44.75 1.60,47.20"/>
    </edge>
    <edge id=":A1_4" function="internal">
        <lane id=":A1_4_0" index="0" speed="8.00" length="14.19" shape="7.20,41.60 3.35,41.05 0.60,39.40 -1.05,36.65 -1.60,32.80"/>
    </edge>
    <edge id=":A1_5" function="internal">
        <lane id=":A1_5_0" index="0" speed="3.65" length="4.67" shape="7.20,41.60 6.00,40.80 5.60,40.00 6.00,39.20 7.20,38.40"/>
    </edge>
    <edge id=":A1_6" function="internal">
        <lane id=":A1_6_0" index="0" speed="6.51" length="9.03" shape="1.60,32.80 1.95,35.25 3.00,37.00 4.75,38.05 7.20,38.40"/>
    </edge>
    <edge id=":A1_7" function="internal">
        <lane id=":A1_7_0" index="0" speed="13.89" length="14.40" shape="1.60,32.80 1.60,47.20"/>
    </edge>
    <edge id=":A1_8" function="internal">
        <lane id=":A1_8_0" index="0" speed="3.65" length="4.67" shape="1.60,32.80 0.80,34.00 0.00,34.40 -0.80,34.00 -1.60,32.80"/>
    </edge>
    <edge id=":A2_0" function="internal">
        <lane id=":A2_0_0" index="0" speed="6.08" length="7.74" shape="3.20,81.60 1.10,81.30 -0.40,80.40 -1.30,78.90 -1.60,76.80"/>
    </edge>
    <edge id=":A2_1" function="internal">
        <lane id=":A2_1_0" index="0" speed="3.90" length="2.58" shape="1.60,76.80 1.70,77.50 2.00,78.00 2.50,78.30 3.20,78.40"/>
    </edge>
    <edge id=":B0_0" function="internal">
        <lane id=":B0_0_0" index="0" speed="6.51" length="9.03" shape="38.40,7.20 38.05,4.75 37.00,3.00 35.25,1.95 32.80,1.60"/>
    </edge>
    <edge id=":B0_1" function="internal">
        <lane id=":B0_1_0" index="0" speed="8.00" length="14.19" shape="38.40,7.20 38.95,3.35 40.60,0.60 43.35,-1.05 47.20,-1.60"/>
    </edge>
    <edge id=":B0_2" function="internal">
        <lane id=":B0_2_0" index="0" speed="3.65" length="4.67" shape="38.40,7.20 39.20,6.00 40.00,5.60 40.80,6.00 41.60,7.20"/>
    </edge>
    <edge id=":B0_3" function="internal">
        <lane id=":B0_3_0" index="0" speed="6.51" length="9.03" shape="47.20,1.60 44.75,1.95 43.00,3.00 41.95,4.75 41.60,7.20"/>
    </edge>
    <edge id=":B0_4" function="internal">
        <lane id=":B0_4_0" index="0" speed="13.89" length="14.40" shape="47.20,1.60 32.80,1.60"/>
    </edge>
    <edge id=":B0_5" function="internal">
        <lane id=":B0_5_0" index="0" speed="3.65" length="4.67" shape="47.20,1.60 46.00,0.80 45.60,0.00 46.00,-0.80 47.20,-1.60"/>
    </edge>
    <edge id=":B0_6" function="internal">
        <lane id=":B0_6_0" index="0" speed="13.89" length="14.40" shape="32.80,-1.60 47.20,-1.60"/>
    </edge>
    <edge id=":B0_7" function="internal">
        <lane id=":B0_7_0" index="0" speed="8.00" length="14.19" shape="32.80,-1.60 36.65,-1.05 39.40,0.60 41.05,3.35 41.60,7.20"/>
    </edge>
    <edge id=":B0_8" function="internal">
        <lane id=":B0_8_0" index="0" speed="3.65" length="4.67" shape="32.80,-1.60 34.00,-0.80 34.40,0.00 34.00,0.80 32.80,1.60"/>
    </edge>
    <edge id=":B1_0" function="internal">
        <lane id=":B1_0_0" index="0" speed="6.51" length="9.03" shape="38.40,47.20 38.05,44.75 37.00,43.00 35.25,41.95 32.80,41.60"/>
    </edge>
    <edge id=":B1_1" function="internal">
        <lane id=":B1_1_0" index="0" speed="13.89" length="14.40" shape="38.40,47.20 38.40,32.80"/>
    </edge>
    <edge id=":B1_2" function="internal">
        <lane id=":B1_2_0" index="0" speed="8.00" length="14.19" shape="38.40,47.20 38.95,43.35 40.60,40.60 43.35,38.95 47.20,38.40"/>
    </edge>
    <edge id=":B1_3" function="internal">
        <lane id=":B1_3_0" index="0" speed="3.65" length="4.67" shape="38.40,47.20 39.20,46.00 40.00,45.60 40.80,46.00 41.60,47.20"/>
    </edge>
    <edge id=":B1_4" function="internal">
        <lane id=":B1_4_0" index="0" speed="6.51" length="9.03" shape="47.20,41.60 44.75,41.95 43.00,43.00 41.95,44.75 41.60,47.20"/>
    </edge>
    <edge id=":B1_5" function="internal">
        <lane id=":B1_5_0" index="0" speed="13.89" length="14.40" shape="47.20,41.60 32.80,41.60"/>
    </edge>
    <edge id=":B1_6" function="internal">
        <lane id=":B1_6_0" index="0" speed="8.00" length="14.19" shape="47.20,41.60 43.35,41.05 40.60,39.40 38.95,36.65 38.40,32.80"/>
    </edge>
    <edge id=":B1_7" function="internal">
        <lane id=":B1_7_0" index="0" speed="3.65" length="4.67" shape="47.20,41.60 46.00,40.80 45.60,40.00 46.00,39.20 47.20,38.40"/>
    </edge>
    <edge id=":B1_8" function="internal">
        <lane id=":B1_8_0" index="0" speed="6.51" length="9.03" shape="41.60,32.80 41.95,35.25 43.00,37.00 44.75,38.05 47.20,38.40"/>
    </edge>
    <edge id=":B1_9" function="internal">
        <lane id=":B1_9_0" index="0" speed="13.89" length="14.40" shape="41.60,32.80 41.60,47.20"/>
    </edge>
    <edge id=":B1_10" function="internal">
        <lane id=":B1_10_0" index="0" speed="8.00" length="14.19" shape="41.60,32.80 41.05,36.65 39.40,39.40 36.65,41.05 32.80,41.60"/>
    </edge>
    <edge id=":B1_11" function="internal">
        <lane id=":B1_11_0" index="0" speed="3.65" length="4.67" shape="41.60,32.80 40.80,34.00 40.00,34.40 39.20,34.00 38.40,32.80"/>
    </edge>
    <edge id=":B1_12" function="internal">
        <lane id=":B1_12_0" index="0" speed="6.51" length="9.03" shape="32.80,38.40 35.25,38.05 37.00,37.00 38.05,35.25 38.40,32.80"/>
    </edge>
    <edge id=":B1_13" function="internal">
        <lane id=":B1_13_0" index="0" speed="13.89" length="14.40" shape="32.80,38.40 47.20,38.40"/>
    </edge>
    <edge id=":B1_14" function="internal">
        <lane id=":B1_14_0" index="0" speed="8.00" length="14.19" shape="32.80,38.40 36.65,38.95 39.40,40.60 41.05,43.35 41.60,47.20"/>
    </edge>
    <edge id=":B1_15" function="internal">
        <lane id=":B1_15_0" index="0" speed="3.65" length="4.67" shape="32.80,38.40 34.00,39.20 34.40,40.00 34.00,40.80 32.80,41.60"/>
    </edge>
    <edge id=":B2_0" function="internal">
        <lane id=":B2_0_0" index="0" speed="13.89" length="14.40" shape="47.20,81.60 32.80,81.60"/>
    </edge>
    <edge id=":B2_1" function="internal">
        <lane id=":B2_1_0" index="0" speed="8.00" length="14.19" shape="47.20,81.60 43.35,81.05 40.60,79.40 38.95,76.65 38.40,72.80"/>
    </edge>
    <edge id=":B2_2" function="internal">
        <lane id=":B2_2_0" index="0" speed="3.65" length="4.67" shape="47.20,81.60 46.00,80.80 45.60,80.00 46.00,79.20 47.20,78.40"/>
    </edge>
    <edge id=":B2_3" function="internal">
        <lane id=":B2_3_0" index="0" speed="6.51" length="9.03" shape="41.60,72.80 41.95,75.25 43.00,77.00 44.75,78.05 47.20,78.40"/>
    </edge>
    <edge id=":B2_4" function="internal">
        <lane id=":B2_4_0" index="0" speed="8.00" length="14.19" shape="41.60,72.80 41.05,76.65 39.40,79.40 36.65,81.05 32.80,81.60"/>
    </edge>
    <edge id=":B2_5" function="internal">
        <lane id=":B2_5_0" index="0" speed="3.65" length="4.67" shape="41.60,72.80 40.80,74.00 40.00,74.40 39.20,74.00 38.40,72.80"/>
    </edge>
    <edge id=":B2_6" function="internal">
        <lane id=":B2_6_0" index="0" speed="6.51" length="9.03" shape="32.80,78.40 35.25,78.05 37.00,77.00 38.05,75.25 38.40,72.80"/>
    </edge>
    <edge id=":B2_7" function="internal">
        <lane id=":B2_7_0" index="0" speed="13.89" length="14.40" shape="32.80,78.40 47.20,78.40"/>
    </edge>
    <edge id=":B2_8" function="internal">
        <lane id=":B2_8_0" index="0" speed="3.65" length="4.67" shape="32.80,78.40 34.00,79.20 34.40,80.00 34.00,80.80 32.80,81.60"/>
    </edge>
    <edge id=":C0_0" function="internal">
        <lane id=":C0_0_0" index="0" speed="3.90" length="2.58" shape="78.40,3.20 78.30,2.50 78.00,2.00 77.50,1.70 76.80,1.60"/>
    </edge>
    <edge id=":C0_1" function="internal">
        <lane id=":C0_1_0" index="0" speed="6.08" length="7.74" shape="76.80,-1.60 78.90,-1.30 80.40,-0.40 81.30,1.10 81.60,3.20"/>
    </edge>
    <edge id=":C1_0" function="internal">
        <lane id=":C1_0_0" index="0" speed="6.51" length="9.03" shape="78.40,47.20 78.05,44.75 77.00,43.00 75.25,41.95 72.80,41.60"/>
    </edge>
    <edge id=":C1_1" function="internal">
        <lane id=":C1_1_0" index="0" speed="13.89" length="14.40" shape="78.40,47.20 78.40,32.80"/>
    </edge>
    <edge id=":C1_2" function="internal">
        <lane id=":C1_2_0" index="0" speed="3.65" length="4.67" shape="78.40,47.20 79.20,46.00 80.00,45.60 80.80,46.00 81.60,47.20"/>
    </edge>
    <edge id=":C1_3" function="internal">
        <lane id=":C1_3_0" index="0" speed="13.89" length="14.40" shape="81.60,32.80 81.60,47.20"/>
    </edge>
    <edge id=":C1_4" function="internal">
        <lane id=":C1_4_0" index="0" speed="8.00" length="14.19" shape="81.60,32.80 81.05,36.65 79.40,39.40 76.65,41.05 72.80,41.60"/>
    </edge>
    <edge id=":C1_5" function="internal">
        <lane id=":C1_5_0" index="0" speed="3.65" length="4.67" shape="81.60,32.80 80.80,34.00 80.00,34.40 79.20,34.00 78.40,32.80"/>
    </edge>
    <edge id=":C1_6" function="internal">
        <lane id=":C1_6_0" index="0" speed="6.51" length="9.03" shape="72.80,38.40 75.25,38.05 77.00,37.00 78.05,35.25 78.40,32.80"/>
    </edge>
    <edge id=":C1_7" function="internal">
        <lane id=":C1_7_0" index="0" speed="8.00" length="14.19" shape="72.80,38.40 76.65,38.95 79.40,40.60 81.05,43.35 81.60,47.20"/>
    </edge>
    <edge id=":C1_8" function="internal">
        <lane id=":C1_8_0" index="0" speed="3.65" length="4.67" shape="72.80,38.40 74.00,39.20 74.40,40.00 74.00,40.80 72.80,41.60"/>
    </edge>
    <edge id=":C2_0" function="internal">
        <lane id=":C2_0_0" index="0" speed="6.08" length="7.74" shape="81.60,76.80 81.30,78.90 80.40,80.40 78.90,81.30 76.80,81.60"/>
    </edge>
    <edge id=":C2_1" function="internal">
        <lane id=":C2_1_0" index="0" speed="3.90" length="2.58" shape="76.80,78.40 77.50,78.30 78.00,78.00 78.30,77.50 78.40,76.80"/>
    </edge>

    <edge id="A0A1" from="A0" to="A1" priority="-1">
        <lane id="A0A1_0" index="0" speed="13.89" length="29.60" shape="1.60,3.20 1.60,32.80"/>
    </edge>
    <edge id="A0B0" from="A0" to="B0" priority="-1">
        <lane id="A0B0_0" index="0" speed="13.89" length="29.60" shape="3.20,-1.60 32.80,-1.60"/>
    </edge>
    <edge id="A1A0" from="A1" to="A0" priority="-1">
        <lane id="A1A0_0" index="0" speed="13.89" length="29.60" shape="-1.60,32.80 -1.60,3.20"/>
    </edge>
    <edge id="A1A2" from="A1" to="A2" priority="-1">
        <lane id="A1A2_0" index="0" speed="13.89" length="29.60" shape="1.60,47.20 1.60,76.80"/>
    </edge>
    <edge id="A1B1" from="A1" to="B1" priority="-1">
        <lane id="A1B1_0" index="0" speed="13.89" length="25.60" shape="7.20,38.40 32.80,38.40"/>
    </edge>
    <edge id="A2A1" from="A2" to="A1" priority="-1">
        <lane id="A2A1_0" index="0" speed="13.89" length="29.60" shape="-1.60,76.80 -1.60,47.20"/>
    </edge>
    <edge id="A2B2" from="A2" to="B2" priority="-1">
        <lane id="A2B2_0" index="0" speed="13.89" length="29.60" shape="3.20,78.40 32.80,78.40"/>
    </edge>
    <edge id="B0A0" from="B0" to="A0" priority="-1">
        <lane id="B0A0_0" index="0" speed="13.89" length="29.60" shape="32.80,1.60 3.20,1.60"/>
    </edge>
    <edge id="B0B1" from="B0" to="B1" priority="-1">
        <lane id="B0B1_0" index="0" speed="13.89" length="25.60" shape="41.60,7.20 41.60,32.80"/>
    </edge>
    <edge id="B0C0" from="B0" to="C0" priority="-1">
        <lane id="B0C0_0" index="0" speed="13.89" length="29.60" shape="47.20,-1.60 76.80,-1.60"/>
    </edge>
    <edge id="B1A1" from="B1" to="A1" priority="-1">
        <lane id="B1A1_0" index="0" speed="13.89" length="25.60" shape="32.80,41.60 7.20,41.60"/>
    </edge>
    <edge id="B1B0" from="B1" to="B0" priority="-1">
        <lane id="B1B0_0" index="0" speed="13.89" length="25.60" shape="38.40,32.80 38.40,7.20"/>
    </edge>
    <edge id="B1B2" from="B1" to="B2" priority="-1">
        <lane id="B1B2_0" index="0" speed="13.89" length="25.60" shape="41.60,47.20 41.60,72.80"/>
    </edge>
    <edge id="B1C1" from="B1" to="C1" priority="-1">
        <lane id="B1C1_0" index="0" speed="13.89" length="25.60" shape="47.20,38.40 72.80,38.40"/>
    </edge>
    <edge id="B2A2" from="B2" to="A2" priority="-1">
        <lane id="B2A2_0" index="0" speed="13.89" length="29.60" shape="32.80,81.60 3.20,81.60"/>
    </edge>
    <edge id="B2B1" from="B2" to="B1" priority="-1">
        <lane id="B2B1_0" index="0" speed="13.89" length="25.60" shape="38.40,72.80 38.40,47.20"/>
    </edge>
    <edge id="B2C2" from="B2" to="C2" priority="-1">
        <lane id="B2C2_0" index="0" speed="13.89" length="29.60" shape="47.20,78.40 76.80,78.40"/>
    </edge>
    <edge id="C0B0" from="C0" to="B0" priority="-1">
        <lane id="C0B0_0" index="0" speed="13.89" length="29.60" shape="76.80,1.60 47.20,1.60"/>
    </edge>
    <edge id="C0C1" from="C0" to="C1" priority="-1">
        <lane id="C0C1_0" index="0" speed="13.89" length="29.60" shape="81.60,3.20 81.60,32.80"/>
    </edge>
    <edge id="C1B1" from="C1" to="B1" priority="-1">
        <lane id="C1B1_0" index="0" speed="13.89" length="25.60" shape="72.80,41.60 47.20,41.60"/>
    </edge>
    <edge id="C1C0" from="C1" to="C0" priority="-1">
        <lane id="C1C0_0" index="0" speed="13.89" length="29.60" shape="78.40,32.80 78.40,3.20"/>
    </edge>
    <edge id="C1C2" from="C1" to="C2" priority="-1">
        <lane id="C1C2_0" index="0" speed="13.89" length="29.60" shape="81.60,47.20 81.60,76.80"/>
    </edge>
    <edge id="C2B2" from="C2" to="B2" priority="-1">
        <lane id="C2B2_0" index="0" speed="13.89" length="29.60" shape="76.80,81.60 47.20,81.60"/>
    </edge>
    <edge id="C2C1" from="C2" to="C1" priority="-1">
        <lane id="C2C1_0" index="0" speed="13.89" length="29.60" shape="78.40,76.80 78.40,47.20"/>
    </edge>

    <junction id="A0" type="right_before_left" x="0.00" y="0.00" incLanes="A1A0_0 B0A0_0" intLanes=":A0_0_0 :A0_1_0" shape="-3.20,3.20 3.20,3.20 3.20,-3.20 -0.36,-2.49 -1.60,-1.60 -2.49,-0.36 -3.02,1.24">
        <request index="0" response="00" foes="00" cont="0"/>
        <request index="1" response="00" foes="00" cont="0"/>
    </junction>
    <junction id="A1" type="right_before_left" x="0.00" y="40.00" incLanes="A2A1_0 B1A1_0 A0A1_0" intLanes=":A1_0_0 :A1_1_0 :A1_2_0 :A1_3_0 :A1_4_0 :A1_5_0 :A1_6_0 :A1_7_0 :A1_8_0" shape="-3.20,47.20 3.20,47.20 3.64,44.98 4.20,44.20 4.98,43.64 5.98,43.31 7.20,43.20 7.20,36.80 4.98,36.36 4.20,35.80 3.64,35.02 3.31,34.02 3.20,32.80 -3.20,32.80">
        <request index="0" response="000000000" foes="100010000" cont="0"/>
        <request index="1" response="011000000" foes="011110000" cont="0"/>
        <request index="2" response="010001000" foes="010001000" cont="0"/>
        <request index="3" response="000000000" foes="010000100" cont="0"/>
        <request index="4" response="000000011" foes="110000011" cont="0"/>
        <request index="5" response="001000010" foes="001000010" cont="0"/>
        <request index="6" response="000000000" foes="000100010" cont="0"/>
        <request index="7" response="000011000" foes="000011110" cont="0"/>
        <request index="8" response="000010001" foes="000010001" cont="0"/>
    </junction>
    <junction id="A2" type="right_before_left" x="0.00" y="80.00" incLanes="B2A2_0 A1A2_0" intLanes=":A2_0_0 :A2_1_0" shape="3.20,83.20 3.20,76.80 -3.20,76.80 -2.49,80.36 -1.60,81.60 -0.36,82.49 1.24,83.02">
        <request index="0" response="00" foes="00" cont="0"/>
        <request index="1" response="00" foes="00" cont="0"/>
    </junction>
    <junction id="B0" type="right_before_left" x="40.00" y="0.00" incLanes="B1B0_0 C0B0_0 A0B0_0" intLanes=":B0_0_0 :B0_1_0 :B0_2_0 :B0_3_0 :B0_4_0 :B0_5_0 :B0_6_0 :B0_7_0 :B0_8_0" shape="36.80,7.20 43.20,7.20 43.64,4.98 44.20,4.20 44.98,3.64 45.98,3.31 47.20,3.20 47.20,-3.20 32.80,-3.20 32.80,3.20 35.02,3.64 35.80,4.20 36.36,4.98 36.69,5.98">
        <request index="0" response="000000000" foes="100010000" cont="0"/>
        <request index="1" response="011000000" foes="011110000" cont="0"/>
        <request index="2" response="010001000" foes="010001000" cont="0"/>
        <request index="3" response="000000000" foes="010000100" cont="0"/>
        <request index="4" response="000000011" foes="110000011" cont="0"/>
        <request index="5" response="001000010" foes="001000010" cont="0"/>
        <request index="6" response="000000000" foes="000100010" cont="0"/>
        <request index="7" response="000011000" foes="000011110" cont="0"/>
        <request index="8" response="000010001" foes="000010001" cont="0"/>
    </junction>
    <junction id="B1" type="right_before_left" x="40.00" y="40.00" incLanes="B2B1_0 C1B1_0 B0B1_0 A1B1_0" intLanes=":B1_0_0 :B1_1_0 :B1_2_0 :B1_3_0 :B1_4_0 :B1_5_0 :B1_6_0 :B1_7_0 :B1_8_0 :B1_9_0 :B1_10_0 :B1_11_0 :B1_12_0 :B1_13_0 :B1_14_0 :B1_15_0" shape="36.80,47.20 43.20,47.20 43.64,44.98 44.20,44.20 44.98,43.64 45.98,43.31 47.20,43.20 47.20,36.80 44.98,36.36 44.20,35.80 43.64,35.02 43.31,34.02 43.20,32.80 36.80,32.80 36.36,35.02 35.80,35.80 35.02,36.36 34.02,36.69 32.80,36.80 32.80,43.20 35.02,43.64 35.80,44.20 36.36,44.98 36.69,45.98">
        <request index="0"  response="0000000000000000" foes="1000010000100000" cont="0"/>
        <request index="1"  response="0111000000000000" foes="0111110001100000" cont="0"/>
        <request index="2"  response="0110001100000000" foes="0110001111100000" cont="0"/>
        <request index="3"  response="0100001000010000" foes="0100001000010000" cont="0"/>
        <request index="4"  response="0000000000000000" foes="0100001000001000" cont="0"/>
        <request index="5"  response="0000000000000111" foes="1100011000000111" cont="0"/>
        <request index="6"  response="0011000000000110" foes="0011111000000110" cont="0"/>
        <request index="7"  response="0010000100000100" foes="0010000100000100" cont="0"/>
        <request index="8"  response="0000000000000000" foes="0010000010000100" cont="0"/>
        <request index="9"  response="0000000001110000" foes="0110000001111100" cont="0"/>
        <request index="10" response="0000000001100011" foes="1110000001100011" cont="0"/>
        <request index="11" response="0001000001000010" foes="0001000001000010" cont="0"/>
        <request index="12" response="0000000000000000" foes="0000100001000010" cont="0"/>
        <request index="13" response="0000011100000000" foes="0000011111000110" cont="0"/>
        <request index="14" response="0000011000110000" foes="0000011000111110" cont="0"/>
        <request index="15" response="0000010000100001" foes="0000010000100001" cont="0"/>
    </junction>
    <junction id="B2" type="right_before_left" x="40.00" y="80.00" incLanes="C2B2_0 B1B2_0 A2B2_0" intLanes=":B2_0_0 :B2_1_0 :B2_2_0 :B2_3_0 :B2_4_0 :B2_5_0 :B2_6_0 :B2_7_0 :B2_8_0" shape="47.20,83.20 47.20,76.80 44.98,76.36 44.20,75.80 43.64,75.02 43.31,74.02 43.20,72.80 36.80,72.80 36.36,75.02 35.80,75.80 35.02,76.36 34.02,76.69 32.80,76.80 32.80,83.20">
        <request index="0" response="000000000" foes="100010000" cont="0"/>
        <request index="1" response="011000000" foes="011110000" cont="0"/>
        <request index="2" response="010001000" foes="010001000" cont="0"/>
        <request index="3" response="000000000" foes="010000100" cont="0"/>
        <request index="4" response="000000011" foes="110000011" cont="0"/>
        <request index="5" response="001000010" foes="001000010" cont="0"/>
        <request index="6" response="000000000" foes="000100010" cont="0"/>
        <request index="7" response="000011000" foes="000011110" cont="0"/>
        <request index="8" response="000010001" foes="000010001" cont="0"/>
    </junction>
    <junction id="C0" type="right_before_left" x="80.00" y="0.00" incLanes="C1C0_0 B0C0_0" intLanes=":C0_0_0 :C0_1_0" shape="76.80,3.20 83.20,3.20 82.49,-0.36 81.60,-1.60 80.36,-2.49 78.76,-3.02 76.80,-3.20">
        <request index="0" response="00" foes="00" cont="0"/>
        <request index="1" response="00" foes="00" cont="0"/>
    </junction>
    <junction id="C1" type="right_before_left" x="80.00" y="40.00" incLanes="C2C1_0 C0C1_0 B1C1_0" intLanes=":C1_0_0 :C1_1_0 :C1_2_0 :C1_3_0 :C1_4_0 :C1_5_0 :C1_6_0 :C1_7_0 :C1_8_0" shape="76.80,47.20 83.20,47.20 83.20,32.80 76.80,32.80 76.36,35.02 75.80,35.80 75.02,36.36 74.02,36.69 72.80,36.80 72.80,43.20 75.02,43.64 75.80,44.20 76.36,44.98 76.69,45.98">
        <request index="0" response="000000000" foes="100010000" cont="0"/>
        <request index="1" response="011000000" foes="011110000" cont="0"/>
        <request index="2" response="010001000" foes="010001000" cont="0"/>
        <request index="3" response="000000000" foes="010000100" cont="0"/>
        <request index="4" response="000000011" foes="110000011" cont="0"/>
        <request index="5" response="001000010" foes="001000010" cont="0"/>
        <request index="6" response="000000000" foes="000100010" cont="0"/>
        <request index="7" response="000011000" foes="000011110" cont="0"/>
        <request index="8" response="000010001" foes="000010001" cont="0"/>
    </junction>
    <junction id="C2" type="right_before_left" x="80.00" y="80.00" incLanes="C1C2_0 B2C2_0" intLanes=":C2_0_0 :C2_1_0" shape="83.20,76.80 76.80,76.80 76.80,83.20 80.36,82.49 81.60,81.60 82.49,80.36 83.02,78.76">
        <request index="0" response="00" foes="00" cont="0"/>
        <request index="1" response="00" foes="00" cont="0"/>
    </junction>

    <connection from="A0A1" to="A1B1" fromLane="0" toLane="0" via=":A1_6_0" dir="r" state="="/>
    <connection from="A0A1" to="A1A2" fromLane="0" toLane="0" via=":A1_7_0" dir="s" state="="/>
    <connection from="A0A1" to="A1A0" fromLane="0" toLane="0" via=":A1_8_0" dir="t" state="="/>
    <connection from="A0B0" to="B0C0" fromLane="0" toLane="0" via=":B0_6_0" dir="s" state="="/>
    <connection from="A0B0" to="B0B1" fromLane="0" toLane="0" via=":B0_7_0" dir="l" state="="/>
    <connection from="A0B0" to="B0A0" fromLane="0" toLane="0" via=":B0_8_0" dir="t" state="="/>
    <connection from="A1A0" to="A0B0" fromLane="0" toLane="0" via=":A0_0_0" dir="l" state="="/>
    <connection from="A1A2" to="A2B2" fromLane="0" toLane="0" via=":A2_1_0" dir="r" state="="/>
    <connection from="A1B1" to="B1B0" fromLane="0" toLane="0" via=":B1_12_0" dir="r" state="="/>
    <connection from="A1B1" to="B1C1" fromLane="0" toLane="0" via=":B1_13_0" dir="s" state="="/>
    <connection from="A1B1" to="B1B2" fromLane="0" toLane="0" via=":B1_14_0" dir="l" state="="/>
    <connection from="A1B1" to="B1A1" fromLane="0" toLane="0" via=":B1_15_0" dir="t" state="="/>
    <connection from="A2A1" to="A1A0" fromLane="0" toLane="0" via=":A1_0_0" dir="s" state="="/>
    <connection from="A2A1" to="A1B1" fromLane="0" toLane="0" via=":A1_1_0" dir="l" state="="/>
    <connection from="A2A1" to="A1A2" fromLane="0" toLane="0" via=":A1_2_0" dir="t" state="="/>
    <connection from="A2B2" to="B2B1" fromLane="0" toLane="0" via=":B2_6_0" dir="r" state="="/>
    <connection from="A2B2" to="B2C2" fromLane="0" toLane="0" via=":B2_7_0" dir="s" state="="/>
    <connection from="A2B2" to="B2A2" fromLane="0" toLane="0" via=":B2_8_0" dir="t" state="="/>
    <connection from="B0A0" to="A0A1" fromLane="0" toLane="0" via=":A0_1_0" dir="r" state="="/>
    <connection from="B0B1" to="B1C1" fromLane="0" toLane="0" via=":B1_8_0" dir="r" state="="/>
    <connection from="B0B1" to="B1B2" fromLane="0" toLane="0" via=":B1_9_0" dir="s" state="="/>
    <connection from="B0B1" to="B1A1" fromLane="0" toLane="0" via=":B1_10_0" dir="l" state="="/>
    <connection from="B0B1" to="B1B0" fromLane="0" toLane="0" via=":B1_11_0" dir="t" state="="/>
    <connection from="B0C0" to="C0C1" fromLane="0" toLane="0" via=":C0_1_0" dir="l" state="="/>
    <connection from="B1A1" to="A1A2" fromLane="0" toLane="0" via=":A1_3_0" dir="r" state="="/>
    <connection from="B1A1" to="A1A0" fromLane="0" toLane="0" via=":A1_4_0" dir="l" state="="/>
    <connection from="B1A1" to="A1B1" fromLane="0" toLane="0" via=":A1_5_0" dir="t" state="="/>
    <connection from="B1B0" to="B0A0" fromLane="0" toLane="0" via=":B0_0_0" dir="r" state="="/>
    <connection from="B1B0" to="B0C0" fromLane="0" toLane="0" via=":B0_1_0" dir="l" state="="/>
    <connection from="B1B0" to="B0B1" fromLane="0" toLane="0" via=":B0_2_0" dir="t" state="="/>
    <connection from="B1B2" to="B2C2" fromLane="0" toLane="0" via=":B2_3_0" dir="r" state="="/>
    <connection from="B1B2" to="B2A2" fromLane="0" toLane="0" via=":B2_4_0" dir="l" state="="/>
    <connection from="B1B2" to="B2B1" fromLane="0" toLane="0" via=":B2_5_0" dir="t" state="="/>
    <connection from="B1C1" to="C1C0" fromLane="0" toLane="0" via=":C1_6_0" dir="r" state="="/>
    <connection from="B1C1" to="C1C2" fromLane="0" toLane="0" via=":C1_7_0" dir="l" state="="/>
    <connection from="B1C1" to="C1B1" fromLane="0" toLane="0" via=":C1_8_0" dir="t" state="="/>
    <connection from="B2A2" to="A2A1" fromLane="0" toLane="0" via=":A2_0_0" dir="l" state="="/>
    <connection from="B2B1" to="B1A1" fromLane="0" toLane="0" via=":B1_0_0" dir="r" state="="/>
    <connection from="B2B1" to="B1B0" fromLane="0" toLane="0" via=":B1_1_0" dir="s" state="="/>
    <connection from="B2B1" to="B1C1" fromLane="0" toLane="0" via=":B1_2_0" dir="l" state="="/>
    <connection from="B2B1" to="B1B2" fromLane="0" toLane="0" via=":B1_3_0" dir="t" state="="/>
    <connection from="B2C2" to="C2C1" fromLane="0" toLane="0" via=":C2_1_0" dir="r" state="="/>
    <connection from="C0B0" to="B0B1" fromLane="0" toLane="0" via=":B0_3_0" dir="r" state="="/>
    <connection from="C0B0" to="B0A0" fromLane="0" toLane="0" via=":B0_4_0" dir="s" state="="/>
    <connection from="C0B0" to="B0C0" fromLane="0" toLane="0" via=":B0_5_0" dir="t" state="="/>
    <connection from="C0C1" to="C1C2" fromLane="0" toLane="0" via=":C1_3_0" dir="s" state="="/>
    <connection from="C0C1" to="C1B1" fromLane="0" toLane="0" via=":C1_4_0" dir="l" state="="/>
    <connection from="C0C1" to="C1C0" fromLane="0" toLane="0" via=":C1_5_0" dir="t" state="="/>
    <connection from="C1B1" to="B1B2" fromLane="0" toLane="0" via=":B1_4_0" dir="r" state="="/>
    <connection from="C1B1" to="B1A1" fromLane="0" toLane="0" via=":B1_5_0" dir="s" state="="/>
    <connection from="C1B1" to="B1B0" fromLane="0" toLane="0" via=":B1_6_0" dir="l" state="="/>
    <connection from="C1B1" to="B1C1" fromLane="0" toLane="0" via=":B1_7_0" dir="t" state="="/>
    <connection from="C1C0" to="C0B0" fromLane="0" toLane="0" via=":C0_0_0" dir="r" state="="/>
    <connection from="C1C2" to="C2B2" fromLane="0" toLane="0" via=":C2_0_0" dir="l" state="="/>
    <connection from="C2B2" to="B2A2" fromLane="0" toLane="0" via=":B2_0_0" dir="s" state="="/>
    <connection from="C2B2" to="B2B1" fromLane="0" toLane="0" via=":B2_1_0" dir="l" state="="/>
    <connection from="C2B2" to="B2C2" fromLane="0" toLane="0" via=":B2_2_0" dir="t" state="="/>
    <connection from="C2C1" to="C1B1" fromLane="0" toLane="0" via=":C1_0_0" dir="r" state="="/>
    <connection from="C2C1" to="C1C0" fromLane="0" toLane="0" via=":C1_1_0" dir="s" state="="/>
    <connection from="C2C1" to="C1C2" fromLane="0" toLane="0" via=":C1_2_0" dir="t" state="="/>

    <connection from=":A0_0" to="A0B0" fromLane="0" toLane="0" dir="l" state="M"/>
    <connection from=":A0_1" to="A0A1" fromLane="0" toLane="0" dir="r" state="M"/>
    <connection from=":A1_0" to="A1A0" fromLane="0" toLane="0" dir="s" state="M"/>
    <connection from=":A1_1" to="A1B1" fromLane="0" toLane="0" dir="l" state="M"/>
    <connection from=":A1_2" to="A1A2" fromLane="0" toLane="0" dir="t" state="M"/>
    <connection from=":A1_3" to="A1A2" fromLane="0" toLane="0" dir="r" state="M"/>