<?xml version="1.0" encoding="UTF-8"?>

<!-- generated on 2022-02-07 09:48:11 by Eclipse SUMO netedit Version v1_12_0+0293-22171d7ea39
<configuration xmlns:xsi="http://www.w3.org/2001/XMLSchema-instance" xsi:noNamespaceSchemaLocation="http://sumo.dlr.de/xsd/netconvertConfiguration.xsd">

    <input>
        <sumo-net-file value="C:\Users\SUMO-Test\.texttest\tmp\netedit.gui.07Feb094135.2472\netedit.gui\additionalElements\e1detector\inspect_selection\parameters\input_net.net.xml"/>
    </input>

    <output>
        <output-file value="C:\Users\SUMO-Test\.texttest\tmp\netedit.gui.07Feb094135.2472\netedit.gui\additionalElements\e1detector\inspect_selection\parameters\net.net.xml"/>
    </output>

    <processing>
        <geometry.min-radius.fix.railways value="false"/>
        <geometry.max-grade.fix value="false"/>
        <offset.disable-normalization value="true"/>
        <lefthand value="false"/>
    </processing>

    <junctions>
        <no-turnarounds value="true"/>
        <junctions.corner-detail value="5"/>
        <junctions.limit-turn-speed value="5.5"/>
        <rectangular-lane-cut value="false"/>
    </junctions>

    <pedestrian>
        <walkingareas value="false"/>
    </pedestrian>

    <netedit>
        <additional-files value="C:\Users\SUMO-Test\.texttest\tmp\netedit.gui.07Feb094135.2472\netedit.gui\additionalElements\e1detector\inspect_selection\parameters\additionals.xml"/>
        <additionals-output value="C:\Users\SUMO-Test\.texttest\tmp\netedit.gui.07Feb094135.2472\netedit.gui\additionalElements\e1detector\inspect_selection\parameters\additionals.xml"/>
        <route-files value="C:\Users\SUMO-Test\.texttest\tmp\netedit.gui.07Feb094135.2472\netedit.gui\additionalElements\e1detector\inspect_selection\parameters\routes.xml"/>
        <demandelements-output value="C:\Users\SUMO-Test\.texttest\tmp\netedit.gui.07Feb094135.2472\netedit.gui\additionalElements\e1detector\inspect_selection\parameters\routes.xml"/>
        <data-files value="C:\Users\SUMO-Test\.texttest\tmp\netedit.gui.07Feb094135.2472\netedit.gui\additionalElements\e1detector\inspect_selection\parameters\datas.xml"/>
        <dataelements-output value="C:\Users\SUMO-Test\.texttest\tmp\netedit.gui.07Feb094135.2472\netedit.gui\additionalElements\e1detector\inspect_selection\parameters\datas.xml"/>
    </netedit>

    <visualisation>
        <gui-settings-file value="C:\Users\SUMO-Test\.texttest\tmp\netedit.gui.07Feb094135.2472\netedit.gui\additionalElements\e1detector\inspect_selection\parameters\gui-settings.xml"/>
        <window-size value="936,697"/>
        <window-pos value="50,50"/>
        <gui-testing value="true"/>
        <gui-testing-debug value="true"/>
        <gui-testing.setting-output value="C:\Users\SUMO-Test\.texttest\tmp\netedit.gui.07Feb094135.2472\netedit.gui\additionalElements\e1detector\inspect_selection\parameters\guisettingsoutput.xml"/>
    </visualisation>

    <report>
        <no-warnings value="true"/>
        <aggregate-warnings value="5"/>
        <error-log value="C:\Users\SUMO-Test\.texttest\tmp\netedit.gui.07Feb094135.2472\netedit.gui\additionalElements\e1detector\inspect_selection\parameters\log.txt"/>
    </report>

</configuration>
-->

<additional xmlns:xsi="http://www.w3.org/2001/XMLSchema-instance" xsi:noNamespaceSchemaLocation="http://sumo.dlr.de/xsd/additional_file.xsd">
    <e1Detector id="E1_A" name="DetectorA" lane="gneE0_0" pos="6.00" freq="120.00" file="fileA.txt" vTypes="Type1 Type2 Type3">
        <param key="keyFinal1" value="value1"/>
        <param key="keyFinal2" value="value2"/>
        <param key="keyFinal3" value="value3"/>
    </e1Detector>
    <e1Detector id="E1_B" name="DetectorB" lane="gneE0_0" pos="10.00" freq="90.00" file="fileB.txt" vTypes="Type4 Type5 Type6" friendlyPos="1">
        <param key="keyFinal1" value="value1"/>
        <param key="keyFinal2" value="value2"/>
        <param key="keyFinal3" value="value3"/>
    </e1Detector>
</additional>
