<?xml version="1.0" encoding="UTF-8"?>

<!-- generated on 2021-09-16 11:56:07 by Eclipse SUMO netedit Version v1_10_0+0721-94326db740
-->

<routes xmlns:xsi="http://www.w3.org/2001/XMLSchema-instance" xsi:noNamespaceSchemaLocation="http://sumo.dlr.de/xsd/routes_file.xsd">
    <flow id="flow_2" begin="20.00" color="9,43,231" end="50.00" number="100">
        <route edges="gneE2 gneE4 gneE5" color="cyan"/>
    </flow>
    <flow id="flow_3" begin="20.00" color="20,30,40" end="50.00" number="100">
        <route edges="gneE2 gneE4 gneE5" color="cyan"/>
    </flow>
    <flow id="flow_4" begin="20.00" color="magenta" end="50.00" number="100">
        <route edges="gneE2 gneE4 gneE5" color="cyan"/>
    </flow>
</routes>
