<?xml version="1.0" encoding="UTF-8"?>

<!-- generated on Tue Jun  5 14:13:37 2018 by Eclipse SUMO netconvert Version 38586a3af4
<configuration xmlns:xsi="http://www.w3.org/2001/XMLSchema-instance" xsi:noNamespaceSchemaLocation="http://sumo.dlr.de/xsd/netconvertConfiguration.xsd">

    <input>
        <node-files value=".\netedit\volatileRecomputing\crossings.guess\input_net.nod.xml"/>
        <edge-files value=".\netedit\volatileRecomputing\crossings.guess\input_net.edg.xml"/>
        <connection-files value=".\netedit\volatileRecomputing\crossings.guess\input_net.con.xml"/>
    </input>

    <output>
        <output-file value=".\netedit\volatileRecomputing\crossings.guess\input_net.net.xml"/>
    </output>

    <report>
        <verbose value="true"/>
    </report>

</configuration>
-->

<net version="0.27" xmlns:xsi="http://www.w3.org/2001/XMLSchema-instance" xsi:noNamespaceSchemaLocation="http://sumo.dlr.de/xsd/net_file.xsd">

    <location netOffset="3.00,-25.00" convBoundary="0.00,0.00,100.00,60.00" origBoundary="-10000000000.00,-10000000000.00,10000000000.00,10000000000.00" projParameter="!"/>

    <edge id=":gneJ11_0" function="internal">
        <lane id=":gneJ11_0_0" index="0" disallow="pedestrian" speed="13.89" length="13.40" shape="76.70,41.60 63.30,41.60"/>
    </edge>
    <edge id=":gneJ11_1" function="internal">
        <lane id=":gneJ11_1_0" index="0" disallow="pedestrian" speed="13.89" length="5.77" shape="76.70,41.60 73.07,41.08 71.27,40.00"/>
    </edge>
    <edge id=":gneJ11_6" function="internal">
        <lane id=":gneJ11_6_0" index="0" speed="13.89" length="7.62" shape="71.27,40.00 70.47,39.53 68.92,36.93 68.40,33.30"/>
    </edge>
    <edge id=":gneJ11_2" function="internal">
        <lane id=":gneJ11_2_0" index="0" disallow="pedestrian" speed="13.89" length="8.23" shape="71.60,33.30 71.92,35.53 72.88,37.13 74.47,38.08 76.70,38.40"/>
    </edge>
    <edge id=":gneJ11_3" function="internal">
        <lane id=":gneJ11_3_0" index="0" disallow="pedestrian" speed="13.89" length="13.39" shape="71.60,33.30 71.08,36.93 69.52,39.52 66.93,41.08 63.30,41.60"/>
    </edge>
    <edge id=":gneJ11_4" function="internal">
        <lane id=":gneJ11_4_0" index="0" disallow="pedestrian" speed="13.89" length="8.23" shape="63.30,38.40 65.53,38.08 67.13,37.13 68.08,35.53 68.40,33.30"/>
    </edge>
    <edge id=":gneJ11_5" function="internal">
        <lane id=":gneJ11_5_0" index="0" disallow="pedestrian" speed="13.89" length="13.40" shape="63.30,38.40 76.70,38.40"/>
    </edge>
    <edge id=":gneJ12_0" function="internal">
        <lane id=":gneJ12_0_0" index="0" disallow="pedestrian" speed="13.89" length="10.97" shape="91.60,34.80 91.17,37.77 89.90,39.90 87.77,41.17 84.80,41.60"/>
    </edge>
    <edge id=":gneJ12_1" function="internal">
        <lane id=":gneJ12_1_0" index="0" disallow="pedestrian" speed="13.89" length="5.81" shape="84.80,38.40 86.38,38.17 87.50,37.50 88.18,36.38 88.40,34.80"/>
    </edge>
    <edge id=":gneJ13_0" function="internal">
        <lane id=":gneJ13_0_0" index="0" disallow="pedestrian" speed="13.89" length="8.23" shape="88.40,26.70 88.08,24.47 87.13,22.88 85.53,21.92 83.30,21.60"/>
    </edge>
    <edge id=":gneJ13_1" function="internal">
        <lane id=":gneJ13_1_0" index="0" disallow="pedestrian" speed="13.89" length="13.40" shape="88.40,26.70 88.40,13.30"/>
    </edge>
    <edge id=":gneJ13_2" function="internal">
        <lane id=":gneJ13_2_0" index="0" disallow="pedestrian" speed="13.89" length="13.40" shape="91.60,13.30 91.60,26.70"/>
    </edge>
    <edge id=":gneJ13_3" function="internal">
        <lane id=":gneJ13_3_0" index="0" disallow="pedestrian" speed="13.89" length="5.77" shape="91.60,13.30 91.08,16.93 90.00,18.73"/>
    </edge>
    <edge id=":gneJ13_6" function="internal">
        <lane id=":gneJ13_6_0" index="0" speed="13.89" length="7.62" shape="90.00,18.73 89.52,19.53 86.93,21.08 83.30,21.60"/>
    </edge>
    <edge id=":gneJ13_4" function="internal">
        <lane id=":gneJ13_4_0" index="0" disallow="pedestrian" speed="13.89" length="8.23" shape="83.30,18.40 85.53,18.08 87.13,17.13 88.08,15.53 88.40,13.30"/>
    </edge>
    <edge id=":gneJ13_5" function="internal">
        <lane id=":gneJ13_5_0" index="0" disallow="pedestrian" speed="13.89" length="13.39" shape="83.30,18.40 86.93,18.92 89.53,20.48 91.08,23.07 91.60,26.70"/>
    </edge>
    <edge id=":gneJ14_0" function="internal">
        <lane id=":gneJ14_0_0" index="0" disallow="pedestrian" speed="13.89" length="5.81" shape="88.40,5.20 88.17,3.62 87.50,2.50 86.38,1.82 84.80,1.60"/>
    </edge>
    <edge id=":gneJ14_1" function="internal">
        <lane id=":gneJ14_1_0" index="0" disallow="pedestrian" speed="13.89" length="10.97" shape="84.80,-1.60 87.77,-1.17 89.90,0.10 91.17,2.23 91.60,5.20"/>
    </edge>
    <edge id=":gneJ15_0" function="internal">
        <lane id=":gneJ15_0_0" index="0" disallow="pedestrian" speed="13.89" length="8.23" shape="68.40,6.70 68.08,4.47 67.13,2.87 65.53,1.92 63.30,1.60"/>
    </edge>
    <edge id=":gneJ15_1" function="internal">
        <lane id=":gneJ15_1_0" index="0" disallow="pedestrian" speed="13.89" length="13.39" shape="68.40,6.70 68.92,3.07 70.48,0.48 73.07,-1.08 76.70,-1.60"/>
    </edge>
    <edge id=":gneJ15_2" function="internal">
        <lane id=":gneJ15_2_0" index="0" disallow="pedestrian" speed="13.89" length="8.23" shape="76.70,1.60 74.47,1.92 72.88,2.88 71.92,4.47 71.60,6.70"/>
    </edge>
    <edge id=":gneJ15_3" function="internal">
        <lane id=":gneJ15_3_0" index="0" disallow="pedestrian" speed="13.89" length="13.40" shape="76.70,1.60 63.30,1.60"/>
    </edge>
    <edge id=":gneJ15_4" function="internal">
        <lane id=":gneJ15_4_0" index="0" disallow="pedestrian" speed="13.89" length="13.40" shape="63.30,-1.60 76.70,-1.60"/>
    </edge>
    <edge id=":gneJ15_5" function="internal">
        <lane id=":gneJ15_5_0" index="0" disallow="pedestrian" speed="13.89" length="5.77" shape="63.30,-1.60 66.93,-1.08 68.73,0.00"/>
    </edge>
    <edge id=":gneJ15_6" function="internal">
        <lane id=":gneJ15_6_0" index="0" speed="13.89" length="7.62" shape="68.73,0.00 69.53,0.48 71.08,3.07 71.60,6.70"/>
    </edge>
    <edge id=":gneJ16_0" function="internal">
        <lane id=":gneJ16_0_0" index="0" disallow="pedestrian" speed="13.89" length="10.97" shape="48.40,5.20 48.83,2.23 50.10,0.10 52.22,-1.17 55.20,-1.60"/>
    </edge>
    <edge id=":gneJ16_1" function="internal">
        <lane id=":gneJ16_1_0" index="0" disallow="pedestrian" speed="13.89" length="5.81" shape="55.20,1.60 53.63,1.83 52.50,2.50 51.83,3.63 51.60,5.20"/>
    </edge>
    <edge id=":gneJ17_0" function="internal">
        <lane id=":gneJ17_0_0" index="0" disallow="pedestrian" speed="13.89" length="13.40" shape="48.40,26.70 48.40,13.30"/>
    </edge>
    <edge id=":gneJ17_1" function="internal">
        <lane id=":gneJ17_1_0" index="0" disallow="pedestrian" speed="13.89" length="5.77" shape="48.40,26.70 48.92,23.07 50.00,21.27"/>
    </edge>
    <edge id=":gneJ17_6" function="internal">
        <lane id=":gneJ17_6_0" index="0" speed="13.89" length="7.62" shape="50.00,21.27 50.47,20.47 53.07,18.92 56.70,18.40"/>
    </edge>
    <edge id=":gneJ17_2" function="internal">
        <lane id=":gneJ17_2_0" index="0" disallow="pedestrian" speed="13.89" length="8.23" shape="56.70,21.60 54.47,21.92 52.88,22.88 51.92,24.47 51.60,26.70"/>
    </edge>
    <edge id=":gneJ17_3" function="internal">
        <lane id=":gneJ17_3_0" index="0" disallow="pedestrian" speed="13.89" length="13.39" shape="56.70,21.60 53.07,21.08 50.48,19.53 48.92,16.93 48.40,13.30"/>
    </edge>
    <edge id=":gneJ17_4" function="internal">
        <lane id=":gneJ17_4_0" index="0" disallow="pedestrian" speed="13.89" length="8.23" shape="51.60,13.30 51.92,15.53 52.88,17.12 54.47,18.08 56.70,18.40"/>
    </edge>
    <edge id=":gneJ17_5" function="internal">
        <lane id=":gneJ17_5_0" index="0" disallow="pedestrian" speed="13.89" length="13.40" shape="51.60,13.30 51.60,26.70"/>
    </edge>
    <edge id=":gneJ18_0" function="internal">
        <lane id=":gneJ18_0_0" index="0" disallow="pedestrian" speed="13.89" length="10.97" shape="55.20,41.60 52.23,41.17 50.10,39.90 48.82,37.78 48.40,34.80"/>
    </edge>
    <edge id=":gneJ18_1" function="internal">
        <lane id=":gneJ18_1_0" index="0" disallow="pedestrian" speed="13.89" length="5.81" shape="51.60,34.80 51.83,36.38 52.50,37.50 53.63,38.18 55.20,38.40"/>
    </edge>
    <edge id=":gneJ19_0" function="internal">
        <lane id=":gneJ19_0_0" index="0" disallow="pedestrian" speed="13.89" length="8.23" shape="68.40,26.70 68.08,24.47 67.13,22.88 65.53,21.92 63.30,21.60"/>
    </edge>
    <edge id=":gneJ19_1" function="internal">
        <lane id=":gneJ19_1_0" index="0" disallow="pedestrian" speed="13.89" length="13.40" shape="68.40,26.70 68.40,13.30"/>
    </edge>
    <edge id=":gneJ19_2" function="internal">
        <lane id=":gneJ19_2_0" index="0" disallow="pedestrian" speed="13.89" length="5.77" shape="68.40,26.70 68.92,23.07 70.00,21.27"/>
    </edge>
    <edge id=":gneJ19_12" function="internal">
        <lane id=":gneJ19_12_0" index="0" speed="13.89" length="7.62" shape="70.00,21.27 70.48,20.47 73.07,18.92 76.70,18.40"/>
    </edge>
    <edge id=":gneJ19_3" function="internal">
        <lane id=":gneJ19_3_0" index="0" disallow="pedestrian" speed="13.89" length="8.23" shape="76.70,21.60 74.47,21.92 72.88,22.88 71.92,24.47 71.60,26.70"/>
    </edge>
    <edge id=":gneJ19_4" function="internal">
        <lane id=":gneJ19_4_0" index="0" disallow="pedestrian" speed="13.89" length="13.40" shape="76.70,21.60 63.30,21.60"/>
    </edge>
    <edge id=":gneJ19_5" function="internal">
        <lane id=":gneJ19_5_0" index="0" disallow="pedestrian" speed="13.89" length="13.39" shape="76.70,21.60 73.07,21.08 70.47,19.53 68.92,16.93 68.40,13.30"/>
    </edge>
    <edge id=":gneJ19_6" function="internal">
        <lane id=":gneJ19_6_0" index="0" disallow="pedestrian" speed="13.89" length="8.23" shape="71.60,13.30 71.92,15.53 72.88,17.13 74.47,18.08 76.70,18.40"/>
    </edge>
    <edge id=":gneJ19_7" function="internal">
        <lane id=":gneJ19_7_0" index="0" disallow="pedestrian" speed="13.89" length="13.40" shape="71.60,13.30 71.60,26.70"/>
    </edge>
    <edge id=":gneJ19_8" function="internal">
        <lane id=":gneJ19_8_0" index="0" disallow="pedestrian" speed="13.89" length="5.77" shape="71.60,13.30 71.08,16.93 70.00,18.73"/>
    </edge>
    <edge id=":gneJ19_13" function="internal">
        <lane id=":gneJ19_13_0" index="0" speed="13.89" length="7.62" shape="70.00,18.73 69.52,19.53 66.93,21.08 63.30,21.60"/>
    </edge>
    <edge id=":gneJ19_9" function="internal">
        <lane id=":gneJ19_9_0" index="0" disallow="pedestrian" speed="13.89" length="8.23" shape="63.30,18.40 65.53,18.08 67.13,17.13 68.08,15.53 68.40,13.30"/>
    </edge>
    <edge id=":gneJ19_10" function="internal">
        <lane id=":gneJ19_10_0" index="0" disallow="pedestrian" speed="13.89" length="13.40" shape="63.30,18.40 76.70,18.40"/>
    </edge>
    <edge id=":gneJ19_11" function="internal">
        <lane id=":gneJ19_11_0" index="0" disallow="pedestrian" speed="13.89" length="13.39" shape="63.30,18.40 66.93,18.92 69.52,20.48 71.08,23.07 71.60,26.70"/>
    </edge>
    <edge id=":gneJ2_0" function="internal">
        <lane id=":gneJ2_0_0" index="0" disallow="pedestrian" speed="13.89" length="4.67" shape="40.00,61.60 38.80,60.80 38.40,60.00 38.80,59.20 40.00,58.40"/>
    </edge>
    <edge id=":gneJ3_0" function="internal">
        <lane id=":gneJ3_0_0" index="0" disallow="pedestrian" speed="13.89" length="4.67" shape="60.00,58.40 61.20,59.20 61.60,60.00 61.20,60.80 60.00,61.60"/>
    </edge>
    <edge id=":gneJ4_0" function="internal">
        <lane id=":gneJ4_0_0" index="0" disallow="pedestrian" speed="13.89" length="4.67" shape="80.00,61.60 78.80,60.80 78.40,60.00 78.80,59.20 80.00,58.40"/>
    </edge>
    <edge id=":gneJ5_0" function="internal">
        <lane id=":gneJ5_0_0" index="0" disallow="pedestrian" speed="13.89" length="4.67" shape="100.00,58.40 101.20,59.20 101.60,60.00 101.20,60.80 100.00,61.60"/>
    </edge>
    <edge id=":gneJ6_0" function="internal">
        <lane id=":gneJ6_0_0" index="0" disallow="pedestrian" speed="13.89" length="10.97" shape="5.20,41.60 2.23,41.17 0.10,39.90 -1.17,37.78 -1.60,34.80"/>
    </edge>
    <edge id=":gneJ6_1" function="internal">
        <lane id=":gneJ6_1_0" index="0" disallow="pedestrian" speed="13.89" length="5.81" shape="1.60,34.80 1.83,36.37 2.50,37.50 3.63,38.17 5.20,38.40"/>
    </edge>
    <edge id=":gneJ7_0" function="internal">
        <lane id=":gneJ7_0_0" index="0" disallow="pedestrian" speed="13.89" length="10.97" shape="21.60,34.80 21.18,37.77 19.90,39.90 17.77,41.17 14.80,41.60"/>
    </edge>
    <edge id=":gneJ7_1" function="internal">
        <lane id=":gneJ7_1_0" index="0" disallow="pedestrian" speed="13.89" length="5.81" shape="14.80,38.40 16.37,38.17 17.50,37.50 18.17,36.38 18.40,34.80"/>
    </edge>
    <edge id=":gneJ8_0" function="internal">
        <lane id=":gneJ8_0_0" index="0" disallow="pedestrian" speed="13.89" length="5.81" shape="18.40,25.20 18.18,23.63 17.50,22.50 16.38,21.83 14.80,21.60"/>
    </edge>
    <edge id=":gneJ8_1" function="internal">
        <lane id=":gneJ8_1_0" index="0" disallow="pedestrian" speed="13.89" length="10.97" shape="14.80,18.40 17.78,18.82 19.90,20.10 21.18,22.23 21.60,25.20"/>
    </edge>
    <edge id=":gneJ9_0" function="internal">
        <lane id=":gneJ9_0_0" index="0" disallow="pedestrian" speed="13.89" length="10.97" shape="-1.60,25.20 -1.17,22.22 0.10,20.10 2.23,18.82 5.20,18.40"/>
    </edge>
    <edge id=":gneJ9_1" function="internal">
        <lane id=":gneJ9_1_0" index="0" disallow="pedestrian" speed="13.89" length="5.81" shape="5.20,21.60 3.62,21.82 2.50,22.50 1.82,23.63 1.60,25.20"/>
    </edge>

    <edge id="-gneE10" from="gneJ14" to="gneJ13" priority="1">
        <lane id="-gneE10_0" index="0" allow="pedestrian" speed="13.89" length="8.10" width="2.00" shape="94.20,5.20 94.20,13.30"/>
        <lane id="-gneE10_1" index="1" disallow="pedestrian" speed="13.89" length="8.10" shape="91.60,5.20 91.60,13.30"/>
    </edge>
    <edge id="-gneE11" from="gneJ15" to="gneJ14" priority="1">
        <lane id="-gneE11_0" index="0" allow="pedestrian" speed="13.89" length="8.10" width="2.00" shape="76.70,-4.20 84.80,-4.20"/>
        <lane id="-gneE11_1" index="1" disallow="pedestrian" speed="13.89" length="8.10" shape="76.70,-1.60 84.80,-1.60"/>
    </edge>
    <edge id="-gneE12" from="gneJ16" to="gneJ15" priority="1">
        <lane id="-gneE12_0" index="0" allow="pedestrian" speed="13.89" length="8.10" width="2.00" shape="55.20,-4.20 63.30,-4.20"/>
        <lane id="-gneE12_1" index="1" disallow="pedestrian" speed="13.89" length="8.10" shape="55.20,-1.60 63.30,-1.60"/>
    </edge>
    <edge id="-gneE13" from="gneJ17" to="gneJ16" priority="1">
        <lane id="-gneE13_0" index="0" allow="pedestrian" speed="13.89" length="8.10" width="2.00" shape="45.80,13.30 45.80,5.20"/>
        <lane id="-gneE13_1" index="1" disallow="pedestrian" speed="13.89" length="8.10" shape="48.40,13.30 48.40,5.20"/>
    </edge>
    <edge id="-gneE14" from="gneJ18" to="gneJ17" priority="1">
        <lane id="-gneE14_0" index="0" allow="pedestrian" speed="13.89" length="8.10" width="2.00" shape="45.80,34.80 45.80,26.70"/>
        <lane id="-gneE14_1" index="1" disallow="pedestrian" speed="13.89" length="8.10" shape="48.40,34.80 48.40,26.70"/>
    </edge>
    <edge id="-gneE15" from="gneJ11" to="gneJ18" priority="1">
        <lane id="-gneE15_0" index="0" allow="pedestrian" speed="13.89" length="8.10" width="2.00" shape="63.30,44.20 55.20,44.20"/>
        <lane id="-gneE15_1" index="1" disallow="pedestrian" speed="13.89" length="8.10" shape="63.30,41.60 55.20,41.60"/>
    </edge>
    <edge id="-gneE16" from="gneJ11" to="gneJ19" priority="1">
        <lane id="-gneE16_0" index="0" allow="pedestrian" speed="13.89" length="6.60" width="2.00" shape="65.80,33.30 65.80,26.70"/>
        <lane id="-gneE16_1" index="1" disallow="pedestrian" speed="13.89" length="6.60" shape="68.40,33.30 68.40,26.70"/>
    </edge>
    <edge id="-gneE17" from="gneJ13" to="gneJ19" priority="1">
        <lane id="-gneE17_0" index="0" allow="pedestrian" speed="13.89" length="6.60" width="2.00" shape="83.30,24.20 76.70,24.20"/>
        <lane id="-gneE17_1" index="1" disallow="pedestrian" speed="13.89" length="6.60" shape="83.30,21.60 76.70,21.60"/>
    </edge>
    <edge id="-gneE18" from="gneJ15" to="gneJ19" priority="1">
        <lane id="-gneE18_0" index="0" allow="pedestrian" speed="13.89" length="6.60" width="2.00" shape="74.20,6.70 74.20,13.30"/>
        <lane id="-gneE18_1" index="1" disallow="pedestrian" speed="13.89" length="6.60" shape="71.60,6.70 71.60,13.30"/>
    </edge>
    <edge id="-gneE19" from="gneJ17" to="gneJ19" priority="1">
        <lane id="-gneE19_0" index="0" allow="pedestrian" speed="13.89" length="6.60" width="2.00" shape="56.70,15.80 63.30,15.80"/>
        <lane id="-gneE19_1" index="1" disallow="pedestrian" speed="13.89" length="6.60" shape="56.70,18.40 63.30,18.40"/>
    </edge>
    <edge id="-gneE3" from="gneJ5" to="gneJ4" priority="1">
        <lane id="-gneE3_0" index="0" allow="pedestrian" speed="13.89" length="20.00" width="2.00" shape="100.00,64.20 80.00,64.20"/>
        <lane id="-gneE3_1" index="1" disallow="pedestrian" speed="13.89" length="20.00" shape="100.00,61.60 80.00,61.60"/>
    </edge>
    <edge id="-gneE4" from="gneJ7" to="gneJ6" priority="1">
        <lane id="-gneE4_0" index="0" allow="pedestrian" speed="13.89" length="9.60" width="2.00" shape="14.80,44.20 5.20,44.20"/>
        <lane id="-gneE4_1" index="1" disallow="pedestrian" speed="13.89" length="9.60" shape="14.80,41.60 5.20,41.60"/>
    </edge>
    <edge id="-gneE5" from="gneJ8" to="gneJ7" priority="1">
        <lane id="-gneE5_0" index="0" allow="pedestrian" speed="13.89" length="9.60" width="2.00" shape="24.20,25.20 24.20,34.80"/>
        <lane id="-gneE5_1" index="1" disallow="pedestrian" speed="13.89" length="9.60" shape="21.60,25.20 21.60,34.80"/>
    </edge>
    <edge id="-gneE6" from="gneJ9" to="gneJ8" priority="1">
        <lane id="-gneE6_0" index="0" allow="pedestrian" speed="13.89" length="9.60" width="2.00" shape="5.20,15.80 14.80,15.80"/>
        <lane id="-gneE6_1" index="1" disallow="pedestrian" speed="13.89" length="9.60" shape="5.20,18.40 14.80,18.40"/>
    </edge>
    <edge id="-gneE7" from="gneJ6" to="gneJ9" priority="1">
        <lane id="-gneE7_0" index="0" allow="pedestrian" speed="13.89" length="9.60" width="2.00" shape="-4.20,34.80 -4.20,25.20"/>
        <lane id="-gneE7_1" index="1" disallow="pedestrian" speed="13.89" length="9.60" shape="-1.60,34.80 -1.60,25.20"/>
    </edge>
    <edge id="-gneE8" from="gneJ12" to="gneJ11" priority="1">
        <lane id="-gneE8_0" index="0" allow="pedestrian" speed="13.89" length="8.10" width="2.00" shape="84.80,44.20 76.70,44.20"/>
        <lane id="-gneE8_1" index="1" disallow="pedestrian" speed="13.89" length="8.10" shape="84.80,41.60 76.70,41.60"/>
    </edge>
    <edge id="-gneE9" from="gneJ13" to="gneJ12" priority="1">
        <lane id="-gneE9_0" index="0" allow="pedestrian" speed="13.89" length="8.10" width="2.00" shape="94.20,26.70 94.20,34.80"/>
        <lane id="-gneE9_1" index="1" disallow="pedestrian" speed="13.89" length="8.10" shape="91.60,26.70 91.60,34.80"/>
    </edge>
    <edge id="gneE0" from="gneJ0" to="gneJ1" priority="1">
        <lane id="gneE0_0" index="0" allow="pedestrian" speed="13.89" length="20.00" width="2.00" shape="0.00,55.80 20.00,55.80"/>
        <lane id="gneE0_1" index="1" disallow="pedestrian" speed="13.89" length="20.00" shape="0.00,58.40 20.00,58.40"/>
    </edge>
    <edge id="gneE1" from="gneJ2" to="gneJ3" priority="1">
        <lane id="gneE1_0" index="0" allow="pedestrian" speed="13.89" length="20.00" width="2.00" shape="40.00,55.80 60.00,55.80"/>
        <lane id="gneE1_1" index="1" disallow="pedestrian" speed="13.89" length="20.00" shape="40.00,58.40 60.00,58.40"/>
    </edge>
    <edge id="gneE10" from="gneJ13" to="gneJ14" priority="1">
        <lane id="gneE10_0" index="0" allow="pedestrian" speed="13.89" length="8.10" width="2.00" shape="85.80,13.30 85.80,5.20"/>
        <lane id="gneE10_1" index="1" disallow="pedestrian" speed="13.89" length="8.10" shape="88.40,13.30 88.40,5.20"/>
    </edge>
    <edge id="gneE11" from="gneJ14" to="gneJ15" priority="1">
        <lane id="gneE11_0" index="0" allow="pedestrian" speed="13.89" length="8.10" width="2.00" shape="84.80,4.20 76.70,4.20"/>
        <lane id="gneE11_1" index="1" disallow="pedestrian" speed="13.89" length="8.10" shape="84.80,1.60 76.70,1.60"/>
    </edge>
    <edge id="gneE12" from="gneJ15" to="gneJ16" priority="1">
        <lane id="gneE12_0" index="0" allow="pedestrian" speed="13.89" length="8.10" width="2.00" shape="63.30,4.20 55.20,4.20"/>
        <lane id="gneE12_1" index="1" disallow="pedestrian" speed="13.89" length="8.10" shape="63.30,1.60 55.20,1.60"/>
    </edge>
    <edge id="gneE13" from="gneJ16" to="gneJ17" priority="1">
        <lane id="gneE13_0" index="0" allow="pedestrian" speed="13.89" length="8.10" width="2.00" shape="54.20,5.20 54.20,13.30"/>
        <lane id="gneE13_1" index="1" disallow="pedestrian" speed="13.89" length="8.10" shape="51.60,5.20 51.60,13.30"/>
    </edge>
    <edge id="gneE14" from="gneJ17" to="gneJ18" priority="1">
        <lane id="gneE14_0" index="0" allow="pedestrian" speed="13.89" length="8.10" width="2.00" shape="54.20,26.70 54.20,34.80"/>
        <lane id="gneE14_1" index="1" disallow="pedestrian" speed="13.89" length="8.10" shape="51.60,26.70 51.60,34.80"/>
    </edge>
    <edge id="gneE15" from="gneJ18" to="gneJ11" priority="1">
        <lane id="gneE15_0" index="0" allow="pedestrian" speed="13.89" length="8.10" width="2.00" shape="55.20,35.80 63.30,35.80"/>
        <lane id="gneE15_1" index="1" disallow="pedestrian" speed="13.89" length="8.10" shape="55.20,38.40 63.30,38.40"/>
    </edge>
    <edge id="gneE16" from="gneJ19" to="gneJ11" priority="1">
        <lane id="gneE16_0" index="0" allow="pedestrian" speed="13.89" length="6.60" width="2.00" shape="74.20,26.70 74.20,33.30"/>
        <lane id="gneE16_1" index="1" disallow="pedestrian" speed="13.89" length="6.60" shape="71.60,26.70 71.60,33.30"/>
    </edge>
    <edge id="gneE17" from="gneJ19" to="gneJ13" priority="1">
        <lane id="gneE17_0" index="0" allow="pedestrian" speed="13.89" length="6.60" width="2.00" shape="76.70,15.80 83.30,15.80"/>
        <lane id="gneE17_1" index="1" disallow="pedestrian" speed="13.89" length="6.60" shape="76.70,18.40 83.30,18.40"/>
    </edge>
    <edge id="gneE18" from="gneJ19" to="gneJ15" priority="1">
        <lane id="gneE18_0" index="0" allow="pedestrian" speed="13.89" length="6.60" width="2.00" shape="65.80,13.30 65.80,6.70"/>
        <lane id="gneE18_1" index="1" disallow="pedestrian" speed="13.89" length="6.60" shape="68.40,13.30 68.40,6.70"/>
    </edge>
    <edge id="gneE19" from="gneJ19" to="gneJ17" priority="1">
        <lane id="gneE19_0" index="0" allow="pedestrian" speed="13.89" length="6.60" width="2.00" shape="63.30,24.20 56.70,24.20"/>
        <lane id="gneE19_1" index="1" disallow="pedestrian" speed="13.89" length="6.60" shape="63.30,21.60 56.70,21.60"/>
    </edge>
    <edge id="gneE2" from="gneJ3" to="gneJ2" priority="1">
        <lane id="gneE2_0" index="0" allow="pedestrian" speed="13.89" length="20.00" width="2.00" shape="60.00,64.20 40.00,64.20"/>
        <lane id="gneE2_1" index="1" disallow="pedestrian" speed="13.89" length="20.00" shape="60.00,61.60 40.00,61.60"/>
    </edge>
    <edge id="gneE3" from="gneJ4" to="gneJ5" priority="1">
        <lane id="gneE3_0" index="0" allow="pedestrian" speed="13.89" length="20.00" width="2.00" shape="80.00,55.80 100.00,55.80"/>
        <lane id="gneE3_1" index="1" disallow="pedestrian" speed="13.89" length="20.00" shape="80.00,58.40 100.00,58.40"/>
    </edge>
    <edge id="gneE4" from="gneJ6" to="gneJ7" priority="1">
        <lane id="gneE4_0" index="0" allow="pedestrian" speed="13.89" length="9.60" width="2.00" shape="5.20,35.80 14.80,35.80"/>
        <lane id="gneE4_1" index="1" disallow="pedestrian" speed="13.89" length="9.60" shape="5.20,38.40 14.80,38.40"/>
    </edge>
    <edge id="gneE5" from="gneJ7" to="gneJ8" priority="1">
        <lane id="gneE5_0" index="0" allow="pedestrian" speed="13.89" length="9.60" width="2.00" shape="15.80,34.80 15.80,25.20"/>
        <lane id="gneE5_1" index="1" disallow="pedestrian" speed="13.89" length="9.60" shape="18.40,34.80 18.40,25.20"/>
    </edge>
    <edge id="gneE6" from="gneJ8" to="gneJ9" priority="1">
        <lane id="gneE6_0" index="0" allow="pedestrian" speed="13.89" length="9.60" width="2.00" shape="14.80,24.20 5.20,24.20"/>
        <lane id="gneE6_1" index="1" disallow="pedestrian" speed="13.89" length="9.60" shape="14.80,21.60 5.20,21.60"/>
    </edge>
    <edge id="gneE7" from="gneJ9" to="gneJ6" priority="1">
        <lane id="gneE7_0" index="0" allow="pedestrian" speed="13.89" length="9.60" width="2.00" shape="4.20,25.20 4.20,34.80"/>
        <lane id="gneE7_1" index="1" disallow="pedestrian" speed="13.89" length="9.60" shape="1.60,25.20 1.60,34.80"/>
    </edge>
    <edge id="gneE8" from="gneJ11" to="gneJ12" priority="1">
        <lane id="gneE8_0" index="0" allow="pedestrian" speed="13.89" length="8.10" width="2.00" shape="76.70,35.80 84.80,35.80"/>
        <lane id="gneE8_1" index="1" disallow="pedestrian" speed="13.89" length="8.10" shape="76.70,38.40 84.80,38.40"/>
    </edge>
    <edge id="gneE9" from="gneJ12" to="gneJ13" priority="1">
        <lane id="gneE9_0" index="0" allow="pedestrian" speed="13.89" length="8.10" width="2.00" shape="85.80,34.80 85.80,26.70"/>
        <lane id="gneE9_1" index="1" disallow="pedestrian" speed="13.89" length="8.10" shape="88.40,34.80 88.40,26.70"/>
    </edge>

    <junction id="gneJ0" type="dead_end" x="0.00" y="60.00" incLanes="" intLanes="" shape="0.00,60.00 0.00,54.80"/>
    <junction id="gneJ1" type="dead_end" x="20.00" y="60.00" incLanes="gneE0_0 gneE0_1" intLanes="" shape="20.00,54.80 20.00,60.00"/>
    <junction id="gneJ11" type="priority" x="70.00" y="40.00" incLanes="-gneE8_0 -gneE8_1 gneE16_0 gneE16_1 gneE15_0 gneE15_1" intLanes=":gneJ11_0_0 :gneJ11_6_0 :gneJ11_2_0 :gneJ11_3_0 :gneJ11_4_0 :gneJ11_5_0" shape="76.70,45.20 76.70,34.80 75.20,33.30 64.80,33.30 63.30,34.80 63.30,45.20">
        <request index="0" response="000000" foes="001000" cont="0"/>
        <request index="1" response="110000" foes="111000" cont="1"/>
        <request index="2" response="100000" foes="100000" cont="0"/>
        <request index="3" response="100011" foes="100011" cont="0"/>
        <request index="4" response="000000" foes="000010" cont="0"/>
        <request index="5" response="000000" foes="001110" cont="0"/>
    </junction>
    <junction id="gneJ12" type="priority" x="90.00" y="40.00" incLanes="-gneE9_0 -gneE9_1 gneE8_0 gneE8_1" intLanes=":gneJ12_0_0 :gneJ12_1_0" shape="95.20,34.80 84.80,34.80 84.80,45.20">
        <request index="0" response="00" foes="00" cont="0"/>
        <request index="1" response="00" foes="00" cont="0"/>
    </junction>
    <junction id="gneJ13" type="priority" x="90.00" y="20.00" incLanes="gneE9_0 gneE9_1 -gneE10_0 -gneE10_1 gneE17_0 gneE17_1" intLanes=":gneJ13_0_0 :gneJ13_1_0 :gneJ13_2_0 :gneJ13_6_0 :gneJ13_4_0 :gneJ13_5_0" shape="84.80,26.70 95.20,26.70 95.20,13.30 84.80,13.30 83.30,14.80 83.30,25.20">
        <request index="0" response="000000" foes="001000" cont="0"/>
        <request index="1" response="000000" foes="111000" cont="0"/>
        <request index="2" response="000000" foes="100000" cont="0"/>
        <request index="3" response="000011" foes="100011" cont="1"/>
        <request index="4" response="000010" foes="000010" cont="0"/>
        <request index="5" response="001110" foes="001110" cont="0"/>
    </junction>
    <junction id="gneJ14" type="priority" x="90.00" y="0.00" incLanes="gneE10_0 gneE10_1 -gneE11_0 -gneE11_1" intLanes=":gneJ14_0_0 :gneJ14_1_0" shape="84.80,5.20 95.20,5.20 84.80,-5.20">
        <request index="0" response="00" foes="00" cont="0"/>
        <request index="1" response="00" foes="00" cont="0"/>
    </junction>
    <junction id="gneJ15" type="priority" x="70.00" y="0.00" incLanes="gneE18_0 gneE18_1 gneE11_0 gneE11_1 -gneE12_0 -gneE12_1" intLanes=":gneJ15_0_0 :gneJ15_1_0 :gneJ15_2_0 :gneJ15_3_0 :gneJ15_4_0 :gneJ15_6_0" shape="64.80,6.70 75.20,6.70 76.70,5.20 76.70,-5.20 63.30,-5.20 63.30,5.20">
        <request index="0" response="001000" foes="001000" cont="0"/>
        <request index="1" response="111000" foes="111000" cont="0"/>
        <request index="2" response="000000" foes="100000" cont="0"/>
        <request index="3" response="000000" foes="100011" cont="0"/>
        <request index="4" response="000000" foes="000010" cont="0"/>
        <request index="5" response="001100" foes="001110" cont="1"/>
    </junction>
    <junction id="gneJ16" type="priority" x="50.00" y="0.00" incLanes="-gneE13_0 -gneE13_1 gneE12_0 gneE12_1" intLanes=":gneJ16_0_0 :gneJ16_1_0" shape="44.80,5.20 55.20,5.20 55.20,-5.20">
        <request index="0" response="00" foes="00" cont="0"/>
        <request index="1" response="00" foes="00" cont="0"/>
    </junction>
    <junction id="gneJ17" type="priority" x="50.00" y="20.00" incLanes="-gneE14_0 -gneE14_1 gneE19_0 gneE19_1 gneE13_0 gneE13_1" intLanes=":gneJ17_0_0 :gneJ17_6_0 :gneJ17_2_0 :gneJ17_3_0 :gneJ17_4_0 :gneJ17_5_0" shape="44.80,26.70 55.20,26.70 56.70,25.20 56.70,14.80 55.20,13.30 44.80,13.30">
        <request index="0" response="000000" foes="001000" cont="0"/>
        <request index="1" response="110000" foes="111000" cont="1"/>
        <request index="2" response="100000" foes="100000" cont="0"/>
        <request index="3" response="100011" foes="100011" cont="0"/>