<?xml version="1.0" encoding="UTF-8"?>

<!-- generated on 02.10.2019 14:29:32 by Eclipse SUMO netedit Version v1_3_1+0535-f8c85d5067
<configuration xmlns:xsi="http://www.w3.org/2001/XMLSchema-instance" xsi:noNamespaceSchemaLocation="http://sumo.dlr.de/xsd/netconvertConfiguration.xsd">

    <input>
        <sumo-net-file value="C:/Users/SUMO-Test/.texttest/tmp/netedit.gui.02Oct142757.3476/netedit.gui/volatileRecomputing/crossings.guess\input_net.net.xml"/>
    </input>

    <output>
        <output-file value="C:/Users/SUMO-Test/.texttest/tmp/netedit.gui.02Oct142757.3476/netedit.gui/volatileRecomputing/crossings.guess\net.net.xml"/>
    </output>

    <processing>
        <geometry.max-grade.fix value="false"/>
        <offset.disable-normalization value="true"/>
        <lefthand value="false"/>
    </processing>

    <junctions>
        <no-internal-links value="false"/>
        <no-turnarounds value="true"/>
        <junctions.corner-detail value="5"/>
        <junctions.limit-turn-speed value="5.5"/>
        <rectangular-lane-cut value="false"/>
    </junctions>

    <pedestrian>
        <crossings.guess value="true"/>
        <walkingareas value="false"/>
    </pedestrian>

    <netedit>
        <additional-files value="C:/Users/SUMO-Test/.texttest/tmp/netedit.gui.02Oct142757.3476/netedit.gui/volatileRecomputing/crossings.guess\additionals.xml"/>
        <additionals-output value="C:/Users/SUMO-Test/.texttest/tmp/netedit.gui.02Oct142757.3476/netedit.gui/volatileRecomputing/crossings.guess\additionals.xml"/>
        <route-files value="C:/Users/SUMO-Test/.texttest/tmp/netedit.gui.02Oct142757.3476/netedit.gui/volatileRecomputing/crossings.guess\routes.xml"/>
        <demandelements-output value="C:/Users/SUMO-Test/.texttest/tmp/netedit.gui.02Oct142757.3476/netedit.gui/volatileRecomputing/crossings.guess\routes.xml"/>
    </netedit>

    <visualisation>
        <gui-settings-file value="C:/Users/SUMO-Test/.texttest/tmp/netedit.gui.02Oct142757.3476/netedit.gui/volatileRecomputing/crossings.guess\gui-settings.xml"/>
        <window-size value="700,500"/>
        <window-pos value="50,50"/>
        <gui-testing value="true"/>
        <gui-testing-debug value="true"/>
    </visualisation>

    <report>
        <no-warnings value="true"/>
        <error-log value="C:/Users/SUMO-Test/.texttest/tmp/netedit.gui.02Oct142757.3476/netedit.gui/volatileRecomputing/crossings.guess\log.txt"/>
    </report>

</configuration>
-->

<net version="1.6" junctionCornerDetail="5" walkingareas="true" limitTurnSpeed="5.50" xmlns:xsi="http://www.w3.org/2001/XMLSchema-instance" xsi:noNamespaceSchemaLocation="http://sumo.dlr.de/xsd/net_file.xsd">

    <location netOffset="3.00,-25.00" convBoundary="0.00,0.00,100.00,60.00" origBoundary="-10000000000.00,-10000000000.00,10000000000.00,10000000000.00" projParameter="!"/>

    <edge id=":gneJ11_0" function="internal">
        <lane id=":gneJ11_0_0" index="0" disallow="pedestrian rail_fast" speed="13.89" length="0.10" shape="70.00,41.60 70.00,41.60"/>
    </edge>
    <edge id=":gneJ11_1" function="internal">
        <lane id=":gneJ11_1_0" index="0" disallow="pedestrian rail_fast" speed="13.89" length="0.10" shape="70.00,38.40 70.00,38.40"/>
    </edge>
    <edge id=":gneJ11_c0" function="crossing" crossingEdges="gneE8 -gneE8">
        <lane id=":gneJ11_c0_0" index="0" allow="pedestrian" speed="1.00" length="6.40" width="4.00" shape="68.00,36.80 68.00,43.20"/>
    </edge>
    <edge id=":gneJ11_w0" function="walkingarea">
        <lane id=":gneJ11_w0_0" index="0" allow="pedestrian" speed="1.00" length="2.24" width="4.00" shape="70.00,43.20 70.00,45.20 70.00,45.20 70.00,43.20 66.00,43.20"/>
    </edge>
    <edge id=":gneJ11_w1" function="walkingarea">
        <lane id=":gneJ11_w1_0" index="0" allow="pedestrian" speed="1.00" length="2.24" width="4.00" shape="66.00,36.80 70.00,36.80 70.00,34.80 70.00,34.80 70.00,36.80"/>
    </edge>
    <edge id=":gneJ12_0" function="internal">
        <lane id=":gneJ12_0_0" index="0" disallow="pedestrian rail_fast" speed="7.10" length="10.97" shape="91.60,34.80 91.17,37.78 89.90,39.90 87.77,41.18 84.80,41.60"/>
    </edge>
    <edge id=":gneJ12_1" function="internal">
        <lane id=":gneJ12_1_0" index="0" disallow="pedestrian rail_fast" speed="5.37" length="5.81" shape="84.80,38.40 86.38,38.17 87.50,37.50 88.18,36.38 88.40,34.80"/>
    </edge>
    <edge id=":gneJ12_c0" function="crossing" crossingEdges="gneE9 -gneE9">
        <lane id=":gneJ12_c0_0" index="0" allow="pedestrian" speed="1.00" length="6.40" width="4.00" shape="86.80,36.80 93.20,36.80"/>
    </edge>
    <edge id=":gneJ12_w0" function="walkingarea">
        <lane id=":gneJ12_w0_0" index="0" allow="pedestrian" speed="1.00" length="8.91" width="4.00" shape="84.80,43.20 84.80,45.20 95.20,34.80 93.20,34.80 92.97,37.37 92.27,39.47 91.10,41.10 89.47,42.27 87.37,42.97"/>
    </edge>
    <edge id=":gneJ12_w1" function="walkingarea">
        <lane id=":gneJ12_w1_0" index="0" allow="pedestrian" speed="1.00" length="1.96" width="4.00" shape="86.80,34.80 84.80,34.80 84.80,34.80 84.80,36.80 85.41,36.74 85.91,36.58 86.30,36.30 86.58,35.91 86.74,35.41"/>
    </edge>
    <edge id=":gneJ13_0" function="internal">
        <lane id=":gneJ13_0_0" index="0" disallow="pedestrian rail_fast" speed="13.89" length="0.10" shape="88.40,20.00 88.40,20.00"/>
    </edge>
    <edge id=":gneJ13_1" function="internal">
        <lane id=":gneJ13_1_0" index="0" disallow="pedestrian rail_fast" speed="13.89" length="0.10" shape="91.60,20.00 91.60,20.00"/>
    </edge>
    <edge id=":gneJ13_c0" function="crossing" crossingEdges="-gneE9 gneE9">
        <lane id=":gneJ13_c0_0" index="0" allow="pedestrian" speed="1.00" length="6.40" width="4.00" shape="93.20,18.00 86.80,18.00"/>
    </edge>
    <edge id=":gneJ13_w0" function="walkingarea">
        <lane id=":gneJ13_w0_0" index="0" allow="pedestrian" speed="1.00" length="2.24" width="4.00" shape="86.80,20.00 84.80,20.00 84.80,20.00 86.80,20.00 86.80,16.00"/>
    </edge>
    <edge id=":gneJ13_w1" function="walkingarea">
        <lane id=":gneJ13_w1_0" index="0" allow="pedestrian" speed="1.00" length="2.24" width="4.00" shape="93.20,16.00 93.20,20.00 95.20,20.00 95.20,20.00 93.20,20.00"/>
    </edge>
    <edge id=":gneJ14_0" function="internal">
        <lane id=":gneJ14_0_0" index="0" disallow="pedestrian rail_fast" speed="5.37" length="5.81" shape="88.40,5.20 88.17,3.62 87.50,2.50 86.38,1.82 84.80,1.60"/>
    </edge>
    <edge id=":gneJ14_1" function="internal">
        <lane id=":gneJ14_1_0" index="0" disallow="pedestrian rail_fast" speed="7.10" length="10.97" shape="84.80,-1.60 87.77,-1.17 89.90,0.10 91.17,2.23 91.60,5.20"/>
    </edge>
    <edge id=":gneJ14_c0" function="crossing" crossingEdges="-gneE10 gneE10">
        <lane id=":gneJ14_c0_0" index="0" allow="pedestrian" speed="1.00" length="6.40" width="4.00" shape="93.20,3.20 86.80,3.20"/>
    </edge>
    <edge id=":gneJ14_w0" function="walkingarea">
        <lane id=":gneJ14_w0_0" index="0" allow="pedestrian" speed="1.00" length="1.96" width="4.00" shape="84.80,3.20 84.80,5.20 84.80,5.20 86.80,5.20 86.74,4.59 86.58,4.09 86.30,3.70 85.91,3.42 85.41,3.26"/>
    </edge>
    <edge id=":gneJ14_w1" function="walkingarea">
        <lane id=":gneJ14_w1_0" index="0" allow="pedestrian" speed="1.00" length="8.91" width="4.00" shape="93.20,5.20 95.20,5.20 84.80,-5.20 84.80,-3.20 87.37,-2.97 89.47,-2.27 91.10,-1.10 92.27,0.53 92.97,2.63"/>
    </edge>
    <edge id=":gneJ15_0" function="internal">
        <lane id=":gneJ15_0_0" index="0" disallow="pedestrian rail_fast" speed="13.89" length="0.10" shape="70.00,1.60 70.00,1.60"/>
    </edge>
    <edge id=":gneJ15_1" function="internal">
        <lane id=":gneJ15_1_0" index="0" disallow="pedestrian rail_fast" speed="13.89" length="0.10" shape="70.00,-1.60 70.00,-1.60"/>
    </edge>
    <edge id=":gneJ15_c0" function="crossing" crossingEdges="-gneE11 gneE11">
        <lane id=":gneJ15_c0_0" index="0" allow="pedestrian" speed="1.00" length="6.40" width="4.00" shape="68.00,-3.20 68.00,3.20"/>
    </edge>
    <edge id=":gneJ15_w0" function="walkingarea">
        <lane id=":gneJ15_w0_0" index="0" allow="pedestrian" speed="1.00" length="2.24" width="4.00" shape="70.00,3.20 70.00,5.20 70.00,5.20 70.00,3.20 66.00,3.20"/>
    </edge>
    <edge id=":gneJ15_w1" function="walkingarea">
        <lane id=":gneJ15_w1_0" index="0" allow="pedestrian" speed="1.00" length="2.24" width="4.00" shape="66.00,-3.20 70.00,-3.20 70.00,-5.20 70.00,-5.20 70.00,-3.20"/>
    </edge>
    <edge id=":gneJ16_0" function="internal">
        <lane id=":gneJ16_0_0" index="0" disallow="pedestrian rail_fast" speed="7.10" length="10.97" shape="48.40,5.20 48.83,2.23 50.10,0.10 52.22,-1.17 55.20,-1.60"/>
    </edge>
    <edge id=":gneJ16_1" function="internal">
        <lane id=":gneJ16_1_0" index="0" disallow="pedestrian rail_fast" speed="5.37" length="5.81" shape="55.20,1.60 53.63,1.83 52.50,2.50 51.83,3.63 51.60,5.20"/>
    </edge>
    <edge id=":gneJ16_c0" function="crossing" crossingEdges="gneE13 -gneE13">
        <lane id=":gneJ16_c0_0" index="0" allow="pedestrian" speed="1.00" length="6.40" width="4.00" shape="53.20,3.20 46.80,3.20"/>
    </edge>
    <edge id=":gneJ16_w0" function="walkingarea">
        <lane id=":gneJ16_w0_0" index="0" allow="pedestrian" speed="1.00" length="8.91" width="4.00" shape="55.20,-3.20 55.20,-5.20 44.80,5.20 46.80,5.20 47.03,2.63 47.73,0.53 48.90,-1.10 50.53,-2.27 52.63,-2.97"/>
    </edge>
    <edge id=":gneJ16_w1" function="walkingarea">
        <lane id=":gneJ16_w1_0" index="0" allow="pedestrian" speed="1.00" length="1.96" width="4.00" shape="53.20,5.20 55.20,5.20 55.20,5.20 55.20,3.20 54.59,3.26 54.09,3.42 53.70,3.70 53.42,4.09 53.26,4.59"/>
    </edge>
    <edge id=":gneJ17_0" function="internal">
        <lane id=":gneJ17_0_0" index="0" disallow="pedestrian rail_fast" speed="13.89" length="0.10" shape="48.40,20.00 48.40,20.00"/>
    </edge>
    <edge id=":gneJ17_1" function="internal">
        <lane id=":gneJ17_1_0" index="0" disallow="pedestrian rail_fast" speed="13.89" length="0.10" shape="51.60,20.00 51.60,20.00"/>
    </edge>
    <edge id=":gneJ17_c0" function="crossing" crossingEdges="gneE14 -gneE14">
        <lane id=":gneJ17_c0_0" index="0" allow="pedestrian" speed="1.00" length="6.40" width="4.00" shape="53.20,18.00 46.80,18.00"/>
    </edge>
    <edge id=":gneJ17_w0" function="walkingarea">
        <lane id=":gneJ17_w0_0" index="0" allow="pedestrian" speed="1.00" length="2.24" width="4.00" shape="46.80,20.00 44.80,20.00 44.80,20.00 46.80,20.00 46.80,16.00"/>
    </edge>
    <edge id=":gneJ17_w1" function="walkingarea">
        <lane id=":gneJ17_w1_0" index="0" allow="pedestrian" speed="1.00" length="2.24" width="4.00" shape="53.20,16.00 53.20,20.00 55.20,20.00 55.20,20.00 53.20,20.00"/>
    </edge>
    <edge id=":gneJ18_0" function="internal">
        <lane id=":gneJ18_0_0" index="0" disallow="pedestrian rail_fast" speed="7.10" length="10.97" shape="55.20,41.60 52.23,41.17 50.10,39.90 48.83,37.78 48.40,34.80"/>
    </edge>
    <edge id=":gneJ18_1" function="internal">
        <lane id=":gneJ18_1_0" index="0" disallow="pedestrian rail_fast" speed="5.37" length="5.81" shape="51.60,34.80 51.83,36.38 52.50,37.50 53.63,38.17 55.20,38.40"/>
    </edge>
    <edge id=":gneJ18_c0" function="crossing" crossingEdges="gneE15 -gneE15">
        <lane id=":gneJ18_c0_0" index="0" allow="pedestrian" speed="1.00" length="6.40" width="4.00" shape="53.20,36.80 53.20,43.20"/>
    </edge>
    <edge id=":gneJ18_w0" function="walkingarea">
        <lane id=":gneJ18_w0_0" index="0" allow="pedestrian" speed="1.00" length="8.91" width="4.00" shape="46.80,34.80 44.80,34.80 55.20,45.20 55.20,43.20 52.63,42.97 50.53,42.27 48.90,41.10 47.73,39.47 47.03,37.37"/>
    </edge>
    <edge id=":gneJ18_w1" function="walkingarea">
        <lane id=":gneJ18_w1_0" index="0" allow="pedestrian" speed="1.00" length="1.96" width="4.00" shape="55.20,36.80 55.20,34.80 55.20,34.80 53.20,34.80 53.26,35.41 53.42,35.91 53.70,36.30 54.09,36.58 54.59,36.74"/>
    </edge>
    <edge id=":gneJ2_0" function="internal">
        <lane id=":gneJ2_0_0" index="0" disallow="pedestrian rail_fast" speed="3.65" length="4.67" shape="40.00,61.60 38.80,60.80 38.40,60.00 38.80,59.20 40.00,58.40"/>
    </edge>
    <edge id=":gneJ2_w0" function="walkingarea">
        <lane id=":gneJ2_w0_0" index="0" allow="pedestrian" speed="1.00" length="8.40" width="2.00" shape="40.00,56.80 40.00,54.80 40.00,65.20 40.00,63.20"/>
    </edge>
    <edge id=":gneJ3_0" function="internal">
        <lane id=":gneJ3_0_0" index="0" disallow="pedestrian rail_fast" speed="3.65" length="4.67" shape="60.00,58.40 61.20,59.20 61.60,60.00 61.20,60.80 60.00,61.60"/>
    </edge>
    <edge id=":gneJ3_w0" function="walkingarea">
        <lane id=":gneJ3_w0_0" index="0" allow="pedestrian" speed="1.00" length="8.40" width="2.00" shape="60.00,63.20 60.00,65.20 60.00,54.80 60.00,56.80"/>
    </edge>
    <edge id=":gneJ4_0" function="internal">
        <lane id=":gneJ4_0_0" index="0" disallow="pedestrian rail_fast" speed="3.65" length="4.67" shape="80.00,61.60 78.80,60.80 78.40,60.00 78.80,59.20 80.00,58.40"/>
    </edge>
    <edge id=":gneJ4_w0" function="walkingarea">
        <lane id=":gneJ4_w0_0" index="0" allow="pedestrian" speed="1.00" length="8.40" width="2.00" shape="80.00,56.80 80.00,54.80 80.00,65.20 80.00,63.20"/>
    </edge>
    <edge id=":gneJ5_0" function="internal">
        <lane id=":gneJ5_0_0" index="0" disallow="pedestrian rail_fast" speed="3.65" length="4.67" shape="100.00,58.40 101.20,59.20 101.60,60.00 101.20,60.80 100.00,61.60"/>
    </edge>
    <edge id=":gneJ5_w0" function="walkingarea">
        <lane id=":gneJ5_w0_0" index="0" allow="pedestrian" speed="1.00" length="8.40" width="2.00" shape="100.00,63.20 100.00,65.20 100.00,54.80 100.00,56.80"/>
    </edge>
    <edge id=":gneJ6_0" function="internal">
        <lane id=":gneJ6_0_0" index="0" disallow="pedestrian rail_fast" speed="7.10" length="10.97" shape="5.20,41.60 2.23,41.17 0.10,39.90 -1.17,37.78 -1.60,34.80"/>
    </edge>
    <edge id=":gneJ6_1" function="internal">
        <lane id=":gneJ6_1_0" index="0" disallow="pedestrian rail_fast" speed="5.37" length="5.81" shape="1.60,34.80 1.83,36.37 2.50,37.50 3.63,38.17 5.20,38.40"/>
    </edge>
    <edge id=":gneJ6_c0" function="crossing" crossingEdges="gneE4 -gneE4">
        <lane id=":gneJ6_c0_0" index="0" allow="pedestrian" speed="1.00" length="6.40" width="4.00" shape="3.20,36.80 3.20,43.20"/>
    </edge>
    <edge id=":gneJ6_w0" function="walkingarea">
        <lane id=":gneJ6_w0_0" index="0" allow="pedestrian" speed="1.00" length="8.91" width="4.00" shape="-3.20,34.80 -5.20,34.80 5.20,45.20 5.20,43.20 2.63,42.97 0.53,42.27 -1.10,41.10 -2.27,39.47 -2.97,37.37"/>
    </edge>
    <edge id=":gneJ6_w1" function="walkingarea">
        <lane id=":gneJ6_w1_0" index="0" allow="pedestrian" speed="1.00" length="1.96" width="4.00" shape="5.20,36.80 5.20,34.80 5.20,34.80 3.20,34.80 3.26,35.41 3.42,35.91 3.70,36.30 4.09,36.58 4.59,36.74"/>
    </edge>
    <edge id=":gneJ7_0" function="internal">
        <lane id=":gneJ7_0_0" index="0" disallow="pedestrian rail_fast" speed="7.10" length="10.97" shape="21.60,34.80 21.18,37.77 19.90,39.90 17.77,41.17 14.80,41.60"/>
    </edge>
    <edge id=":gneJ7_1" function="internal">
        <lane id=":gneJ7_1_0" index="0" disallow="pedestrian rail_fast" speed="5.37" length="5.81" shape="14.80,38.40 16.37,38.17 17.50,37.50 18.17,36.38 18.40,34.80"/>
    </edge>
    <edge id=":gneJ7_c0" function="crossing" crossingEdges="gneE5 -gneE5">
        <lane id=":gneJ7_c0_0" index="0" allow="pedestrian" speed="1.00" length="6.40" width="4.00" shape="16.80,36.80 23.20,36.80"/>
    </edge>
    <edge id=":gneJ7_w0" function="walkingarea">
        <lane id=":gneJ7_w0_0" index="0" allow="pedestrian" speed="1.00" length="8.91" width="4.00" shape="14.80,43.20 14.80,45.20 25.20,34.80 23.20,34.80 22.97,37.37 22.27,39.47 21.10,41.10 19.47,42.27 17.37,42.97"/>
    </edge>
    <edge id=":gneJ7_w1" function="walkingarea">
        <lane id=":gneJ7_w1_0" index="0" allow="pedestrian" speed="1.00" length="1.96" width="4.00" shape="16.80,34.80 14.80,34.80 14.80,34.80 14.80,36.80 15.41,36.74 15.91,36.58 16.30,36.30 16.58,35.91 16.74,35.41"/>
    </edge>
    <edge id=":gneJ8_0" function="internal">
        <lane id=":gneJ8_0_0" index="0" disallow="pedestrian rail_fast" speed="5.37" length="5.81" shape="18.40,25.20 18.18,23.63 17.50,22.50 16.38,21.83 14.80,21.60"/>
    </edge>
    <edge id=":gneJ8_1" function="internal">
        <lane id=":gneJ8_1_0" index="0" disallow="pedestrian rail_fast" speed="7.10" length="10.97" shape="14.80,18.40 17.78,18.82 19.90,20.10 21.18,22.23 21.60,25.20"/>
    </edge>
    <edge id=":gneJ8_c0" function="crossing" crossingEdges="-gneE5 gneE5">
        <lane id=":gneJ8_c0_0" index="0" allow="pedestrian" speed="1.00" length="6.40" width="4.00" shape="23.20,23.20 16.80,23.20"/>
    </edge>
    <edge id=":gneJ8_w0" function="walkingarea">
        <lane id=":gneJ8_w0_0" index="0" allow="pedestrian" speed="1.00" length="1.96" width="4.00" shape="14.80,23.20 14.80,25.20 14.80,25.20 16.80,25.20 16.74,24.59 16.58,24.09 16.30,23.70 15.91,23.42 15.41,23.26"/>
    </edge>
    <edge id=":gneJ8_w1" function="walkingarea">
        <lane id=":gneJ8_w1_0" index="0" allow="pedestrian" speed="1.00" length="8.91" width="4.00" shape="23.20,25.20 25.20,25.20 14.80,14.80 14.80,16.80 17.37,17.03 19.47,17.73 21.10,18.90 22.27,20.53 22.97,22.63"/>
    </edge>
    <edge id=":gneJ9_0" function="internal">
        <lane id=":gneJ9_0_0" index="0" disallow="pedestrian rail_fast" speed="7.10" length="10.97" shape="-1.60,25.20 -1.17,22.22 0.10,20.10 2.23,18.82 5.20,18.40"/>
    </edge>
    <edge id=":gneJ9_1" function="internal">
        <lane id=":gneJ9_1_0" index="0" disallow="pedestrian rail_fast" speed="5.37" length="5.81" shape="5.20,21.60 3.62,21.82 2.50,22.50 1.82,23.63 1.60,25.20"/>
    </edge>
    <edge id=":gneJ9_c0" function="crossing" crossingEdges="gneE7 -gneE7">
        <lane id=":gneJ9_c0_0" index="0" allow="pedestrian" speed="1.00" length="6.40" width="4.00" shape="3.20,23.20 -3.20,23.20"/>
    </edge>
    <edge id=":gneJ9_w0" function="walkingarea">
        <lane id=":gneJ9_w0_0" index="0" allow="pedestrian" speed="1.00" length="8.91" width="4.00" shape="5.20,16.80 5.20,14.80 -5.20,25.20 -3.20,25.20 -2.97,22.63 -2.27,20.53 -1.10,18.90 0.53,17.73 2.63,17.03"/>
    </edge>
    <edge id=":gneJ9_w1" function="walkingarea">
        <lane id=":gneJ9_w1_0" index="0" allow="pedestrian" speed="1.00" length="1.96" width="4.00" shape="3.20,25.20 5.20,25.20 5.20,25.20 5.20,23.20 4.59,23.26 4.09,23.42 3.70,23.70 3.42,24.09 3.26,24.59"/>
    </edge>

    <edge id="-gneE10" from="gneJ14" to="gneJ13" priority="1">
        <lane id="-gneE10_0" index="0" allow="pedestrian" speed="13.89" length="14.80" width="2.00" shape="94.20,5.20 94.20,20.00"/>
        <lane id="-gneE10_1" index="1" disallow="pedestrian rail_fast" speed="13.89" length="14.80" shape="91.60,5.20 91.60,20.00"/>
    </edge>
    <edge id="-gneE11" from="gneJ15" to="gneJ14" priority="1">
        <lane id="-gneE11_0" index="0" allow="pedestrian" speed="13.89" length="14.80" width="2.00" shape="70.00,-4.20 84.80,-4.20"/>
        <lane id="-gneE11_1" index="1" disallow="pedestrian rail_fast" speed="13.89" length="14.80" shape="70.00,-1.60 84.80,-1.60"/>
    </edge>
    <edge id="-gneE12" from="gneJ16" to="gneJ15" priority="1">
        <lane id="-gneE12_0" index="0" allow="pedestrian" speed="13.89" length="14.80" width="2.00" shape="55.20,-4.20 70.00,-4.20"/>
        <lane id="-gneE12_1" index="1" disallow="pedestrian rail_fast" speed="13.89" length="14.80" shape="55.20,-1.60 70.00,-1.60"/>
    </edge>
    <edge id="-gneE13" from="gneJ17" to="gneJ16" priority="1">
        <lane id="-gneE13_0" index="0" allow="pedestrian" speed="13.89" length="14.80" width="2.00" shape="45.80,20.00 45.80,5.20"/>
        <lane id="-gneE13_1" index="1" disallow="pedestrian rail_fast" speed="13.89" length="14.80" shape="48.40,20.00 48.40,5.20"/>
    </edge>
    <edge id="-gneE14" from="gneJ18" to="gneJ17" priority="1">
        <lane id="-gneE14_0" index="0" allow="pedestrian" speed="13.89" length="14.80" width="2.00" shape="45.80,34.80 45.80,20.00"/>
        <lane id="-gneE14_1" index="1" disallow="pedestrian rail_fast" speed="13.89" length="14.80" shape="48.40,34.80 48.40,20.00"/>
    </edge>
    <edge id="-gneE15" from="gneJ11" to="gneJ18" priority="1">
        <lane id="-gneE15_0" index="0" allow="pedestrian" speed="13.89" length="14.80" width="2.00" shape="70.00,44.20 55.20,44.20"/>
        <lane id="-gneE15_1" index="1" disallow="pedestrian rail_fast" speed="13.89" length="14.80" shape="70.00,41.60 55.20,41.60"/>
    </edge>
    <edge id="-gneE3" from="gneJ5" to="gneJ4" priority="1">
        <lane id="-gneE3_0" index="0" allow="pedestrian" speed="13.89" length="20.00" width="2.00" shape="100.00,64.20 80.00,64.20"/>
        <lane id="-gneE3_1" index="1" disallow="pedestrian rail_fast" speed="13.89" length="20.00" shape="100.00,61.60 80.00,61.60"/>
    </edge>
    <edge id="-gneE4" from="gneJ7" to="gneJ6" priority="1">
        <lane id="-gneE4_0" index="0" allow="pedestrian" speed="13.89" length="9.60" width="2.00" shape="14.80,44.20 5.20,44.20"/>
        <lane id="-gneE4_1" index="1" disallow="pedestrian rail_fast" speed="13.89" length="9.60" shape="14.80,41.60 5.20,41.60"/>
    </edge>
    <edge id="-gneE5" from="gneJ8" to="gneJ7" priority="1">
        <lane id="-gneE5_0" index="0" allow="pedestrian" speed="13.89" length="9.60" width="2.00" shape="24.20,25.20 24.20,34.80"/>
        <lane id="-gneE5_1" index="1" disallow="pedestrian rail_fast" speed="13.89" length="9.60" shape="21.60,25.20 21.60,34.80"/>
    </edge>
    <edge id="-gneE6" from="gneJ9" to="gneJ8" priority="1">
        <lane id="-gneE6_0" index="0" allow="pedestrian" speed="13.89" length="9.60" width="2.00" shape="5.20,15.80 14.80,15.80"/>
        <lane id="-gneE6_1" index="1" disallow="pedestrian rail_fast" speed="13.89" length="9.60" shape="5.20,18.40 14.80,18.40"/>
    </edge>
    <edge id="-gneE7" from="gneJ6" to="gneJ9" priority="1">
        <lane id="-gneE7_0" index="0" allow="pedestrian" speed="13.89" length="9.60" width="2.00" shape="-4.20,34.80 -4.20,25.20"/>
        <lane id="-gneE7_1" index="1" disallow="pedestrian rail_fast" speed="13.89" length="9.60" shape="-1.60,34.80 -1.60,25.20"/>
    </edge>
    <edge id="-gneE8" from="gneJ12" to="gneJ11" priority="1">
        <lane id="-gneE8_0" index="0" allow="pedestrian" speed="13.89" length="14.80" width="2.00" shape="84.80,44.20 70.00,44.20"/>
        <lane id="-gneE8_1" index="1" disallow="pedestrian rail_fast" speed="13.89" length="14.80" shape="84.80,41.60 70.00,41.60"/>
    </edge>
    <edge id="-gneE9" from="gneJ13" to="gneJ12" priority="1">
        <lane id="-gneE9_0" index="0" allow="pedestrian" speed="13.89" length="14.80" width="2.00" shape="94.20,20.00 94.20,34.80"/>
        <lane id="-gneE9_1" index="1" disallow="pedestrian rail_fast" speed="13.89" length="14.80" shape="91.60,20.00 91.60,34.80"/>
    </edge>
    <edge id="gneE0" from="gneJ0" to="gneJ1" priority="1">
        <lane id="gneE0_0" index="0" allow="pedestrian" speed="13.89" length="20.00" width="2.00" shape="0.00,55.80 20.00,55.80"/>
        <lane id="gneE0_1" index="1" disallow="pedestrian rail_fast" speed="13.89" length="20.00" shape="0.00,58.40 20.00,58.40"/>
    </edge>
    <edge id="gneE1" from="gneJ2" to="gneJ3" priority="1">
        <lane id="gneE1_0" index="0" allow="pedestrian" speed="13.89" length="20.00" width="2.00" shape="40.00,55.80 60.00,55.80"/>
        <lane id="gneE1_1" index="1" disallow="pedestrian rail_fast" speed="13.89" length="20.00" shape="40.00,58.40 60.00,58.40"/>
    </edge>
    <edge id="gneE10" from="gneJ13" to="gneJ14" priority="1">
        <lane id="gneE10_0" index="0" allow="pedestrian" speed="13.89" length="14.80" width="2.00" shape="85.80,20.00 85.80,5.20"/>
        <lane id="gneE10_1" index="1" disallow="pedestrian rail_fast" speed="13.89" length="14.80" shape="88.40,20.00 88.40,5.20"/>
    </edge>
    <edge id="gneE11" from="gneJ14" to="gneJ15" priority="1">
        <lane id="gneE11_0" index="0" allow="pedestrian" speed="13.89" length="14.80" width="2.00" shape="84.80,4.20 70.00,4.20"/>
        <lane id="gneE11_1" index="1" disallow="pedestrian rail_fast" speed="13.89" length="14.80" shape="84.80,1.60 70.00,1.60"/>
    </edge>
    <edge id="gneE12" from="gneJ15" to="gneJ16" priority="1">
        <lane id="gneE12_0" index="0" allow="pedestrian" speed="13.89" length="14.80" width="2.00" shape="70.00,4.20 55.20,4.20"/>
        <lane id="gneE12_1" index="1" disallow="pedestrian rail_fast" speed="13.89" length="14.80" shape="70.00,1.60 55.20,1.60"/>
    </edge>
    <edge id="gneE13" from="gneJ16" to="gneJ17" priority="1">
        <lane id="gneE13_0" index="0" allow="pedestrian" speed="13.89" length="14.80" width="2.00" shape="54.20,5.20 54.20,20.00"/>
        <lane id="gneE13_1" index="1" disallow="pedestrian rail_fast" speed="13.89" length="14.80" shape="51.60,5.20 51.60,20.00"/>
    </edge>
    <edge id="gneE14" from="gneJ17" to="gneJ18" priority="1">
        <lane id="gneE14_0" index="0" allow="pedestrian" speed="13.89" length="14.80" width="2.00" shape="54.20,20.00 54.20,34.80"/>
        <lane id="gneE14_1" index="1" disallow="pedestrian rail_fast" speed="13.89" length="14.80" shape="51.60,20.00 51.60,34.80"/>
    </edge>
    <edge id="gneE15" from="gneJ18" to="gneJ11" priority="1">
        <lane id="gneE15_0" index="0" allow="pedestrian" speed="13.89" length="14.80" width="2.00" shape="55.20,35.80 70.00,35.80"/>
        <lane id="gneE15_1" index="1" disallow="pedestrian rail_fast" speed="13.89" length="14.80" shape="55.20,38.40 70.00,38.40"/>
    </edge>
    <edge id="gneE2" from="gneJ3" to="gneJ2" priority="1">
        <lane id="gneE2_0" index="0" allow="pedestrian" speed="13.89" length="20.00" width="2.00" shape="60.00,64.20 40.00,64.20"/>
        <lane id="gneE2_1" index="1" disallow="pedestrian rail_fast" speed="13.89" length="20.00" shape="60.00,61.60 40.00,61.60"/>
    </edge>
    <edge id="gneE3" from="gneJ4" to="gneJ5" priority="1">
        <lane id="gneE3_0" index="0" allow="pedestrian" speed="13.89" length="20.00" width="2.00" shape="80.00,55.80 100.00,55.80"/>
        <lane id="gneE3_1" index="1" disallow="pedestrian rail_fast" speed="13.89" length="20.00" shape="80.00,58.40 100.00,58.40"/>
    </edge>
    <edge id="gneE4" from="gneJ6" to="gneJ7" priority="1">
        <lane id="gneE4_0" index="0" allow="pedestrian" speed="13.89" length="9.60" width="2.00" shape="5.20,35.80 14.80,35.80"/>
        <lane id="gneE4_1" index="1" disallow="pedestrian rail_fast" speed="13.89" length="9.60" shape="5.20,38.40 14.80,38.40"/>
    </edge>
    <edge id="gneE5" from="gneJ7" to="gneJ8" priority="1">
        <lane id="gneE5_0" index="0" allow="pedestrian" speed="13.89" length="9.60" width="2.00" shape="15.80,34.80 15.80,25.20"/>
        <lane id="gneE5_1" index="1" disallow="pedestrian rail_fast" speed="13.89" length="9.60" shape="18.40,34.80 18.40,25.20"/>
    </edge>
    <edge id="gneE6" from="gneJ8" to="gneJ9" priority="1">
        <lane id="gneE6_0" index="0" allow="pedestrian" speed="13.89" length="9.60" width="2.00" shape="14.80,24.20 5.20,24.20"/>
        <lane id="gneE6_1" index="1" disallow="pedestrian rail_fast" speed="13.89" length="9.60" shape="14.80,21.60 5.20,21.60"/>
    </edge>
    <edge id="gneE7" from="gneJ9" to="gneJ6" priority="1">
        <lane id="gneE7_0" index="0" allow="pedestrian" speed="13.89" length="9.60" width="2.00" shape="4.20,25.20 4.20,34.80"/>
        <lane id="gneE7_1" index="1" disallow="pedestrian rail_fast" speed="13.89" length="9.60" shape="1.60,25.20 1.60,34.80"/>
    </edge>
    <edge id="gneE8" from="gneJ11" to="gneJ12" priority="1">
        <lane id="gneE8_0" index="0" allow="pedestrian" speed="13.89" length="14.80" width="2.00" shape="70.00,35.80 84.80,35.80"/>
        <lane id="gneE8_1" index="1" disallow="pedestrian rail_fast" speed="13.89" length="14.80" shape="70.00,38.40 84.80,38.40"/>
    </edge>
    <edge id="gneE9" from="gneJ12" to="gneJ13" priority="1">
        <lane id="gneE9_0" index="0" allow="pedestrian" speed="13.89" length="14.80" width="2.00" shape="85.80,34.80 85.80,20.00"/>
        <lane id="gneE9_1" index="1" disallow="pedestrian rail_fast" speed="13.89" length="14.80" shape="88.40,34.80 88.40,20.00"/>
    </edge>

    <junction id="gneJ0" type="dead_end" x="0.00" y="60.00" incLanes="" intLanes="" shape="0.00,60.00 0.00,54.80"/>
    <junction id="gneJ1" type="dead_end" x="20.00" y="60.00" incLanes="gneE0_0 gneE0_1" intLanes="" shape="20.00,54.80 20.00,60.00"/>
    <junction id="gneJ11" type="priority" x="70.00" y="40.00" incLanes="-gneE8_0 -gneE8_1 gneE15_0 gneE15_1 :gneJ11_w1_0" intLanes=":gneJ11_0_0 :gneJ11_1_0 :gneJ11_c0_0" shape="70.00,45.20 70.00,34.80 70.00,45.20">
        <request index="0" response="000" foes="100" cont="0"/>
        <request index="1" response="000" foes="100" cont="0"/>
        <request index="2" response="011" foes="011" cont="0"/>
    </junction>
    <junction id="gneJ12" type="priority" x="90.00" y="40.00" incLanes="-gneE9_0 -gneE9_1 gneE8_0 gneE8_1 :gneJ12_w1_0" intLanes=":gneJ12_0_0 :gneJ12_1_0 :gneJ12_c0_0" shape="95.20,34.80 84.80,34.80 84.80,45.20 87.98,44.91 90.58,44.04 92.60,42.60 94.04,40.58 94.91,37.98">
        <request index="0" response="000" foes="100" cont="0"/>
        <request index="1" response="100" foes="100" cont="0"/>
        <request index="2" response="001" foes="011" cont="0"/>
    </junction>
    <junction id="gneJ13" type="priority" x="90.00" y="20.00" incLanes="gneE9_0 gneE9_1 -gneE10_0 -gneE10_1 :gneJ13_w1_0" intLanes=":gneJ13_0_0 :gneJ13_1_0 :gneJ13_c0_0" shape="84.80,20.00 95.20,20.00 84.80,20.00">
        <request index="0" response="000" foes="100" cont="0"/>