<?xml version="1.0" encoding="UTF-8"?>

<!-- generated on 2024-06-05 14:59:49 by Eclipse SUMO netedit Version v1_20_0+0359-09f6b58d48b
-->

<additional xmlns:xsi="http://www.w3.org/2001/XMLSchema-instance" xsi:noNamespaceSchemaLocation="http://sumo.dlr.de/xsd/additional_file.xsd">
    <!-- Detectors -->
    <inductionLoop id="e1_0" name="customName" lane="EdgeCenter1_1" pos="32.82" period="300.00" file="e1_0.xml"/>
</additional>
