<?xml version="1.0" encoding="UTF-8"?>

<!-- generated on 2023-02-14 13:52:48 by Eclipse SUMO netedit Version v1_16_0+0177-c72433bc6bd
-->

<additional xmlns:xsi="http://www.w3.org/2001/XMLSchema-instance" xsi:noNamespaceSchemaLocation="http://sumo.dlr.de/xsd/additional_file.xsd">
    <!-- Detectors -->
    <inductionLoop id="E1_01" lane="center0_1" pos="3.00" period="100.00" file="fileA.txt" vTypes="bus taxi private"/>
    <inductionLoop id="ID with spaces" lane="center0_1" pos="6.00" period="100.00" file="fileA.txt" vTypes="bus taxi private"/>
    <inductionLoop id="validID" lane="center0_1" pos="6.00" period="100.00" file="fileA.txt" vTypes="bus taxi private"/>
</additional>
