<?xml version="1.0" encoding="UTF-8"?>

<!-- generated on 08.03.2019 13:24:59 by Eclipse SUMO netedit Version v1_1_0+1177-ae4e665b46
<configuration xmlns:xsi="http://www.w3.org/2001/XMLSchema-instance" xsi:noNamespaceSchemaLocation="http://sumo.dlr.de/xsd/netconvertConfiguration.xsd">

    <input>
        <sumo-net-file value="C:/Users/SUMO-Test/.texttest/tmp/netedit.gui.08Mar132247.1320/netedit.gui/additionalElements/e1InstantDetector/inspect/friendlypos\input_net.net.xml"/>
    </input>

    <output>
        <output-file value="C:/Users/SUMO-Test/.texttest/tmp/netedit.gui.08Mar132247.1320/netedit.gui/additionalElements/e1InstantDetector/inspect/friendlypos\net.net.xml"/>
    </output>

    <processing>
        <geometry.max-grade.fix value="false"/>
        <offset.disable-normalization value="true"/>
        <lefthand value="false"/>
    </processing>

    <junctions>
        <no-turnarounds value="true"/>
        <junctions.corner-detail value="5"/>
        <junctions.limit-turn-speed value="5.5"/>
        <rectangular-lane-cut value="false"/>
    </junctions>

    <pedestrian>
        <walkingareas value="false"/>
    </pedestrian>

    <netedit>
        <additionals-output value="C:/Users/SUMO-Test/.texttest/tmp/netedit.gui.08Mar132247.1320/netedit.gui/additionalElements/e1InstantDetector/inspect/friendlypos\additionals.xml"/>
        <demandelements-output value="C:/Users/SUMO-Test/.texttest/tmp/netedit.gui.08Mar132247.1320/netedit.gui/additionalElements/e1InstantDetector/inspect/friendlypos\routes.xml"/>
    </netedit>

    <visualisation>
        <gui-settings-file value="C:/Users/SUMO-Test/.texttest/tmp/netedit.gui.08Mar132247.1320/netedit.gui/additionalElements/e1InstantDetector/inspect/friendlypos\gui-settings.xml"/>
        <window-size value="700,500"/>
        <window-pos value="50,50"/>
        <gui-testing value="true"/>
        <gui-testing-debug value="true"/>
    </visualisation>

    <report>
        <no-warnings value="true"/>
        <error-log value="C:/Users/SUMO-Test/.texttest/tmp/netedit.gui.08Mar132247.1320/netedit.gui/additionalElements/e1InstantDetector/inspect/friendlypos\log.txt"/>
    </report>

</configuration>
-->

<additional xmlns:xsi="http://www.w3.org/2001/XMLSchema-instance" xsi:noNamespaceSchemaLocation="http://sumo.dlr.de/xsd/additional_file.xsd">
    <instantInductionLoop id="instantInductionLoop_gneE3_1_0" lane="gneE3_1" pos="33.00" file="instantInductionLoop_gneE3_1_0.xml" friendlyPos="1"/>
</additional>
