<?xml version="1.0" encoding="UTF-8"?>

<!-- generated on 2024-06-12 18:31:58 by Eclipse SUMO sumo Version v1_20_0+0443-233e48e5c88
-->

<sumoConfiguration xmlns:xsi="http://www.w3.org/2001/XMLSchema-instance" xsi:noNamespaceSchemaLocation="http://sumo.dlr.de/xsd/sumoConfiguration.xsd">

    <input>
        <net-file value="input_net.net.xml"/>
        <additional-files value="input_routes.rou.xml,input_additional2.add.xml"/>
    </input>

    <output>
        <amitran-output value="localhost:8089"/>
        <save-state.prefix value="state"/>
    </output>

    <time>
        <begin value="0"/>
        <end value="150"/>
    </time>

    <report>
        <duration-log.disable value="true"/>
        <no-step-log value="true"/>
    </report>

    <emissions>
        <phemlight-path value="PHEMlight"/>
    </emissions>

</sumoConfiguration>
