<?xml version="1.0" encoding="UTF-8"?>

<!-- generated on 2022-04-07 15:50:19 by Eclipse SUMO netedit Version v1_12_0+2007-a899def1309
-->

<routes xmlns:xsi="http://www.w3.org/2001/XMLSchema-instance" xsi:noNamespaceSchemaLocation="http://sumo.dlr.de/xsd/routes_file.xsd">
    <!-- Vehicles, persons and containers (sorted by depart) -->
    <flow id="f_0" begin="0.00" departLane="random" departSpeed="max" from="25290438" to="23208748#0" end="1000.00" vehsPerHour="1800.00"/>
</routes>
