<?xml version="1.0" encoding="UTF-8"?>

<!-- generated on 2022-06-03 16:30:47 by Eclipse SUMO netedit Version v1_13_0+0610-e5b7f68bfcb
-->

<additional xmlns:xsi="http://www.w3.org/2001/XMLSchema-instance" xsi:noNamespaceSchemaLocation="http://sumo.dlr.de/xsd/additional_file.xsd">
    <!-- Detectors -->
    <entryExitDetector id="entryExitDetector_0" pos="0.00,10.00" period="100.00" file="fileA.txt">
        <detEntry lane="gneE1_0" pos="2.00"/>
        <detExit lane="gneE0_0" pos="2.00"/>
        <detEntry lane="gneE1_0" pos="6.00"/>
        <detExit lane="gneE0_0" pos="6.00"/>
    </entryExitDetector>
    <entryExitDetector id="id with spaces" pos="2.00,10.00" period="100.00" file="fileA.txt">
        <detEntry lane="gneE1_0" pos="4.00"/>
        <detExit lane="gneE0_0" pos="4.00"/>
    </entryExitDetector>
</additional>
