<?xml version="1.0" encoding="UTF-8"?>

<!-- generated on Mon Feb 17 15:30:44 2020 by Eclipse SUMO netconvert Version v1_5_0+0130-ceb0a01
This data file and the accompanying materials
are made available under the terms of the Eclipse Public License v2.0
which accompanies this distribution, and is available at
http://www.eclipse.org/legal/epl-v20.html
SPDX-License-Identifier: EPL-2.0
<configuration xmlns:xsi="http://www.w3.org/2001/XMLSchema-instance" xsi:noNamespaceSchemaLocation="http://sumo.dlr.de/xsd/netconvertConfiguration.xsd">

    <input>
        <node-files value="input_nodes.nod.xml"/>
        <edge-files value="input_edges.edg.xml"/>
    </input>

    <output>
        <write-license value="true"/>
    </output>

    <processing>
        <speed-in-kmh value="true"/>
    </processing>

    <report>
        <xml-validation value="never"/>
        <aggregate-warnings value="5"/>
    </report>

</configuration>
-->

<net version="1.6" junctionCornerDetail="5" limitTurnSpeed="5.50" xmlns:xsi="http://www.w3.org/2001/XMLSchema-instance" xsi:noNamespaceSchemaLocation="http://sumo.dlr.de/xsd/net_file.xsd">

    <location netOffset="0.00,50.00" convBoundary="0.00,0.00,50.00,100.00" origBoundary="-50.00,-50.00,50.00,50.00" projParameter="!"/>

    <edge id=":0_0" function="internal">
        <lane id=":0_0_0" index="0" speed="7.64" length="14.40" shape="-1.60,57.20 -1.60,42.80"/>
    </edge>
    <edge id=":0_1" function="internal">
        <lane id=":0_1_0" index="0" speed="8.00" length="14.19" shape="-1.60,57.20 -1.05,53.35 0.60,50.60 3.35,48.95 7.20,48.40"/>
    </edge>
    <edge id=":0_2" function="internal">
        <lane id=":0_2_0" index="0" speed="3.65" length="2.56" shape="-1.60,57.20 -0.80,56.00 0.00,55.60 0.20,55.70"/>
    </edge>
    <edge id=":0_9" function="internal">
        <lane id=":0_9_0" index="0" speed="3.65" length="2.12" shape="0.20,55.70 0.80,56.00 1.60,57.20"/>
    </edge>
    <edge id=":0_3" function="internal">
        <lane id=":0_3_0" index="0" speed="6.51" length="9.03" shape="7.20,51.60 4.75,51.95 3.00,53.00 1.95,54.75 1.60,57.20"/>
    </edge>
    <edge id=":0_4" function="internal">
        <lane id=":0_4_0" index="0" speed="7.64" length="4.12" shape="7.20,51.60 3.35,51.05 3.15,50.93"/>
    </edge>
    <edge id=":0_5" function="internal">
        <lane id=":0_5_0" index="0" speed="3.65" length="2.08" shape="7.20,51.60 6.00,50.80 5.71,50.23"/>
    </edge>
    <edge id=":0_10" function="internal">
        <lane id=":0_10_0" index="0" speed="7.64" length="10.08" shape="3.15,50.93 0.60,49.40 -1.05,46.65 -1.60,42.80"/>
    </edge>
    <edge id=":0_11" function="internal">
        <lane id=":0_11_0" index="0" speed="3.65" length="2.59" shape="5.71,50.23 5.60,50.00 6.00,49.20 7.20,48.40"/>
    </edge>
    <edge id=":0_6" function="internal">
        <lane id=":0_6_0" index="0" speed="6.51" length="9.03" shape="1.60,42.80 1.95,45.25 3.00,47.00 4.75,48.05 7.20,48.40"/>
    </edge>
    <edge id=":0_7" function="internal">
        <lane id=":0_7_0" index="0" speed="7.64" length="14.40" shape="1.60,42.80 1.60,57.20"/>
    </edge>
    <edge id=":0_8" function="internal">
        <lane id=":0_8_0" index="0" speed="3.65" length="4.67" shape="1.60,42.80 0.80,44.00 0.00,44.40 -0.80,44.00 -1.60,42.80"/>
    </edge>
    <edge id=":2_0" function="internal">
        <lane id=":2_0_0" index="0" speed="3.65" length="4.67" shape="50.00,48.40 51.20,49.20 51.60,50.00 51.20,50.80 50.00,51.60"/>
    </edge>
    <edge id=":3_0" function="internal">
        <lane id=":3_0_0" index="0" speed="3.65" length="4.67" shape="-1.60,0.00 -0.80,-1.20 0.00,-1.60 0.80,-1.20 1.60,0.00"/>
    </edge>
    <edge id=":4_0" function="internal">
        <lane id=":4_0_0" index="0" speed="3.65" length="4.67" shape="1.60,100.00 0.80,101.20 0.00,101.60 -0.80,101.20 -1.60,100.00"/>
    </edge>

    <edge id="2i" from="2" to="0" priority="-1">
        <lane id="2i_0" index="0" speed="9.73" length="42.80" shape="50.00,51.60 7.20,51.60"/>
    </edge>
    <edge id="2o" from="0" to="2" priority="-1">
        <lane id="2o_0" index="0" speed="9.73" length="42.80" shape="7.20,48.40 50.00,48.40"/>
    </edge>
    <edge id="3i" from="3" to="0" priority="-1">
        <lane id="3i_0" index="0" speed="5.56" length="42.80" shape="1.60,0.00 1.60,42.80"/>
    </edge>
    <edge id="3o" from="0" to="3" priority="-1">
        <lane id="3o_0" index="0" speed="5.56" length="42.80" shape="-1.60,42.80 -1.60,0.00"/>
    </edge>
    <edge id="4i" from="4" to="0" priority="-1">
        <lane id="4i_0" index="0" speed="9.73" length="42.80" shape="-1.60,100.00 -1.60,57.20"/>
    </edge>
    <edge id="4o" from="0" to="4" priority="-1">
        <lane id="4o_0" index="0" speed="9.73" length="42.80" shape="1.60,57.20 1.60,100.00"/>
    </edge>

    <junction id="0" type="priority" x="0.00" y="50.00" incLanes="4i_0 2i_0 3i_0" intLanes=":0_0_0 :0_1_0 :0_9_0 :0_3_0 :0_10_0 :0_11_0 :0_6_0 :0_7_0 :0_8_0" shape="-3.20,57.20 3.20,57.20 3.64,54.98 4.20,54.20 4.98,53.64 5.98,53.31 7.20,53.20 7.20,46.80 4.98,46.36 4.20,45.80 3.64,45.02 3.31,44.02 3.20,42.80 -3.20,42.80">
        <request index="0" response="000000000" foes="100010000" cont="0"/>
        <request index="1" response="000000000" foes="011110000" cont="0"/>
        <request index="2" response="010001000" foes="010001000" cont="1"/>
        <request index="3" response="000000000" foes="010000100" cont="0"/>
        <request index="4" response="000000011" foes="110000011" cont="1"/>
        <request index="5" response="001000010" foes="001000010" cont="1"/>
        <request index="6" response="000000010" foes="000100010" cont="0"/>
        <request index="7" response="000011010" foes="000011110" cont="0"/>
        <request index="8" response="000010001" foes="000010001" cont="0"/>
    </junction>
    <junction id="2" type="priority" x="50.00" y="50.00" incLanes="2o_0" intLanes=":2_0_0" shape="50.00,50.00 50.00,46.80 50.00,50.00">
        <request index="0" response="0" foes="0" cont="0"/>
    </junction>
    <junction id="3" type="priority" x="0.00" y="0.00" incLanes="3o_0" intLanes=":3_0_0" shape="0.00,0.00 -3.20,0.00 0.00,0.00">
        <request index="0" response="0" foes="0" cont="0"/>
    </junction>
    <junction id="4" type="priority" x="0.00" y="100.00" incLanes="4o_0" intLanes=":4_0_0" shape="0.00,100.00 3.20,100.00 0.00,100.00">
        <request index="0" response="0" foes="0" cont="0"/>
    </junction>

    <junction id=":0_9_0" type="internal" x="0.20" y="55.70" incLanes=":0_2_0 2i_0 3i_0" intLanes=":0_3_0 :0_7_0"/>
    <junction id=":0_10_0" type="internal" x="3.15" y="50.93" incLanes=":0_4_0 4i_0" intLanes=":0_0_0 :0_1_0 :0_7_0 :0_8_0"/>
    <junction id=":0_11_0" type="internal" x="5.71" y="50.23" incLanes=":0_5_0 3i_0 4i_0" intLanes=":0_1_0 :0_6_0"/>

    <connection from="2i" to="4o" fromLane="0" toLane="0" via=":0_3_0" dir="r" state="M"/>
    <connection from="2i" to="3o" fromLane="0" toLane="0" via=":0_4_0" dir="l" state="m"/>
    <connection from="2i" to="2o" fromLane="0" toLane="0" via=":0_5_0" dir="t" state="m"/>
    <connection from="2o" to="2i" fromLane="0" toLane="0" via=":2_0_0" dir="t" state="M"/>
    <connection from="3i" to="2o" fromLane="0" toLane="0" via=":0_6_0" dir="r" state="m"/>
    <connection from="3i" to="4o" fromLane="0" toLane="0" via=":0_7_0" dir="s" state="m"/>
    <connection from="3i" to="3o" fromLane="0" toLane="0" via=":0_8_0" dir="t" state="m"/>
    <connection from="3o" to="3i" fromLane="0" toLane="0" via=":3_0_0" dir="t" state="M"/>
    <connection from="4i" to="3o" fromLane="0" toLane="0" via=":0_0_0" dir="s" state="M"/>
    <connection from="4i" to="2o" fromLane="0" toLane="0" via=":0_1_0" dir="l" state="M"/>
    <connection from="4i" to="4o" fromLane="0" toLane="0" via=":0_2_0" dir="t" state="m"/>
    <connection from="4o" to="4i" fromLane="0" toLane="0" via=":4_0_0" dir="t" state="M"/>

    <connection from=":0_0" to="3o" fromLane="0" toLane="0" dir="s" state="M"/>
    <connection from=":0_1" to="2o" fromLane="0" toLane="0" dir="l" state="M"/>
    <connection from=":0_2" to="4o" fromLane="0" toLane="0" via=":0_9_0" dir="t" state="m"/>
    <connection from=":0_9" to="4o" fromLane="0" toLane="0" dir="t" state="M"/>
    <connection from=":0_3" to="4o" fromLane="0" toLane="0" dir="r" state="M"/>
    <connection from=":0_4" to="3o" fromLane="0" toLane="0" via=":0_10_0" dir="l" state="m"/>
    <connection from=":0_10" to="3o" fromLane="0" toLane="0" dir="l" state="M"/>
    <connection from=":0_5" to="2o" fromLane="0" toLane="0" via=":0_11_0" dir="t" state="m"/>
    <connection from=":0_11" to="2o" fromLane="0" toLane="0" dir="t" state="M"/>
    <connection from=":0_6" to="2o" fromLane="0" toLane="0" dir="r" state="M"/>
    <connection from=":0_7" to="4o" fromLane="0" toLane="0" dir="s" state="M"/>
    <connection from=":0_8" to="3o" fromLane="0" toLane="0" dir="t" state="M"/>
    <connection from=":2_0" to="2i" fromLane="0" toLane="0" dir="t" state="M"/>
    <connection from=":3_0" to="3i" fromLane="0" toLane="0" dir="t" state="M"/>
    <connection from=":4_0" to="4i" fromLane="0" toLane="0" dir="t" state="M"/>

</net>
