<?xml version="1.0" encoding="UTF-8"?>

<!-- generated on 2021-09-16 11:05:32 by Eclipse SUMO netedit Version v1_10_0+0721-94326db740
-->

<routes xmlns:xsi="http://www.w3.org/2001/XMLSchema-instance" xsi:noNamespaceSchemaLocation="http://sumo.dlr.de/xsd/routes_file.xsd">
    <trip id="trip_3" depart="20.00" personNumber="0" fromJunction="gneJ4" toJunction="gneJ7"/>
    <trip id="trip_5" depart="20.00" personNumber="4" fromJunction="gneJ4" toJunction="gneJ7"/>
</routes>
