<?xml version="1.0" encoding="UTF-8"?>

<!-- generated on 15.08.2019 14:01:27 by Eclipse SUMO netedit Version v1_2_0+1605-009c4e18f7
<configuration xmlns:xsi="http://www.w3.org/2001/XMLSchema-instance" xsi:noNamespaceSchemaLocation="http://sumo.dlr.de/xsd/netconvertConfiguration.xsd">

    <input>
        <sumo-net-file value="C:/Users/SUMO-Test/.texttest/tmp/netedit.gui.15Aug140036.10324/netedit.gui/demandElements/person/create/departPos\input_net.net.xml"/>
    </input>

    <output>
        <output-file value="C:/Users/SUMO-Test/.texttest/tmp/netedit.gui.15Aug140036.10324/netedit.gui/demandElements/person/create/departPos\net.net.xml"/>
    </output>

    <processing>
        <geometry.max-grade.fix value="false"/>
        <offset.disable-normalization value="true"/>
        <opposites.guess.fix-lengths value="true"/>
        <lefthand value="false"/>
    </processing>

    <junctions>
        <no-turnarounds value="true"/>
        <junctions.corner-detail value="5"/>
        <junctions.limit-turn-speed value="5.5"/>
        <rectangular-lane-cut value="false"/>
    </junctions>

    <pedestrian>
        <walkingareas value="false"/>
    </pedestrian>

    <netedit>
        <additional-files value="C:/Users/SUMO-Test/.texttest/tmp/netedit.gui.15Aug140036.10324/netedit.gui/demandElements/person/create/departPos\additionals.xml"/>
        <additionals-output value="C:/Users/SUMO-Test/.texttest/tmp/netedit.gui.15Aug140036.10324/netedit.gui/demandElements/person/create/departPos\additionals.xml"/>
        <route-files value="C:/Users/SUMO-Test/.texttest/tmp/netedit.gui.15Aug140036.10324/netedit.gui/demandElements/person/create/departPos\routes.xml"/>
        <demandelements-output value="C:/Users/SUMO-Test/.texttest/tmp/netedit.gui.15Aug140036.10324/netedit.gui/demandElements/person/create/departPos\routes.xml"/>
    </netedit>

    <visualisation>
        <window-size value="700,500"/>
        <window-pos value="50,50"/>
        <gui-testing value="true"/>
        <gui-testing-debug value="true"/>
        <gui-testing-debug-gl value="true"/>
    </visualisation>

    <report>
        <no-warnings value="true"/>
        <error-log value="C:/Users/SUMO-Test/.texttest/tmp/netedit.gui.15Aug140036.10324/netedit.gui/demandElements/person/create/departPos\log.txt"/>
    </report>

</configuration>
-->

<routes xmlns:xsi="http://www.w3.org/2001/XMLSchema-instance" xsi:noNamespaceSchemaLocation="http://sumo.dlr.de/xsd/routes_file.xsd">
    <person id="person_0" depart="0.00" departPos="-12.00">
        <walk edges="gneE2 gneE4 gneE5"/>
    </person>
    <person id="person_1" depart="0.00" departPos="5000.00">
        <walk edges="gneE2 gneE4 gneE5"/>
    </person>
    <person id="person_2" depart="0.00" departPos="20.00">
        <walk edges="gneE2 gneE4 gneE5"/>
    </person>
    <person id="person_3" depart="0.00" departPos="random">
        <walk edges="gneE2 gneE4 gneE5"/>
    </person>
    <person id="person_4" depart="0.00" departPos="free">
        <walk edges="gneE2 gneE4 gneE5"/>
    </person>
    <person id="person_5" depart="0.00">
        <walk edges="gneE2 gneE4 gneE5"/>
    </person>
    <person id="person_6" depart="0.00" departPos="random_free">
        <walk edges="gneE2 gneE4 gneE5"/>
    </person>
    <person id="person_7" depart="0.00" departPos="last">
        <walk edges="gneE2 gneE4 gneE5"/>
    </person>
</routes>
