<?xml version="1.0" encoding="UTF-8"?>

<!-- generated on 2024-02-29 13:55:29.463553 by netdiff.py v1_19_0+1092-a49a04372af
<configuration>
    <source value="source.net.xml"/>
    <dest value="dest.net.xml"/>
    <outprefix value="diff"/>
</configuration>
-->

<edges version="1.20" xmlns:xsi="http://www.w3.org/2001/XMLSchema-instance" xsi:noNamespaceSchemaLocation="http://sumo.dlr.de/xsd/edgediff_file.xsd">
    <!-- Deleted Elements -->
    <!-- deletion of roundabouts not yet supported. see #2225 <roundabout edges="roundA1 roundA2 roundA3 roundA4" discard="true"/> -->
    <!-- Created Elements -->
    <roundabout edges="roundB1 roundB2 roundB3 roundB4" nodes="E gneJ4 gneJ5 gneJ6"/>
    <!-- Changed Elements -->
</edges>
