<?xml version="1.0" encoding="UTF-8"?>

<!-- generated on 05/31/17 09:51:46 by SUMO duarouter Version dev-SVN-r24513
<?xml version="1.0" encoding="UTF-8"?>

<configuration xmlns:xsi="http://www.w3.org/2001/XMLSchema-instance" xsi:noNamespaceSchemaLocation="http://sumo.dlr.de/xsd/duarouterConfiguration.xsd">

    <input>
        <net-file value="input_net.net.xml"/>
        <additional-files value="input_districts.taz.xml"/>
        <route-files value="input_trips.trips.xml"/>
    </input>

    <output>
        <output-file value="routes.rou.xml"/>
    </output>

    <processing>
        <routing-algorithm value="astar"/>
    </processing>

    <report>
        <verbose value="true"/>
        <xml-validation value="never"/>
        <no-step-log value="true"/>
    </report>

</configuration>
-->

<routes xmlns:xsi="http://www.w3.org/2001/XMLSchema-instance" xsi:noNamespaceSchemaLocation="http://sumo.dlr.de/xsd/routes_file.xsd">
    <vType id="DEFAULT_VEHTYPE" sigma="0"/>
    <vehicle id="0" depart="0.00" fromTaz="1" toTaz="2">
        <routeDistribution last="0">
            <route cost="58.81" probability="1.00000000" edges="5/5to5/6 5/6to6/6 6/6to6/7 6/7to7/7 7/7to7/8 7/8to8/8 8/8to8/9 8/9to9/9 9/9to8/9"/>
        </routeDistribution>
    </vehicle>
</routes>
