<?xml version="1.0" encoding="UTF-8"?>

<!-- generated on 2022-04-13 13:44:19 by Eclipse SUMO netedit Version v1_12_0+2116-e213da33b78
-->

<routes xmlns:xsi="http://www.w3.org/2001/XMLSchema-instance" xsi:noNamespaceSchemaLocation="http://sumo.dlr.de/xsd/routes_file.xsd">
    <!-- Vehicles, persons and containers (sorted by depart) -->
    <personFlow id="pf_0" begin="0.00" end="3600.00" personsPerHour="1800.00">
        <walk edges="gneE2 gneE4 gneE5"/>
    </personFlow>
</routes>
