<?xml version="1.0" encoding="UTF-8"?>

<!-- generated on Tue Feb 18 19:59:36 2020 by Eclipse SUMO netconvert Version v1_5_0+0151-fa16b8df33
<configuration xmlns:xsi="http://www.w3.org/2001/XMLSchema-instance" xsi:noNamespaceSchemaLocation="http://sumo.dlr.de/xsd/netconvertConfiguration.xsd">

    <input>
        <node-files value="/tmp/tmpdmdg3N"/>
        <edge-files value="/tmp/tmpNuBwn5"/>
        <connection-files value="/tmp/tmpuhgJYA"/>
    </input>

    <output>
        <output-file value="net.net.xml"/>
    </output>

    <report>
        <verbose value="true"/>
        <aggregate-warnings value="5"/>
    </report>

</configuration>
-->

<net version="1.6" junctionCornerDetail="5" limitTurnSpeed="5.50" xmlns:xsi="http://www.w3.org/2001/XMLSchema-instance" xsi:noNamespaceSchemaLocation="http://sumo.dlr.de/xsd/net_file.xsd">

    <location netOffset="0.00,0.00" convBoundary="0.00,0.00,1000.00,1000.00" origBoundary="0.00,0.00,1000.00,1000.00" projParameter="!"/>

    <edge id=":0/1_0" function="internal">
        <lane id=":0/1_0_0" index="0" speed="3.65" length="4.67" shape="0.00,501.60 -1.20,500.80 -1.60,500.00 -1.20,499.20 0.00,498.40"/>
    </edge>
    <edge id=":1/0_0" function="internal">
        <lane id=":1/0_0_0" index="0" speed="3.65" length="4.67" shape="498.40,0.00 499.20,-1.20 500.00,-1.60 500.80,-1.20 501.60,0.00"/>
    </edge>
    <edge id=":1/1_0" function="internal">
        <lane id=":1/1_0_0" index="0" speed="6.51" length="9.03" shape="492.00,513.60 491.65,511.15 490.60,509.40 488.85,508.35 486.40,508.00"/>
    </edge>
    <edge id=":1/1_1" function="internal">
        <lane id=":1/1_1_0" index="0" speed="13.89" length="27.20" shape="492.00,513.60 492.00,486.40"/>
        <lane id=":1/1_1_1" index="1" speed="13.89" length="27.20" shape="495.20,513.60 495.20,486.40"/>
    </edge>
    <edge id=":1/1_3" function="internal">
        <lane id=":1/1_3_0" index="0" speed="11.39" length="18.14" shape="498.40,513.60 499.35,504.15 502.20,497.40 503.20,496.55"/>
    </edge>
    <edge id=":1/1_16" function="internal">
        <lane id=":1/1_16_0" index="0" speed="11.39" length="11.71" shape="503.20,496.55 506.95,493.35 513.60,492.00"/>
    </edge>
    <edge id=":1/1_4" function="internal">
        <lane id=":1/1_4_0" index="0" speed="6.51" length="9.03" shape="513.60,508.00 511.15,508.35 509.40,509.40 508.35,511.15 508.00,513.60"/>
    </edge>
    <edge id=":1/1_5" function="internal">
        <lane id=":1/1_5_0" index="0" speed="13.89" length="27.20" shape="513.60,508.00 486.40,508.00"/>
        <lane id=":1/1_5_1" index="1" speed="13.89" length="27.20" shape="513.60,504.80 486.40,504.80"/>
    </edge>
    <edge id=":1/1_7" function="internal">
        <lane id=":1/1_7_0" index="0" speed="11.39" length="18.14" shape="513.60,501.60 504.15,500.65 497.40,497.80 496.55,496.80"/>
    </edge>
    <edge id=":1/1_17" function="internal">
        <lane id=":1/1_17_0" index="0" speed="11.39" length="11.71" shape="496.55,496.80 493.35,493.05 492.00,486.40"/>
    </edge>
    <edge id=":1/1_8" function="internal">
        <lane id=":1/1_8_0" index="0" speed="6.51" length="9.03" shape="508.00,486.40 508.35,488.85 509.40,490.60 511.15,491.65 513.60,492.00"/>
    </edge>
    <edge id=":1/1_9" function="internal">
        <lane id=":1/1_9_0" index="0" speed="13.89" length="27.20" shape="508.00,486.40 508.00,513.60"/>
        <lane id=":1/1_9_1" index="1" speed="13.89" length="27.20" shape="504.80,486.40 504.80,513.60"/>
    </edge>
    <edge id=":1/1_11" function="internal">
        <lane id=":1/1_11_0" index="0" speed="11.39" length="18.14" shape="501.60,486.40 500.65,495.85 497.80,502.60 496.80,503.45"/>
    </edge>
    <edge id=":1/1_18" function="internal">
        <lane id=":1/1_18_0" index="0" speed="11.39" length="11.71" shape="496.80,503.45 493.05,506.65 486.40,508.00"/>
    </edge>
    <edge id=":1/1_12" function="internal">
        <lane id=":1/1_12_0" index="0" speed="6.51" length="9.03" shape="486.40,492.00 488.85,491.65 490.60,490.60 491.65,488.85 492.00,486.40"/>
    </edge>
    <edge id=":1/1_13" function="internal">
        <lane id=":1/1_13_0" index="0" speed="13.89" length="27.20" shape="486.40,492.00 513.60,492.00"/>
        <lane id=":1/1_13_1" index="1" speed="13.89" length="27.20" shape="486.40,495.20 513.60,495.20"/>
    </edge>
    <edge id=":1/1_15" function="internal">
        <lane id=":1/1_15_0" index="0" speed="11.39" length="18.14" shape="486.40,498.40 495.85,499.35 502.60,502.20 503.45,503.20"/>
    </edge>
    <edge id=":1/1_19" function="internal">
        <lane id=":1/1_19_0" index="0" speed="11.39" length="11.71" shape="503.45,503.20 506.65,506.95 508.00,513.60"/>
    </edge>
    <edge id=":1/2_0" function="internal">
        <lane id=":1/2_0_0" index="0" speed="3.65" length="4.67" shape="501.60,1000.00 500.80,1001.20 500.00,1001.60 499.20,1001.20 498.40,1000.00"/>
    </edge>
    <edge id=":2/1_0" function="internal">
        <lane id=":2/1_0_0" index="0" speed="3.65" length="4.67" shape="1000.00,498.40 1001.20,499.20 1001.60,500.00 1001.20,500.80 1000.00,501.60"/>
    </edge>

    <edge id="0/1_to_1/1" from="0/1" to="1/1" priority="-1">
        <lane id="0/1_to_1/1_0" index="0" speed="13.89" length="486.40" shape="0.00,492.00 486.40,492.00"/>
        <lane id="0/1_to_1/1_1" index="1" speed="13.89" length="486.40" shape="0.00,495.20 486.40,495.20"/>
        <lane id="0/1_to_1/1_2" index="2" speed="13.89" length="486.40" shape="0.00,498.40 486.40,498.40"/>
    </edge>
    <edge id="1/0_to_1/1" from="1/0" to="1/1" priority="-1">
        <lane id="1/0_to_1/1_0" index="0" speed="13.89" length="486.40" shape="508.00,0.00 508.00,486.40"/>
        <lane id="1/0_to_1/1_1" index="1" speed="13.89" length="486.40" shape="504.80,0.00 504.80,486.40"/>
        <lane id="1/0_to_1/1_2" index="2" speed="13.89" length="486.40" shape="501.60,0.00 501.60,486.40"/>
    </edge>
    <edge id="1/1_to_0/1" from="1/1" to="0/1" priority="-1">
        <lane id="1/1_to_0/1_0" index="0" speed="13.89" length="486.40" shape="486.40,508.00 0.00,508.00"/>
        <lane id="1/1_to_0/1_1" index="1" speed="13.89" length="486.40" shape="486.40,504.80 0.00,504.80"/>
        <lane id="1/1_to_0/1_2" index="2" speed="13.89" length="486.40" shape="486.40,501.60 0.00,501.60"/>
    </edge>
    <edge id="1/1_to_1/0" from="1/1" to="1/0" priority="-1">
        <lane id="1/1_to_1/0_0" index="0" speed="13.89" length="486.40" shape="492.00,486.40 492.00,0.00"/>
        <lane id="1/1_to_1/0_1" index="1" speed="13.89" length="486.40" shape="495.20,486.40 495.20,0.00"/>
        <lane id="1/1_to_1/0_2" index="2" speed="13.89" length="486.40" shape="498.40,486.40 498.40,0.00"/>
    </edge>
    <edge id="1/1_to_1/2" from="1/1" to="1/2" priority="-1">
        <lane id="1/1_to_1/2_0" index="0" speed="13.89" length="486.40" shape="508.00,513.60 508.00,1000.00"/>
        <lane id="1/1_to_1/2_1" index="1" speed="13.89" length="486.40" shape="504.80,513.60 504.80,1000.00"/>
        <lane id="1/1_to_1/2_2" index="2" speed="13.89" length="486.40" shape="501.60,513.60 501.60,1000.00"/>
    </edge>
    <edge id="1/1_to_2/1" from="1/1" to="2/1" priority="-1">
        <lane id="1/1_to_2/1_0" index="0" speed="13.89" length="486.40" shape="513.60,492.00 1000.00,492.00"/>
        <lane id="1/1_to_2/1_1" index="1" speed="13.89" length="486.40" shape="513.60,495.20 1000.00,495.20"/>
        <lane id="1/1_to_2/1_2" index="2" speed="13.89" length="486.40" shape="513.60,498.40 1000.00,498.40"/>
    </edge>
    <edge id="1/2_to_1/1" from="1/2" to="1/1" priority="-1">
        <lane id="1/2_to_1/1_0" index="0" speed="13.89" length="486.40" shape="492.00,1000.00 492.00,513.60"/>
        <lane id="1/2_to_1/1_1" index="1" speed="13.89" length="486.40" shape="495.20,1000.00 495.20,513.60"/>
        <lane id="1/2_to_1/1_2" index="2" speed="13.89" length="486.40" shape="498.40,1000.00 498.40,513.60"/>
    </edge>
    <edge id="2/1_to_1/1" from="2/1" to="1/1" priority="-1">
        <lane id="2/1_to_1/1_0" index="0" speed="13.89" length="486.40" shape="1000.00,508.00 513.60,508.00"/>
        <lane id="2/1_to_1/1_1" index="1" speed="13.89" length="486.40" shape="1000.00,504.80 513.60,504.80"/>
        <lane id="2/1_to_1/1_2" index="2" speed="13.89" length="486.40" shape="1000.00,501.60 513.60,501.60"/>
    </edge>

    <tlLogic id="1/1" type="static" programID="0" offset="0">
        <phase duration="33" state="GGGgrrrrGGGgrrrr"/>
        <phase duration="3"  state="yyygrrrryyygrrrr"/>
        <phase duration="6"  state="rrrGrrrrrrrGrrrr"/>
        <phase duration="3"  state="rrryrrrrrrryrrrr"/>
        <phase duration="33" state="rrrrGGGgrrrrGGGg"/>
        <phase duration="3"  state="rrrryyygrrrryyyg"/>
        <phase duration="6"  state="rrrrrrrGrrrrrrrG"/>
        <phase duration="3"  state="rrrrrrryrrrrrrry"/>
    </tlLogic>

    <junction id="0/1" type="priority" x="0.00" y="500.00" incLanes="1/1_to_0/1_0 1/1_to_0/1_1 1/1_to_0/1_2" intLanes=":0/1_0_0" shape="0.00,500.00 0.00,509.60 0.00,500.00">
        <request index="0" response="0" foes="0" cont="0"/>
    </junction>
    <junction id="1/0" type="priority" x="500.00" y="0.00" incLanes="1/1_to_1/0_0 1/1_to_1/0_1 1/1_to_1/0_2" intLanes=":1/0_0_0" shape="500.00,0.00 490.40,0.00 500.00,0.00">
        <request index="0" response="0" foes="0" cont="0"/>
    </junction>
    <junction id="1/1" type="traffic_light" x="500.00" y="500.00" incLanes="1/2_to_1/1_0 1/2_to_1/1_1 1/2_to_1/1_2 2/1_to_1/1_0 2/1_to_1/1_1 2/1_to_1/1_2 1/0_to_1/1_0 1/0_to_1/1_1 1/0_to_1/1_2 0/1_to_1/1_0 0/1_to_1/1_1 0/1_to_1/1_2" intLanes=":1/1_0_0 :1/1_1_0 :1/1_1_1 :1/1_16_0 :1/1_4_0 :1/1_5_0 :1/1_5_1 :1/1_17_0 :1/1_8_0 :1/1_9_0 :1/1_9_1 :1/1_18_0 :1/1_12_0 :1/1_13_0 :1/1_13_1 :1/1_19_0" shape="490.40,513.60 509.60,513.60 510.04,511.38 510.60,510.60 511.38,510.04 512.38,509.71 513.60,509.60 513.60,490.40 511.38,489.96 510.60,489.40 510.04,488.62 509.71,487.62 509.60,486.40 490.40,486.40 489.96,488.62 489.40,489.40 488.62,489.96 487.62,490.29 486.40,490.40 486.40,509.60 488.62,510.04 489.40,510.60 489.96,511.38 490.29,512.38">
        <request index="0"  response="0000000000000000" foes="0000100001100000" cont="0"/>
        <request index="1"  response="1000000010000000" foes="1111100011100000" cont="0"/>
        <request index="2"  response="1000000010000000" foes="1111100011100000" cont="0"/>
        <request index="3"  response="1000011110000000" foes="1110011111100000" cont="1"/>
        <request index="4"  response="0000011000000000" foes="1000011000000000" cont="0"/>
        <request index="5"  response="0000111000001111" foes="1000111000001111" cont="0"/>
        <request index="6"  response="0000111000001111" foes="1000111000001111" cont="0"/>
        <request index="7"  response="0111111000001110" foes="0111111000001110" cont="1"/>
        <request index="8"  response="0000000000000000" foes="0110000000001000" cont="0"/>
        <request index="9"  response="1000000010000000" foes="1110000011111000" cont="0"/>
        <request index="10" response="1000000010000000" foes="1110000011111000" cont="0"/>
        <request index="11" response="1000000010000111" foes="1110000011100111" cont="1"/>
        <request index="12" response="0000000000000110" foes="0000000010000110" cont="0"/>
        <request index="13" response="0000111100001110" foes="0000111110001110" cont="0"/>
        <request index="14" response="0000111100001110" foes="0000111110001110" cont="0"/>
        <request index="15" response="0000111001111110" foes="0000111001111110" cont="1"/>
    </junction>
    <junction id="1/2" type="priority" x="500.00" y="1000.00" incLanes="1/1_to_1/2_0 1/1_to_1/2_1 1/1_to_1/2_2" intLanes=":1/2_0_0" shape="500.00,1000.00 509.60,1000.00 500.00,1000.00">
        <request index="0" response="0" foes="0" cont="0"/>
    </junction>
    <junction id="2/1" type="priority" x="1000.00" y="500.00" incLanes="1/1_to_2/1_0 1/1_to_2/1_1 1/1_to_2/1_2" intLanes=":2/1_0_0" shape="1000.00,500.00 1000.00,490.40 1000.00,500.00">
        <request index="0" response="0" foes="0" cont="0"/>
    </junction>

    <junction id=":1/1_16_0" type="internal" x="503.20" y="496.55" incLanes=":1/1_3_0 1/0_to_1/1_0 1/0_to_1/1_1" intLanes=":1/1_5_0 :1/1_5_1 :1/1_7_0 :1/1_8_0 :1/1_9_0 :1/1_9_1 :1/1_13_0 :1/1_13_1 :1/1_15_0"/>
    <junction id=":1/1_17_0" type="internal" x="496.55" y="496.80" incLanes=":1/1_7_0 0/1_to_1/1_0 0/1_to_1/1_1" intLanes=":1/1_1_0 :1/1_1_1 :1/1_3_0 :1/1_9_0 :1/1_9_1 :1/1_11_0 :1/1_12_0 :1/1_13_0 :1/1_13_1"/>
    <junction id=":1/1_18_0" type="internal" x="496.80" y="503.45" incLanes=":1/1_11_0 1/2_to_1/1_0 1/2_to_1/1_1" intLanes=":1/1_0_0 :1/1_1_0 :1/1_1_1 :1/1_5_0 :1/1_5_1 :1/1_7_0 :1/1_13_0 :1/1_13_1 :1/1_15_0"/>
    <junction id=":1/1_19_0" type="internal" x="503.45" y="503.20" incLanes=":1/1_15_0 2/1_to_1/1_0 2/1_to_1/1_1" intLanes=":1/1_1_0 :1/1_1_1 :1/1_3_0 :1/1_4_0 :1/1_5_0 :1/1_5_1 :1/1_9_0 :1/1_9_1 :1/1_11_0"/>

    <connection from="0/1_to_1/1" to="1/1_to_1/0" fromLane="0" toLane="0" via=":1/1_12_0" tl="1/1" linkIndex="12" dir="r" state="o"/>
    <connection from="0/1_to_1/1" to="1/1_to_2/1" fromLane="0" toLane="0" via=":1/1_13_0" tl="1/1" linkIndex="13" dir="s" state="o"/>
    <connection from="0/1_to_1/1" to="1/1_to_2/1" fromLane="1" toLane="1" via=":1/1_13_1" tl="1/1" linkIndex="14" dir="s" state="o"/>
    <connection from="0/1_to_1/1" to="1/1_to_1/2" fromLane="2" toLane="0" via=":1/1_15_0" tl="1/1" linkIndex="15" dir="l" state="o"/>
    <connection from="1/0_to_1/1" to="1/1_to_2/1" fromLane="0" toLane="0" via=":1/1_8_0" tl="1/1" linkIndex="8" dir="r" state="O"/>
    <connection from="1/0_to_1/1" to="1/1_to_1/2" fromLane="0" toLane="0" via=":1/1_9_0" tl="1/1" linkIndex="9" dir="s" state="O"/>
    <connection from="1/0_to_1/1" to="1/1_to_1/2" fromLane="1" toLane="1" via=":1/1_9_1" tl="1/1" linkIndex="10" dir="s" state="O"/>
    <connection from="1/0_to_1/1" to="1/1_to_0/1" fromLane="2" toLane="0" via=":1/1_11_0" tl="1/1" linkIndex="11" dir="l" state="o"/>
    <connection from="1/1_to_0/1" to="0/1_to_1/1" fromLane="2" toLane="2" via=":0/1_0_0" dir="t" state="M"/>
    <connection from="1/1_to_1/0" to="1/0_to_1/1" fromLane="2" toLane="2" via=":1/0_0_0" dir="t" state="M"/>
    <connection from="1/1_to_1/2" to="1/2_to_1/1" fromLane="2" toLane="2" via=":1/2_0_0" dir="t" state="M"/>
    <connection from="1/1_to_2/1" to="2/1_to_1/1" fromLane="2" toLane="2" via=":2/1_0_0" dir="t" state="M"/>
    <connection from="1/2_to_1/1" to="1/1_to_0/1" fromLane="0" toLane="0" via=":1/1_0_0" tl="1/1" linkIndex="0" dir="r" state="O"/>
    <connection from="1/2_to_1/1" to="1/1_to_1/0" fromLane="0" toLane="0" via=":1/1_1_0" tl="1/1" linkIndex="1" dir="s" state="O"/>
    <connection from="1/2_to_1/1" to="1/1_to_1/0" fromLane="1" toLane="1" via=":1/1_1_1" tl="1/1" linkIndex="2" dir="s" state="O"/>
    <connection from="1/2_to_1/1" to="1/1_to_2/1" fromLane="2" toLane="0" via=":1/1_3_0" tl="1/1" linkIndex="3" dir="l" state="o"/>
    <connection from="2/1_to_1/1" to="1/1_to_1/2" fromLane="0" toLane="0" via=":1/1_4_0" tl="1/1" linkIndex="4" dir="r" state="o"/>
    <connection from="2/1_to_1/1" to="1/1_to_0/1" fromLane="0" toLane="0" via=":1/1_5_0" tl="1/1" linkIndex="5" dir="s" state="o"/>
    <connection from="2/1_to_1/1" to="1/1_to_0/1" fromLane="1" toLane="1" via=":1/1_5_1" tl="1/1" linkIndex="6" dir="s" state="o"/>
    <connection from="2/1_to_1/1" to="1/1_to_1/0" fromLane="2" toLane="0" via=":1/1_7_0" tl="1/1" linkIndex="7" dir="l" state="o"/>

    <connection from=":0/1_0" to="0/1_to_1/1" fromLane="0" toLane="2" dir="t" state="M"/>
    <connection from=":1/0_0" to="1/0_to_1/1" fromLane="0" toLane="2" dir="t" state="M"/>
    <connection from=":1/1_0" to="1/1_to_0/1" fromLane="0" toLane="0" dir="r" state="M"/>
    <connection from=":1/1_1" to="1/1_to_1/0" fromLane="0" toLane="0" dir="s" state="M"/>
    <connection from=":1/1_1" to="1/1_to_1/0" fromLane="1" toLane="1" dir="s" state="M"/>
    <connection from=":1/1_3" to="1/1_to_2/1" fromLane="0" toLane="0" via=":1/1_16_0" dir="l" state="m"/>
    <connection from=":1/1_16" to="1/1_to_2/1" fromLane="0" toLane="0" dir="l" state="M"/>
    <connection from=":1/1_4" to="1/1_to_1/2" fromLane="0" toLane="0" dir="r" state="M"/>
    <connection from=":1/1_5" to="1/1_to_0/1" fromLane="0" toLane="0" dir="s" state="M"/>
    <connection from=":1/1_5" to="1/1_to_0/1" fromLane="1" toLane="1" dir="s" state="M"/>
    <connection from=":1/1_7" to="1/1_to_1/0" fromLane="0" toLane="0" via=":1/1_17_0" dir="l" state="m"/>
    <connection from=":1/1_17" to="1/1_to_1/0" fromLane="0" toLane="0" dir="l" state="M"/>
    <connection from=":1/1_8" to="1/1_to_2/1" fromLane="0" toLane="0" dir="r" state="M"/>
    <connection from=":1/1_9" to="1/1_to_1/2" fromLane="0" toLane="0" dir="s" state="M"/>
    <connection from=":1/1_9" to="1/1_to_1/2" fromLane="1" toLane="1" dir="s" state="M"/>
    <connection from=":1/1_11" to="1/1_to_0/1" fromLane="0" toLane="0" via=":1/1_18_0" dir="l" state="m"/>
    <connection from=":1/1_18" to="1/1_to_0/1" fromLane="0" toLane="0" dir="l" state="M"/>
    <connection from=":1/1_12" to="1/1_to_1/0" fromLane="0" toLane="0" dir="r" state="M"/>
    <connection from=":1/1_13" to="1/1_to_2/1" fromLane="0" toLane="0" dir="s" state="M"/>
    <connection from=":1/1_13" to="1/1_to_2/1" fromLane="1" toLane="1" dir="s" state="M"/>
    <connection from=":1/1_15" to="1/1_to_1/2" fromLane="0" toLane="0" via=":1/1_19_0" dir="l" state="m"/>
    <connection from=":1/1_19" to="1/1_to_1/2" fromLane="0" toLane="0" dir="l" state="M"/>
    <connection from=":1/2_0" to="1/2_to_1/1" fromLane="0" toLane="2" dir="t" state="M"/>
    <connection from=":2/1_0" to="2/1_to_1/1" fromLane="0" toLane="2" dir="t" state="M"/>

</net>
