<routes xmlns:xsi="http://www.w3.org/2001/XMLSchema-instance" xsi:noNamespaceSchemaLocation="http://sumo.dlr.de/xsd/routes_file.xsd">
    <vType id="DEFAULT_VEHTYPE" sigma="0"/>
    <route id="1" edges="1fi 1si 1o 1fi 1si 1o 1fi 1si 1o" period="200">
        <stop lane="1fi_0" endPos="6" until="60"/>
        <stop lane="1si_0" endPos="4" until="120"/>
    </route>
    <vehicle depart="1" id="veh0" route="1"/>
</routes>
