<?xml version="1.0" encoding="UTF-8"?>

<!-- generated on Mon Nov  2 10:39:57 2020 by Eclipse SUMO sumo Version v1_7_0+0740-28092f291c
This data file and the accompanying materials
are made available under the terms of the Eclipse Public License v2.0
which accompanies this distribution, and is available at
http://www.eclipse.org/legal/epl-v20.html
SPDX-License-Identifier: EPL-2.0
<configuration xmlns:xsi="http://www.w3.org/2001/XMLSchema-instance" xsi:noNamespaceSchemaLocation="http://sumo.dlr.de/xsd/sumoConfiguration.xsd">

    <input>
        <net-file value="net.net.xml"/>
        <route-files value="input_routes.rou.xml"/>
        <additional-files value="input_additional.add.xml"/>
    </input>

    <output>
        <write-license value="true"/>
        <lanechange-output value="lanechanges.xml"/>
    </output>

    <processing>
        <default.speeddev value="0"/>
    </processing>

    <report>
        <verbose value="true"/>
        <xml-validation value="never"/>
        <xml-validation.routes value="never"/>
        <duration-log.statistics value="true"/>
        <no-step-log value="true"/>
    </report>

</configuration>
-->

<lanechanges>
    <change id="WN.0" type="t" time="4.00" from="RWS_1" to="RWS_2" dir="1" speed="7.02" pos="5.45" reason="cooperative" leaderGap="None" leaderSecureGap="None" leaderSpeed="None" followerGap="None" followerSecureGap="None" followerSpeed="None" origLeaderGap="None" origLeaderSecureGap="None" origLeaderSpeed="None"/>
    <change id="WN.0" type="t" time="5.00" from="RWS_2" to="RWS_3" dir="1" speed="8.77" pos="14.22" reason="cooperative" leaderGap="None" leaderSecureGap="None" leaderSpeed="None" followerGap="None" followerSecureGap="None" followerSpeed="None" origLeaderGap="None" origLeaderSecureGap="None" origLeaderSpeed="None"/>
    <change id="WN.0" type="t" time="6.00" from="RWS_3" to="RWS_2" dir="-1" speed="11.11" pos="25.33" reason="strategic|urgent" leaderGap="None" leaderSecureGap="None" leaderSpeed="None" followerGap="None" followerSecureGap="None" followerSpeed="None" origLeaderGap="None" origLeaderSecureGap="None" origLeaderSpeed="None"/>
    <change id="WN.0" type="t" time="7.00" from="RWS_2" to="RWS_3" dir="1" speed="12.07" pos="37.40" reason="cooperative" leaderGap="None" leaderSecureGap="None" leaderSpeed="None" followerGap="None" followerSecureGap="None" followerSpeed="None" origLeaderGap="None" origLeaderSecureGap="None" origLeaderSpeed="None"/>
    <change id="WN.0" type="t" time="8.00" from="RWS_3" to="RWS_2" dir="-1" speed="12.73" pos="50.13" reason="strategic|urgent" leaderGap="None" leaderSecureGap="None" leaderSpeed="None" followerGap="None" followerSecureGap="None" followerSpeed="None" origLeaderGap="None" origLeaderSecureGap="None" origLeaderSpeed="None"/>
    <change id="WN.0" type="t" time="9.00" from="RWS_2" to="RWS_3" dir="1" speed="13.38" pos="63.51" reason="cooperative" leaderGap="None" leaderSecureGap="None" leaderSpeed="None" followerGap="None" followerSecureGap="None" followerSpeed="None" origLeaderGap="None" origLeaderSecureGap="None" origLeaderSpeed="None"/>
    <change id="WN.0" type="t" time="10.00" from="RWS_3" to="RWS_2" dir="-1" speed="6.26" pos="69.77" reason="strategic|urgent" leaderGap="None" leaderSecureGap="None" leaderSpeed="None" followerGap="None" followerSecureGap="None" followerSpeed="None" origLeaderGap="None" origLeaderSecureGap="None" origLeaderSpeed="None"/>
    <change id="WN.0" type="t" time="11.00" from=":RS_5_2" to=":RS_5_1" dir="-1" speed="7.84" pos="6.08" reason="strategic|urgent" leaderGap="None" leaderSecureGap="None" leaderSpeed="None" followerGap="None" followerSecureGap="None" followerSpeed="None" origLeaderGap="None" origLeaderSecureGap="None" origLeaderSpeed="None"/>
    <change id="WN.0" type="t" time="14.00" from="RSE_1" to="RSE_2" dir="1" speed="12.84" pos="21.00" reason="cooperative" leaderGap="None" leaderSecureGap="None" leaderSpeed="None" followerGap="None" followerSecureGap="None" followerSpeed="None" origLeaderGap="None" origLeaderSecureGap="None" origLeaderSpeed="None"/>
    <change id="WN.0" type="t" time="17.00" from="RSE_2" to="RSE_3" dir="1" speed="12.97" pos="60.52" reason="cooperative" leaderGap="None" leaderSecureGap="None" leaderSpeed="None" followerGap="None" followerSecureGap="None" followerSpeed="None" origLeaderGap="None" origLeaderSecureGap="None" origLeaderSpeed="None"/>
    <change id="WN.0" type="t" time="18.00" from="RSE_3" to="RSE_2" dir="-1" speed="7.76" pos="68.27" reason="strategic|urgent" leaderGap="None" leaderSecureGap="None" leaderSpeed="None" followerGap="None" followerSecureGap="None" followerSpeed="None" origLeaderGap="None" origLeaderSecureGap="None" origLeaderSpeed="None"/>
    <change id="WN.0" type="t" time="19.00" from=":RE_5_2" to=":RE_5_1" dir="-1" speed="9.81" pos="6.56" reason="strategic|urgent" leaderGap="None" leaderSecureGap="None" leaderSpeed="None" followerGap="None" followerSecureGap="None" followerSpeed="None" origLeaderGap="None" origLeaderSecureGap="None" origLeaderSpeed="None"/>
    <change id="WN.0" type="t" time="20.00" from=":RE_5_1" to=":RE_5_0" dir="-1" speed="11.93" pos="18.49" reason="strategic|urgent" leaderGap="None" leaderSecureGap="None" leaderSpeed="None" followerGap="None" followerSecureGap="None" followerSpeed="None" origLeaderGap="None" origLeaderSecureGap="None" origLeaderSpeed="None"/>
</lanechanges>
