<?xml version="1.0" encoding="UTF-8"?>

<!-- generated on 2022-01-21 13:01:41 by Eclipse SUMO netedit Version v1_11_0+1361-2e2855ec72d
<configuration xmlns:xsi="http://www.w3.org/2001/XMLSchema-instance" xsi:noNamespaceSchemaLocation="http://sumo.dlr.de/xsd/netconvertConfiguration.xsd">

    <input>
        <sumo-net-file value="C:\Users\palva\.texttest\tmp\netedit.gui.21Jan120011.13544\netedit.gui\additionalElements\e2multilanedetector\inspect\name\input_net.net.xml"/>
    </input>

    <output>
        <output-file value="C:\Users\palva\.texttest\tmp\netedit.gui.21Jan120011.13544\netedit.gui\additionalElements\e2multilanedetector\inspect\name\net.net.xml"/>
    </output>

    <processing>
        <geometry.min-radius.fix.railways value="false"/>
        <geometry.max-grade.fix value="false"/>
        <offset.disable-normalization value="true"/>
        <lefthand value="false"/>
    </processing>

    <junctions>
        <no-turnarounds value="true"/>
        <junctions.corner-detail value="5"/>
        <junctions.limit-turn-speed value="5.5"/>
        <rectangular-lane-cut value="false"/>
    </junctions>

    <pedestrian>
        <walkingareas value="false"/>
    </pedestrian>

    <netedit>
        <additional-files value="C:\Users\palva\.texttest\tmp\netedit.gui.21Jan120011.13544\netedit.gui\additionalElements\e2multilanedetector\inspect\name\additionals.xml"/>
        <additionals-output value="C:\Users\palva\.texttest\tmp\netedit.gui.21Jan120011.13544\netedit.gui\additionalElements\e2multilanedetector\inspect\name\additionals.xml"/>
        <route-files value="C:\Users\palva\.texttest\tmp\netedit.gui.21Jan120011.13544\netedit.gui\additionalElements\e2multilanedetector\inspect\name\routes.xml"/>
        <demandelements-output value="C:\Users\palva\.texttest\tmp\netedit.gui.21Jan120011.13544\netedit.gui\additionalElements\e2multilanedetector\inspect\name\routes.xml"/>
        <data-files value="C:\Users\palva\.texttest\tmp\netedit.gui.21Jan120011.13544\netedit.gui\additionalElements\e2multilanedetector\inspect\name\datas.xml"/>
        <dataelements-output value="C:\Users\palva\.texttest\tmp\netedit.gui.21Jan120011.13544\netedit.gui\additionalElements\e2multilanedetector\inspect\name\datas.xml"/>
    </netedit>

    <visualisation>
        <gui-settings-file value="C:\Users\palva\.texttest\tmp\netedit.gui.21Jan120011.13544\netedit.gui\additionalElements\e2multilanedetector\inspect\name\gui-settings.xml"/>
        <window-size value="936,697"/>
        <window-pos value="50,50"/>
        <gui-testing value="true"/>
        <gui-testing-debug value="true"/>
        <gui-testing.setting-output value="C:\Users\palva\.texttest\tmp\netedit.gui.21Jan120011.13544\netedit.gui\additionalElements\e2multilanedetector\inspect\name\guisettingsoutput.xml"/>
    </visualisation>

    <report>
        <no-warnings value="true"/>
        <aggregate-warnings value="5"/>
        <error-log value="C:\Users\palva\.texttest\tmp\netedit.gui.21Jan120011.13544\netedit.gui\additionalElements\e2multilanedetector\inspect\name\log.txt"/>
    </report>

</configuration>
-->

<additional xmlns:xsi="http://www.w3.org/2001/XMLSchema-instance" xsi:noNamespaceSchemaLocation="http://sumo.dlr.de/xsd/additional_file.xsd">
    <e2Detector id="e2_0" name="customName" lanes="gneE2_0 gneE3_0" pos="18.00" endPos="7.00" freq="300.00" file="e2_0.xml"/>
</additional>
