<?xml version="1.0" encoding="UTF-8"?>

<!-- generated on 2024-08-26 14:28:52 by Eclipse SUMO sumo Version v1_20_0+1714-5abd9d647c6
<sumoConfiguration xmlns:xsi="http://www.w3.org/2001/XMLSchema-instance" xsi:noNamespaceSchemaLocation="http://sumo.dlr.de/xsd/sumoConfiguration.xsd">

    <input>
        <net-file value="net.net.xml"/>
        <route-files value="input_routes.rou.xml"/>
    </input>

    <output>
        <tripinfo-output value="tripinfo.xml"/>
        <save-state.times value="10"/>
        <save-state.files value="state.xml"/>
    </output>

    <processing>
        <default.speeddev value="0"/>
    </processing>

    <report>
        <verbose value="true"/>
        <duration-log.disable value="true"/>
        <no-step-log value="true"/>
    </report>

    <mesoscopic>
        <mesosim value="true"/>
    </mesoscopic>

</sumoConfiguration>
-->

<snapshot xmlns:xsi="http://www.w3.org/2001/XMLSchema-instance" xsi:noNamespaceSchemaLocation="http://sumo.dlr.de/xsd/state_file.xsd" version="v1_20_0+1714-5abd9d647c6" time="10.00" type="meso">
    <route id="!flowFromTo" state="0" edges="beg end"/>
    <route id="!flowFromTo.0!var#1" state="0" edges="beg middle end"/>
    <route id="r0" state="1" edges="beg middle end"/>
    <delay number="2" begin="4" end="0" depart="7.00" time="0.00"/>
    <vType id="t0" sigma="0"/>
    <vehicle id="flowFromTo.0" type="t0" depart="0.00" route="!flowFromTo.0!var#1" distance="0 1" speedFactor="1.0000" reroute="1" state="262242 7000 0 0 0 0 15630 7000 9223372036854774807">
        <device id="tripinfo_flowFromTo.0" state="0.811124 -0 0 0 0 0 -1 -1000 NONE -1 0 -1"/>
        <device id="routing_flowFromTo.0" state="0"/>
    </vehicle>
    <vehicle id="flowNumber.0" type="t0" depart="0.00" route="r0" distance="7 0" speedFactor="1.0000" state="2146 0 1 0 0 0 14199 7000 9223372036854774807">
        <device id="tripinfo_flowNumber.0" state="1 7 0 0 0 0 -1 -1000 NONE -1 0 -1"/>
    </vehicle>
    <vehicle id="flowNumber.1" type="t0" depart="8.00" route="r0" distance="0 0" speedFactor="1.0000" state="2146 9223372036854774807 0 -1000 -1 0 -9223372036854775808 -9223372036854775808 9223372036854774807"/>
    <vehicle id="flowPeriod.0" type="t0" depart="5.00" route="r0" distance="0 0" speedFactor="1.0000" state="2146 9223372036854774807 0 -1000 -1 0 -9223372036854775808 -9223372036854775808 9223372036854774807"/>
    <flowState id="flowNumber" type="t0" begin="0.00" period="8.00" next="16.00" end="40.00" route="r0" done="2" index="2"/>
    <flowState id="flowFromTo" type="t0" begin="0.00" period="10.00" next="10.00" end="20.00" route="!flowFromTo" done="1" index="1" reroute="1"/>
    <flowState id="flowPeriod" type="t0" begin="5.00" period="5.00" next="5.00" end="55.00" route="r0" done="1" index="1"/>
    <flowState id="flowProb" type="t0" begin="20.00" probability="0.10" end="100.00" route="r0" done="0" index="0"/>
    <segment id="beg:0">
        <vehicles time="15630" value="flowFromTo.0"/>
    </segment>
    <segment id="middle:0">
        <vehicles time="-1" value="flowNumber.0"/>
    </segment>
</snapshot>
