<?xml version="1.0"?>

<!-- generated on 07/22/09 07:37:02 by SUMO sumo Version dev-SVN-r7459
<configuration>

    <input
        net-file="net.net.xml"
        route-files="input_routes.rou.xml"
    />

    <output
        vehroute-output="vehroutes.xml"
    />

    <report
        no-duration-log="true"
        no-step-log="true"
    />

</configuration>
-->

<routes>
   <vehicle id="0" depart="0" arrival="122">
      <route edges="beg middle end rend"/>
   </vehicle>

</routes>
