<?xml version="1.0" encoding="UTF-8"?>

<!-- generated on 25.03.2019 16:18:30 by Eclipse SUMO netedit Version v1_1_0+1328-1ffdf7a53c
<configuration xmlns:xsi="http://www.w3.org/2001/XMLSchema-instance" xsi:noNamespaceSchemaLocation="https://sumo.dlr.de/xsd/netconvertConfiguration.xsd">

    <input>
        <sumo-net-file value="C:/Users/Palcraft/.texttest/tmp/netedit.gui.25Mar161816.20368/netedit.gui/additionalElements/parkingarea/delete\input_net.net.xml"/>
    </input>

    <output>
        <output-file value="C:/Users/Palcraft/.texttest/tmp/netedit.gui.25Mar161816.20368/netedit.gui/additionalElements/parkingarea/delete\net.net.xml"/>
    </output>

    <processing>
        <geometry.max-grade.fix value="false"/>
        <offset.disable-normalization value="true"/>
        <lefthand value="false"/>
    </processing>

    <junctions>
        <no-turnarounds value="true"/>
        <junctions.corner-detail value="5"/>
        <junctions.limit-turn-speed value="5.5"/>
        <rectangular-lane-cut value="false"/>
    </junctions>

    <pedestrian>
        <walkingareas value="false"/>
    </pedestrian>

    <netedit>
        <additional-files value="C:/Users/Palcraft/.texttest/tmp/netedit.gui.25Mar161816.20368/netedit.gui/additionalElements/parkingarea/delete\additionals.xml"/>
        <additionals-output value="C:/Users/Palcraft/.texttest/tmp/netedit.gui.25Mar161816.20368/netedit.gui/additionalElements/parkingarea/delete\additionals.xml"/>
        <route-files value="C:/Users/Palcraft/.texttest/tmp/netedit.gui.25Mar161816.20368/netedit.gui/additionalElements/parkingarea/delete\routes.xml"/>
        <demandelements-output value="C:/Users/Palcraft/.texttest/tmp/netedit.gui.25Mar161816.20368/netedit.gui/additionalElements/parkingarea/delete\routes.xml"/>
    </netedit>

    <visualisation>
        <gui-settings-file value="C:/Users/Palcraft/.texttest/tmp/netedit.gui.25Mar161816.20368/netedit.gui/additionalElements/parkingarea/delete\gui-settings.xml"/>
        <window-size value="700,500"/>
        <window-pos value="50,50"/>
        <gui-testing value="true"/>
        <gui-testing-debug value="true"/>
        <gui-testing-debug-gl value="true"/>
    </visualisation>

    <report>
        <no-warnings value="true"/>
        <error-log value="C:/Users/Palcraft/.texttest/tmp/netedit.gui.25Mar161816.20368/netedit.gui/additionalElements/parkingarea/delete\log.txt"/>
    </report>

</configuration>
-->

<net version="1.1" junctionCornerDetail="5" limitTurnSpeed="5.50" xmlns:xsi="http://www.w3.org/2001/XMLSchema-instance" xsi:noNamespaceSchemaLocation="https://sumo.dlr.de/xsd/net_file.xsd">

    <location netOffset="25.00,0.00" convBoundary="0.00,0.00,50.00,0.00" origBoundary="-10000000000.00,-10000000000.00,10000000000.00,10000000000.00" projParameter="!"/>

    <edge id="gneE1" from="gneJ1" to="gneJ0" priority="1">
        <lane id="gneE1_0" index="0" speed="13.89" length="50.00" shape="50.00,1.60 0.00,1.60"/>
    </edge>

    <junction id="gneJ0" type="dead_end" x="0.00" y="0.00" incLanes="gneE1_0" intLanes="" shape="0.00,3.20 0.00,0.00"/>
    <junction id="gneJ1" type="dead_end" x="50.00" y="0.00" incLanes="" intLanes="" shape="50.00,0.00 50.00,3.20"/>

</net>
