<?xml version="1.0" encoding="UTF-8"?>

<!-- generated on 2026-04-09T18:54:27.064586+01:00 by Eclipse SUMO sumo v1_26_0+1045-463c948cd93
<sumoConfiguration xmlns:xsi="http://www.w3.org/2001/XMLSchema-instance" xsi:noNamespaceSchemaLocation="http://sumo.dlr.de/xsd/sumoConfiguration.xsd">

    <input>
        <net-file value="input_net2.net.xml"/>
        <route-files value="input_routes.rou.xml"/>
    </input>

    <report>
        <no-step-log value="true"/>
    </report>

    <traci_server>
        <remote-port value="34979"/>
    </traci_server>

</sumoConfiguration>
-->

<snapshot type="micro" version="v1_26_0+1045-463c948cd93" time="1.00" xmlns:xsi="http://www.w3.org/2001/XMLSchema-instance" xsi:noNamespaceSchemaLocation="http://sumo.dlr.de/xsd/state_file.xsd">
    <route id="r0" state="1" edges="SC CN"/>
    <delay number="1" begin="1" end="0" depart="0.00" time="0.00"/>
    <vType id="testType"/>
    <vehicle id="ego" type="testType" depart="0.00" route="r0" distance="0 0" speedFactor="1.0600" state="2 0 0 5.10 0 0.00 1000 0 0" pos="5.10 0.10 0.00" speed="0.00 0.00" angle="0.00" posLat="0.00" waitingTime="100000 0" lcState2="0 0 0 0"/>
    <lane id="SC_0">
        <vehicles value="ego"/>
    </lane>
    <tlLogic id="C" programID="0" phase="0" duration="1000" active="1"/>
</snapshot>
