<?xml version="1.0" encoding="UTF-8"?>

<!-- generated on 2023-02-07 13:24:24 by Eclipse SUMO netedit Version v1_16_0+0024-1134bf4b789
<configuration xmlns:xsi="http://www.w3.org/2001/XMLSchema-instance" xsi:noNamespaceSchemaLocation="http://sumo.dlr.de/xsd/netconvertConfiguration.xsd">

    <input>
        <additional-files value="C:\Users\alva_pa\.texttest\tmp\netedit.gui.07Feb131851.7984\netedit.gui\additionalelements\parkingarea\inspect\id\additionals.add.xml"/>
        <route-files value="C:\Users\alva_pa\.texttest\tmp\netedit.gui.07Feb131851.7984\netedit.gui\additionalelements\parkingarea\inspect\id\routes.rou.xml"/>
        <data-files value="C:\Users\alva_pa\.texttest\tmp\netedit.gui.07Feb131851.7984\netedit.gui\additionalelements\parkingarea\inspect\id\datas.dat.xml"/>
        <sumo-net-file value="C:\Users\alva_pa\.texttest\tmp\netedit.gui.07Feb131851.7984\netedit.gui\additionalelements\parkingarea\inspect\id\net.net.xml"/>
    </input>

    <processing>
        <geometry.min-radius.fix.railways value="false"/>
        <geometry.max-grade.fix value="false"/>
        <offset.disable-normalization value="true"/>
        <lefthand value="0"/>
    </processing>

    <junctions>
        <no-turnarounds value="true"/>
        <junctions.corner-detail value="5"/>
        <junctions.limit-turn-speed value="5.50"/>
        <rectangular-lane-cut value="0"/>
    </junctions>

    <pedestrian>
        <walkingareas value="0"/>
    </pedestrian>

    <visualisation>
        <gui-settings-file value="C:\Users\alva_pa\.texttest\tmp\netedit.gui.07Feb131851.7984\netedit.gui\additionalelements\parkingarea\inspect\id\gui-settings.xml"/>
        <window-size value="936, 697"/>
        <window-pos value="50,50"/>
        <gui-testing value="true"/>
        <gui-testing-debug value="true"/>
        <gui-testing.setting-output value="C:\Users\alva_pa\.texttest\tmp\netedit.gui.07Feb131851.7984\netedit.gui\additionalelements\parkingarea\inspect\id\guisettingsoutput.xml"/>
    </visualisation>

    <report>
        <no-warnings value="true"/>
        <error-log value="C:\Users\alva_pa\.texttest\tmp\netedit.gui.07Feb131851.7984\netedit.gui\additionalelements\parkingarea\inspect\id\log.txt"/>
    </report>

</configuration>
-->

<tlLogics version="1.16" xmlns:xsi="http://www.w3.org/2001/XMLSchema-instance" xsi:noNamespaceSchemaLocation="http://sumo.dlr.de/xsd/tllogic_file.xsd">
    <tlLogic id="gneJ0" type="static" programID="0" offset="0">
        <phase duration="82" state="G"/>
        <phase duration="3"  state="y"/>
        <phase duration="5"  state="r"/>
    </tlLogic>
    <tlLogic id="gneJ1" type="static" programID="0" offset="0">
        <phase duration="82" state="G"/>
        <phase duration="3"  state="y"/>
        <phase duration="5"  state="r"/>
    </tlLogic>

    <connection from="center0" to="center1" fromLane="1" toLane="1" tl="gneJ0" linkIndex="0"/>
    <connection from="center1" to="center0" fromLane="1" toLane="1" tl="gneJ1" linkIndex="0"/>
</tlLogics>
