<?xml version="1.0" encoding="UTF-8"?>

<!-- generated on 2023-02-07 12:04:12 by Eclipse SUMO netedit Version 1.16.0
<configuration xmlns:xsi="http://www.w3.org/2001/XMLSchema-instance" xsi:noNamespaceSchemaLocation="http://sumo.dlr.de/xsd/netconvertConfiguration.xsd">

    <input>
        <sumo-net-file value="D:\SUMO\tests\netedit\additionalelements\parkingarea\net.net.xml"/>
    </input>

    <processing>
        <geometry.min-radius.fix.railways value="false"/>
        <geometry.max-grade.fix value="false"/>
        <offset.disable-normalization value="true"/>
        <lefthand value="0"/>
    </processing>

    <junctions>
        <no-turnarounds value="true"/>
        <junctions.corner-detail value="5"/>
        <junctions.limit-turn-speed value="5.50"/>
        <rectangular-lane-cut value="0"/>
    </junctions>

    <pedestrian>
        <walkingareas value="0"/>
    </pedestrian>

</configuration>
-->

<edges version="1.16" xmlns:xsi="http://www.w3.org/2001/XMLSchema-instance" xsi:noNamespaceSchemaLocation="http://sumo.dlr.de/xsd/edges_file.xsd">
    <edge id="-E0" from="J1" to="J0" priority="-1" numLanes="1" speed="13.89"/>
    <edge id="-E1" from="J3" to="J2" priority="-1" numLanes="1" speed="13.89"/>
    <edge id="E0" from="J0" to="J1" priority="-1" numLanes="1" speed="13.89"/>
    <edge id="E1" from="J2" to="J3" priority="-1" numLanes="1" speed="13.89"/>
    <edge id="gneE0" from="gneJ0" to="gneJ1" priority="1" numLanes="2" speed="13.89"/>
    <edge id="gneE1" from="gneJ1" to="gneJ0" priority="1" numLanes="2" speed="13.89"/>
</edges>
