<?xml version="1.0" encoding="UTF-8"?>

<!-- generated on Sat Dec 16 00:40:07 2017 by SUMO duarouter Version v0_31_0+1633-64219f8
<?xml version="1.0" encoding="UTF-8"?>

<configuration xmlns:xsi="http://www.w3.org/2001/XMLSchema-instance" xsi:noNamespaceSchemaLocation="http://sumo.dlr.de/xsd/duarouterConfiguration.xsd">

    <input>
        <net-file value="input_net.net.xml"/>
        <additional-files value="input_districts.taz.xml"/>
        <route-files value="input_trips.trips.xml"/>
    </input>

    <output>
        <output-file value="routes.rou.xml"/>
        <alternatives-output value="routes.rou.alt.xml"/>
    </output>

    <processing>
        <routing-algorithm value="CH"/>
    </processing>

    <report>
        <verbose value="true"/>
        <xml-validation value="never"/>
        <no-step-log value="true"/>
    </report>

</configuration>
-->

<routes xmlns:xsi="http://www.w3.org/2001/XMLSchema-instance" xsi:noNamespaceSchemaLocation="http://sumo.dlr.de/xsd/routes_file.xsd">
    <vType id="DEFAULT_VEHTYPE" sigma="0"/>
    <vehicle id="0" depart="0.00" fromTaz="1" toTaz="2">
        <route edges="5/5to5/6 5/6to5/7 5/7to5/8 5/8to6/8 6/8to6/9 6/9to7/9 7/9to8/9 8/9to9/9 9/9to8/9"/>
    </vehicle>
</routes>
