<?xml version="1.0"?>

<!-- generated on 08/13/10 21:07:30 by SUMO netgen Version dev-SVN-r8487
<configuration>

    <grid_network>
        <grid-net value="true"/>
        <grid-number value="2"/>
        <grid-length value="400"/>
    </grid_network>

    <output>
        <output-file value="net.net.xml"/>
    </output>

</configuration>
-->

<net>

   <location netOffset="0.00,0.00" convBoundary="0.00,0.00,400.00,400.00" origBoundary="0.00,0.00,400.00,400.00" projParameter="!"/>

   <edge id=":0/0_0" function="internal">
      <lane id=":0/0_0_0" depart="0" maxspeed="13.90" length="7.90" shape="-1.65,3.25 -1.34,1.11 -0.43,-0.43 1.11,-1.34 3.25,-1.65"/>
   </edge>
   <edge id=":0/0_1" function="internal">
      <lane id=":0/0_1_0" depart="0" maxspeed="13.90" length="4.82" shape="-1.65,3.25 -0.83,2.01 -0.00,1.60 0.82,2.01 1.65,3.25"/>
   </edge>
   <edge id=":0/0_2" function="internal">
      <lane id=":0/0_2_0" depart="0" maxspeed="13.90" length="2.58" shape="3.25,1.65 2.55,1.75 2.05,2.05 1.75,2.55 1.65,3.25"/>
   </edge>
   <edge id=":0/0_3" function="internal">
      <lane id=":0/0_3_0" depart="0" maxspeed="13.90" length="4.82" shape="3.25,1.65 2.01,0.82 1.60,-0.00 2.01,-0.83 3.25,-1.65"/>
   </edge>
   <edge id=":0/1_0" function="internal">
      <lane id=":0/1_0_0" depart="0" maxspeed="13.90" length="7.90" shape="3.25,401.65 1.11,401.34 -0.43,400.43 -1.34,398.89 -1.65,396.75"/>
   </edge>
   <edge id=":0/1_1" function="internal">
      <lane id=":0/1_1_0" depart="0" maxspeed="13.90" length="4.82" shape="3.25,401.65 2.01,400.83 1.60,400.00 2.01,399.18 3.25,398.35"/>
   </edge>
   <edge id=":0/1_2" function="internal">
      <lane id=":0/1_2_0" depart="0" maxspeed="13.90" length="2.58" shape="1.65,396.75 1.75,397.45 2.05,397.95 2.55,398.25 3.25,398.35"/>
   </edge>
   <edge id=":0/1_3" function="internal">
      <lane id=":0/1_3_0" depart="0" maxspeed="13.90" length="4.82" shape="1.65,396.75 0.83,397.99 0.00,398.40 -0.82,397.99 -1.65,396.75"/>
   </edge>
   <edge id=":1/0_0" function="internal">
      <lane id=":1/0_0_0" depart="0" maxspeed="13.90" length="2.58" shape="398.35,3.25 398.25,2.55 397.95,2.05 397.45,1.75 396.75,1.65"/>
   </edge>
   <edge id=":1/0_1" function="internal">
      <lane id=":1/0_1_0" depart="0" maxspeed="13.90" length="4.82" shape="398.35,3.25 399.17,2.01 400.00,1.60 400.82,2.01 401.65,3.25"/>
   </edge>
   <edge id=":1/0_2" function="internal">
      <lane id=":1/0_2_0" depart="0" maxspeed="13.90" length="7.90" shape="396.75,-1.65 398.89,-1.34 400.43,-0.43 401.34,1.11 401.65,3.25"/>
   </edge>
   <edge id=":1/0_3" function="internal">
      <lane id=":1/0_3_0" depart="0" maxspeed="13.90" length="4.82" shape="396.75,-1.65 397.99,-0.83 398.40,-0.00 397.99,0.82 396.75,1.65"/>
   </edge>
   <edge id=":1/1_0" function="internal">
      <lane id=":1/1_0_0" depart="0" maxspeed="13.90" length="7.90" shape="401.65,396.75 401.34,398.89 400.43,400.43 398.89,401.34 396.75,401.65"/>
   </edge>
   <edge id=":1/1_1" function="internal">
      <lane id=":1/1_1_0" depart="0" maxspeed="13.90" length="4.82" shape="401.65,396.75 400.83,397.99 400.00,398.40 399.18,397.99 398.35,396.75"/>
   </edge>
   <edge id=":1/1_2" function="internal">
      <lane id=":1/1_2_0" depart="0" maxspeed="13.90" length="2.58" shape="396.75,398.35 397.45,398.25 397.95,397.95 398.25,397.45 398.35,396.75"/>
   </edge>
   <edge id=":1/1_3" function="internal">
      <lane id=":1/1_3_0" depart="0" maxspeed="13.90" length="4.82" shape="396.75,398.35 397.99,399.18 398.40,400.00 397.99,400.83 396.75,401.65"/>
   </edge>

   <edge id="0/0to0/1" from="0/0" to="0/1" priority="-1" type="netgen-default" function="normal">
      <lane id="0/0to0/1_0" depart="1" maxspeed="13.90" length="393.50" shape="1.65,3.25 1.65,396.75"/>
   </edge>
   <edge id="0/0to1/0" from="0/0" to="1/0" priority="-1" type="netgen-default" function="normal">
      <lane id="0/0to1/0_0" depart="1" maxspeed="13.90" length="393.50" shape="3.25,-1.65 396.75,-1.65"/>
   </edge>
   <edge id="0/1to0/0" from="0/1" to="0/0" priority="-1" type="netgen-default" function="normal">
      <lane id="0/1to0/0_0" depart="1" maxspeed="13.90" length="393.50" shape="-1.65,396.75 -1.65,3.25"/>
   </edge>
   <edge id="0/1to1/1" from="0/1" to="1/1" priority="-1" type="netgen-default" function="normal">
      <lane id="0/1to1/1_0" depart="1" maxspeed="13.90" length="393.50" shape="3.25,398.35 396.75,398.35"/>
   </edge>
   <edge id="1/0to0/0" from="1/0" to="0/0" priority="-1" type="netgen-default" function="normal">
      <lane id="1/0to0/0_0" depart="1" maxspeed="13.90" length="393.50" shape="396.75,1.65 3.25,1.65"/>
   </edge>
   <edge id="1/0to1/1" from="1/0" to="1/1" priority="-1" type="netgen-default" function="normal">
      <lane id="1/0to1/1_0" depart="1" maxspeed="13.90" length="393.50" shape="401.65,3.25 401.65,396.75"/>
   </edge>
   <edge id="1/1to0/1" from="1/1" to="0/1" priority="-1" type="netgen-default" function="normal">
      <lane id="1/1to0/1_0" depart="1" maxspeed="13.90" length="393.50" shape="396.75,401.65 3.25,401.65"/>
   </edge>
   <edge id="1/1to1/0" from="1/1" to="1/0" priority="-1" type="netgen-default" function="normal">
      <lane id="1/1to1/0_0" depart="1" maxspeed="13.90" length="393.50" shape="398.35,396.75 398.35,3.25"/>
   </edge>

   <row-logic id="0/0" requestSize="4" laneNumber="2">
      <logicitem request="0" response="0000" foes="1000" cont="0"/>
      <logicitem request="1" response="0100" foes="0100" cont="0"/>
      <logicitem request="2" response="0000" foes="0010" cont="0"/>
      <logicitem request="3" response="0001" foes="0001" cont="0"/>
   </row-logic>
   <row-logic id="0/1" requestSize="4" laneNumber="2">
      <logicitem request="0" response="0000" foes="1000" cont="0"/>
      <logicitem request="1" response="0100" foes="0100" cont="0"/>
      <logicitem request="2" response="0000" foes="0010" cont="0"/>
      <logicitem request="3" response="0001" foes="0001" cont="0"/>
   </row-logic>
   <row-logic id="1/0" requestSize="4" laneNumber="2">
      <logicitem request="0" response="0000" foes="1000" cont="0"/>
      <logicitem request="1" response="0100" foes="0100" cont="0"/>
      <logicitem request="2" response="0000" foes="0010" cont="0"/>
      <logicitem request="3" response="0001" foes="0001" cont="0"/>
   </row-logic>
   <row-logic id="1/1" requestSize="4" laneNumber="2">
      <logicitem request="0" response="0000" foes="1000" cont="0"/>
      <logicitem request="1" response="0100" foes="0100" cont="0"/>
      <logicitem request="2" response="0000" foes="0010" cont="0"/>
      <logicitem request="3" response="0001" foes="0001" cont="0"/>
   </row-logic>

   <junction id="0/0" type="priority" x="0.00" y="0.00" incLanes="0/1to0/0_0 1/0to0/0_0" intLanes=":0/0_0_0 :0/0_1_0 :0/0_2_0 :0/0_3_0" shape="-3.25,3.25 3.25,3.25 3.25,-3.25"/>
   <junction id="0/1" type="priority" x="0.00" y="400.00" incLanes="1/1to0/1_0 0/0to0/1_0" intLanes=":0/1_0_0 :0/1_1_0 :0/1_2_0 :0/1_3_0" shape="3.25,403.25 3.25,396.75 -3.25,396.75"/>
   <junction id="1/0" type="priority" x="400.00" y="0.00" incLanes="1/1to1/0_0 0/0to1/0_0" intLanes=":1/0_0_0 :1/0_1_0 :1/0_2_0 :1/0_3_0" shape="396.75,3.25 403.25,3.25 396.75,-3.25 396.75,3.25"/>
   <junction id="1/1" type="priority" x="400.00" y="400.00" incLanes="1/0to1/1_0 0/1to1/1_0" intLanes=":1/1_0_0 :1/1_1_0 :1/1_2_0 :1/1_3_0" shape="403.25,396.75 396.75,396.75 396.75,403.25"/>

   <succ edge="0/0to0/1" lane="0/0to0/1_0" junction="0/1">
      <succlane lane="0/1to1/1_0" via=":0/1_2_0" yield="0" dir="r" state="M"/>
      <succlane lane="0/1to0/0_0" via=":0/1_3_0" yield="1" dir="t" state="m"/>
   </succ>
   <succ edge="0/0to1/0" lane="0/0to1/0_0" junction="1/0">
      <succlane lane="1/0to1/1_0" via=":1/0_2_0" yield="0" dir="l" state="M"/>
      <succlane lane="1/0to0/0_0" via=":1/0_3_0" yield="1" dir="t" state="m"/>
   </succ>
   <succ edge="0/1to0/0" lane="0/1to0/0_0" junction="0/0">
      <succlane lane="0/0to1/0_0" via=":0/0_0_0" yield="0" dir="l" state="M"/>
      <succlane lane="0/0to0/1_0" via=":0/0_1_0" yield="1" dir="t" state="m"/>
   </succ>
   <succ edge="0/1to1/1" lane="0/1to1/1_0" junction="1/1">
      <succlane lane="1/1to1/0_0" via=":1/1_2_0" yield="0" dir="r" state="M"/>
      <succlane lane="1/1to0/1_0" via=":1/1_3_0" yield="1" dir="t" state="m"/>
   </succ>
   <succ edge="1/0to0/0" lane="1/0to0/0_0" junction="0/0">
      <succlane lane="0/0to0/1_0" via=":0/0_2_0" yield="0" dir="r" state="M"/>
      <succlane lane="0/0to1/0_0" via=":0/0_3_0" yield="1" dir="t" state="m"/>
   </succ>
   <succ edge="1/0to1/1" lane="1/0to1/1_0" junction="1/1">
      <succlane lane="1/1to0/1_0" via=":1/1_0_0" yield="0" dir="l" state="M"/>
      <succlane lane="1/1to1/0_0" via=":1/1_1_0" yield="1" dir="t" state="m"/>
   </succ>
   <succ edge="1/1to0/1" lane="1/1to0/1_0" junction="0/1">
      <succlane lane="0/1to0/0_0" via=":0/1_0_0" yield="0" dir="l" state="M"/>
      <succlane lane="0/1to1/1_0" via=":0/1_1_0" yield="1" dir="t" state="m"/>
   </succ>
   <succ edge="1/1to1/0" lane="1/1to1/0_0" junction="1/0">
      <succlane lane="1/0to0/0_0" via=":1/0_0_0" yield="0" dir="r" state="M"/>
      <succlane lane="1/0to1/1_0" via=":1/0_1_0" yield="1" dir="t" state="m"/>
   </succ>

   <succ edge=":0/0_0" lane=":0/0_0_0" junction="0/0">
      <succlane lane="0/0to1/0_0" tl="" linkno="" yield="0" dir="s" state="M"/>
   </succ>
   <succ edge=":0/0_1" lane=":0/0_1_0" junction="0/0">
      <succlane lane="0/0to0/1_0" tl="" linkno="" yield="0" dir="s" state="M"/>
   </succ>
   <succ edge=":0/0_2" lane=":0/0_2_0" junction="0/0">
      <succlane lane="0/0to0/1_0" tl="" linkno="" yield="0" dir="s" state="M"/>
   </succ>
   <succ edge=":0/0_3" lane=":0/0_3_0" junction="0/0">
      <succlane lane="0/0to1/0_0" tl="" linkno="" yield="0" dir="s" state="M"/>
   </succ>
   <succ edge=":0/1_0" lane=":0/1_0_0" junction="0/1">
      <succlane lane="0/1to0/0_0" tl="" linkno="" yield="0" dir="s" state="M"/>
   </succ>
   <succ edge=":0/1_1" lane=":0/1_1_0" junction="0/1">
      <succlane lane="0/1to1/1_0" tl="" linkno="" yield="0" dir="s" state="M"/>
   </succ>
   <succ edge=":0/1_2" lane=":0/1_2_0" junction="0/1">
      <succlane lane="0/1to1/1_0" tl="" linkno="" yield="0" dir="s" state="M"/>
   </succ>
   <succ edge=":0/1_3" lane=":0/1_3_0" junction="0/1">
      <succlane lane="0/1to0/0_0" tl="" linkno="" yield="0" dir="s" state="M"/>
   </succ>
   <succ edge=":1/0_0" lane=":1/0_0_0" junction="1/0">
      <succlane lane="1/0to0/0_0" tl="" linkno="" yield="0" dir="s" state="M"/>
   </succ>
   <succ edge=":1/0_1" lane=":1/0_1_0" junction="1/0">
      <succlane lane="1/0to1/1_0" tl="" linkno="" yield="0" dir="s" state="M"/>
   </succ>
   <succ edge=":1/0_2" lane=":1/0_2_0" junction="1/0">
      <succlane lane="1/0to1/1_0" tl="" linkno="" yield="0" dir="s" state="M"/>
   </succ>
   <succ edge=":1/0_3" lane=":1/0_3_0" junction="1/0">
      <succlane lane="1/0to0/0_0" tl="" linkno="" yield="0" dir="s" state="M"/>
   </succ>
   <succ edge=":1/1_0" lane=":1/1_0_0" junction="1/1">
      <succlane lane="1/1to0/1_0" tl="" linkno="" yield="0" dir="s" state="M"/>
   </succ>
   <succ edge=":1/1_1" lane=":1/1_1_0" junction="1/1">
      <succlane lane="1/1to1/0_0" tl="" linkno="" yield="0" dir="s" state="M"/>
   </succ>
   <succ edge=":1/1_2" lane=":1/1_2_0" junction="1/1">
      <succlane lane="1/1to1/0_0" tl="" linkno="" yield="0" dir="s" state="M"/>
   </succ>
   <succ edge=":1/1_3" lane=":1/1_3_0" junction="1/1">
      <succlane lane="1/1to0/1_0" tl="" linkno="" yield="0" dir="s" state="M"/>
   </succ>

</net>
