<?xml version="1.0" encoding="UTF-8"?>

<!-- generated on Thu Oct 26 17:02:07 2017 by SUMO Version dev-SVN-r26746
<?xml version="1.0" encoding="UTF-8"?>

<configuration xmlns:xsi="http://www.w3.org/2001/XMLSchema-instance" xsi:noNamespaceSchemaLocation="http://sumo.dlr.de/xsd/sumoConfiguration.xsd">

    <input>
        <net-file value="net.net.xml"/>
        <route-files value="input_routes.rou.xml"/>
        <additional-files value="input_additional.add.xml"/>
    </input>

    <output>
        <battery-output value="battery.xml"/>
        <battery-output.precision value="4"/>
        <chargingstations-output value="chargingstations.xml"/>
    </output>

    <report>
        <xml-validation value="never"/>
        <duration-log.disable value="true"/>
        <no-step-log value="true"/>
    </report>

    <battery>
        <device.battery.probability value="1"/>
    </battery>

</configuration>
-->

<battery-export>
    <timestep time="0.00">
        <vehicle id="vehWithCustDepartEnergy" energyConsumed="0.0000" actualBatteryCapacity="10000.0000" maximumBatteryCapacity="35000.0000" chargingStationId="NULL" energyCharged="0.0000" energyChargedInTransit="0.0000" energyChargedStopped="0.0000" speed="13.6136" acceleration="0.0000" x="1428.2700" y="25.5700" lane="76to16_0" posOnLane="0.0000" timeStopped="0"/>
    </timestep>
    <timestep time="1.00">
        <vehicle id="vehWithCustDepartEnergy" energyConsumed="14.2410" actualBatteryCapacity="9985.7590" maximumBatteryCapacity="35000.0000" chargingStationId="NULL" energyCharged="0.0000" energyChargedInTransit="0.0000" energyChargedStopped="0.0000" speed="14.3526" acceleration="0.7390" x="1423.1203" y="38.9665" lane="76to16_0" posOnLane="14.3526" timeStopped="0"/>
    </timestep>
    <timestep time="2.00">
        <vehicle id="vehWithCustDepartEnergy" energyConsumed="16.2338" actualBatteryCapacity="9969.5252" maximumBatteryCapacity="35000.0000" chargingStationId="NULL" energyCharged="0.0000" energyChargedInTransit="0.0000" energyChargedStopped="0.0000" speed="15.2197" acceleration="0.8671" x="1417.6595" y="53.1724" lane="76to16_0" posOnLane="29.5723" timeStopped="0"/>
    </timestep>
    <timestep time="3.00">
        <vehicle id="vehWithCustDepartEnergy" energyConsumed="3.4799" actualBatteryCapacity="9966.0453" maximumBatteryCapacity="35000.0000" chargingStationId="NULL" energyCharged="0.0000" energyChargedInTransit="0.0000" energyChargedStopped="0.0000" speed="14.6400" acceleration="-0.5798" x="1412.4067" y="66.8371" lane="76to16_0" posOnLane="44.2123" timeStopped="0"/>
    </timestep>
    <timestep time="4.00">
        <vehicle id="vehWithCustDepartEnergy" energyConsumed="7.3108" actualBatteryCapacity="9958.7345" maximumBatteryCapacity="35000.0000" chargingStationId="NULL" energyCharged="0.0000" energyChargedInTransit="0.0000" energyChargedStopped="0.0000" speed="14.5119" acceleration="-0.1281" x="1407.1998" y="80.3823" lane="76to16_0" posOnLane="58.7242" timeStopped="0"/>
    </timestep>
    <timestep time="5.00">
        <vehicle id="vehWithCustDepartEnergy" energyConsumed="14.9315" actualBatteryCapacity="9943.8030" maximumBatteryCapacity="35000.0000" chargingStationId="NULL" energyCharged="0.0000" energyChargedInTransit="0.0000" energyChargedStopped="0.0000" speed="15.2221" acceleration="0.7102" x="1401.7381" y="94.5904" lane="76to16_0" posOnLane="73.9463" timeStopped="0"/>
    </timestep>
    <timestep time="6.00">
        <vehicle id="vehWithCustDepartEnergy" energyConsumed="0.5175" actualBatteryCapacity="9943.2856" maximumBatteryCapacity="35000.0000" chargingStationId="NULL" energyCharged="0.0000" energyChargedInTransit="0.0000" energyChargedStopped="0.0000" speed="14.3126" acceleration="-0.9095" x="1396.6028" y="107.9496" lane="76to16_0" posOnLane="88.2589" timeStopped="0"/>
    </timestep>
    <timestep time="7.00">
        <vehicle id="vehWithCustDepartEnergy" energyConsumed="14.1098" actualBatteryCapacity="9929.1758" maximumBatteryCapacity="35000.0000" chargingStationId="NULL" energyCharged="0.0000" energyChargedInTransit="0.0000" energyChargedStopped="0.0000" speed="14.9571" acceleration="0.6445" x="1391.2362" y="121.9104" lane="76to16_0" posOnLane="103.2160" timeStopped="0"/>
    </timestep>
    <timestep time="8.00">
        <vehicle id="vehWithCustDepartEnergy" energyConsumed="5.1298" actualBatteryCapacity="9924.0459" maximumBatteryCapacity="35000.0000" chargingStationId="NULL" energyCharged="0.0000" energyChargedInTransit="0.0000" energyChargedStopped="0.0000" speed="14.5700" acceleration="-0.3871" x="1386.0085" y="135.5098" lane="76to16_0" posOnLane="117.7860" timeStopped="0"/>
    </timestep>
    <timestep time="9.00">
        <vehicle id="vehWithCustDepartEnergy" energyConsumed="6.0954" actualBatteryCapacity="9917.9506" maximumBatteryCapacity="35000.0000" chargingStationId="NULL" energyCharged="0.0000" energyChargedInTransit="0.0000" energyChargedStopped="0.0000" speed="14.3102" acceleration="-0.2598" x="1380.8740" y="148.8667" lane="76to16_0" posOnLane="132.0962" timeStopped="0"/>
    </timestep>
    <timestep time="10.00">
        <vehicle id="vehWithCustDepartEnergy" energyConsumed="17.0681" actualBatteryCapacity="9900.8825" maximumBatteryCapacity="35000.0000" chargingStationId="NULL" energyCharged="0.0000" energyChargedInTransit="0.0000" energyChargedStopped="0.0000" speed="15.2710" acceleration="0.9608" x="1375.3948" y="163.1204" lane="76to16_0" posOnLane="147.3672" timeStopped="0"/>
    </timestep>
    <timestep time="11.00">
        <vehicle id="vehWithBusStop" energyConsumed="0.0000" actualBatteryCapacity="17500.0000" maximumBatteryCapacity="35000.0000" chargingStationId="NULL" energyCharged="0.0000" energyChargedInTransit="0.0000" energyChargedStopped="0.0000" speed="6.7285" acceleration="0.0000" x="1428.2700" y="25.5700" lane="76to16_0" posOnLane="0.0000" timeStopped="0"/>
        <vehicle id="vehWithCustDepartEnergy" energyConsumed="0.9024" actualBatteryCapacity="9899.9801" maximumBatteryCapacity="35000.0000" chargingStationId="NULL" energyCharged="0.0000" energyChargedInTransit="0.0000" energyChargedStopped="0.0000" speed="14.4039" acceleration="-0.8671" x="1370.2266" y="176.5649" lane="76to16_0" posOnLane="161.7711" timeStopped="0"/>
    </timestep>
    <timestep time="12.00">
        <vehicle id="vehWithBusStop" energyConsumed="13.0226" actualBatteryCapacity="17486.9774" maximumBatteryCapacity="35000.0000" chargingStationId="NULL" energyCharged="0.0000" energyChargedInTransit="0.0000" energyChargedStopped="0.0000" speed="8.5924" acceleration="1.8638" x="1425.1871" y="33.5900" lane="76to16_0" posOnLane="8.5924" timeStopped="0"/>
        <vehicle id="vehWithCustDepartEnergy" energyConsumed="10.9096" actualBatteryCapacity="9889.0705" maximumBatteryCapacity="35000.0000" chargingStationId="NULL" energyCharged="0.0000" energyChargedInTransit="0.0000" energyChargedStopped="0.0000" speed="14.6911" acceleration="0.2872" x="1364.9555" y="190.2773" lane="76to16_0" posOnLane="176.4622" timeStopped="0"/>
    </timestep>
    <timestep time="13.00">
        <vehicle id="vehWithBusStop" energyConsumed="20.6007" actualBatteryCapacity="17466.3767" maximumBatteryCapacity="35000.0000" chargingStationId="NULL" energyCharged="0.0000" energyChargedInTransit="0.0000" energyChargedStopped="0.0000" speed="11.1141" acceleration="2.5217" x="1421.1993" y="43.9637" lane="76to16_0" posOnLane="19.7064" timeStopped="0"/>
        <vehicle id="vehWithCustDepartEnergy" energyConsumed="10.7413" actualBatteryCapacity="9878.3293" maximumBatteryCapacity="35000.0000" chargingStationId="NULL" energyCharged="0.0000" energyChargedInTransit="0.0000" energyChargedStopped="0.0000" speed="14.9350" acceleration="0.2439" x="1359.5968" y="204.2174" lane="76to16_0" posOnLane="191.3972" timeStopped="0"/>
    </timestep>
    <timestep time="14.00">
        <vehicle id="vehWithBusStop" energyConsumed="22.9624" actualBatteryCapacity="17443.4143" maximumBatteryCapacity="35000.0000" chargingStationId="NULL" energyCharged="0.0000" energyChargedInTransit="0.0000" energyChargedStopped="0.0000" speed="13.2955" acceleration="2.1814" x="1416.4289" y="56.3735" lane="76to16_0" posOnLane="33.0019" timeStopped="0"/>
        <vehicle id="vehWithCustDepartEnergy" energyConsumed="1.4931" actualBatteryCapacity="9876.8362" maximumBatteryCapacity="35000.0000" chargingStationId="NULL" energyCharged="0.0000" energyChargedInTransit="0.0000" energyChargedStopped="0.0000" speed="14.1406" acceleration="-0.7944" x="1354.5232" y="217.4160" lane="76to16_0" posOnLane="205.5378" timeStopped="0"/>
    </timestep>
    <timestep time="15.00">
        <vehicle id="vehWithBusStop" energyConsumed="16.8966" actualBatteryCapacity="17426.5176" maximumBatteryCapacity="35000.0000" chargingStationId="NULL" energyCharged="0.0000" energyChargedInTransit="0.0000" energyChargedStopped="0.0000" speed="14.3738" acceleration="1.0783" x="1411.2716" y="69.7898" lane="76to16_0" posOnLane="47.3757" timeStopped="0"/>
        <vehicle id="vehWithCustDepartEnergy" energyConsumed="10.3608" actualBatteryCapacity="9866.4753" maximumBatteryCapacity="35000.0000" chargingStationId="NULL" energyCharged="0.0000" energyChargedInTransit="0.0000" energyChargedStopped="0.0000" speed="14.3902" acceleration="0.2496" x="1349.3600" y="230.8476" lane="76to16_0" posOnLane="219.9280" timeStopped="0"/>
    </timestep>
    <timestep time="16.00">
        <vehicle id="vehWithBusStop" energyConsumed="5.3058" actualBatteryCapacity="17421.2118" maximumBatteryCapacity="35000.0000" chargingStationId="NULL" energyCharged="0.0000" energyChargedInTransit="0.0000" energyChargedStopped="0.0000" speed="14.0347" acceleration="-0.3391" x="1406.2360" y="82.8896" lane="76to16_0" posOnLane="61.4104" timeStopped="0"/>
        <vehicle id="vehWithCustDepartEnergy" energyConsumed="10.3050" actualBatteryCapacity="9856.1703" maximumBatteryCapacity="35000.0000" chargingStationId="NULL" energyCharged="0.0000" energyChargedInTransit="0.0000" energyChargedStopped="0.0000" speed="14.6120" acceleration="0.2218" x="1344.1173" y="244.4862" lane="76to16_0" posOnLane="234.5399" timeStopped="0"/>
    </timestep>
    <timestep time="17.00">
        <vehicle id="vehWithBusStop" energyConsumed="1.1136" actualBatteryCapacity="17420.0982" maximumBatteryCapacity="35000.0000" chargingStationId="NULL" energyCharged="0.0000" energyChargedInTransit="0.0000" energyChargedStopped="0.0000" speed="13.2131" acceleration="-0.8216" x="1401.4952" y="95.2225" lane="76to16_0" posOnLane="74.6235" timeStopped="0"/>
        <vehicle id="vehWithCustDepartEnergy" energyConsumed="7.0381" actualBatteryCapacity="9849.1322" maximumBatteryCapacity="35000.0000" chargingStationId="NULL" energyCharged="0.0000" energyChargedInTransit="0.0000" energyChargedStopped="0.0000" speed="14.4553" acceleration="-0.1567" x="1338.9307" y="257.9786" lane="76to16_0" posOnLane="248.9953" timeStopped="0"/>
    </timestep>
    <timestep time="18.00">
        <vehicle id="vehWithBusStop" energyConsumed="8.1172" actualBatteryCapacity="17411.9809" maximumBatteryCapacity="35000.0000" chargingStationId="NULL" energyCharged="0.0000" energyChargedInTransit="0.0000" energyChargedStopped="0.0000" speed="13.2799" acceleration="0.0668" x="1396.7303" y="107.6177" lane="76to16_0" posOnLane="87.9034" timeStopped="0"/>
        <vehicle id="vehWithCustDepartEnergy" energyConsumed="0.5602" actualBatteryCapacity="9848.5720" maximumBatteryCapacity="35000.0000" chargingStationId="NULL" energyCharged="0.0000" energyChargedInTransit="0.0000" energyChargedStopped="0.0000" speed="13.5608" acceleration="-0.8946" x="1334.0651" y="270.6360" lane="76to16_0" posOnLane="262.5560" timeStopped="0"/>
    </timestep>
    <timestep time="19.00">
        <vehicle id="vehWithBusStop" energyConsumed="11.3608" actualBatteryCapacity="17400.6202" maximumBatteryCapacity="35000.0000" chargingStationId="NULL" energyCharged="0.0000" energyChargedInTransit="0.0000" energyChargedStopped="0.0000" speed="13.7262" acceleration="0.4463" x="1391.8054" y="120.4296" lane="76to16_0" posOnLane="101.6296" timeStopped="0"/>
        <vehicle id="vehWithCustDepartEnergy" energyConsumed="-8.9913" actualBatteryCapacity="9857.5633" maximumBatteryCapacity="35000.0000" chargingStationId="NULL" energyCharged="0.0000" energyChargedInTransit="0.0000" energyChargedStopped="0.0000" speed="10.6884" acceleration="-2.8724" x="1333.4014" y="280.2920" lane=":16_2_0" posOnLane="5.4344" timeStopped="0"/>
    </timestep>
    <timestep time="20.00">
        <vehicle id="vehWithBusStop" energyConsumed="11.3502" actualBatteryCapacity="17389.2700" maximumBatteryCapacity="35000.0000" chargingStationId="NULL" energyCharged="0.0000" energyChargedInTransit="0.0000" energyChargedStopped="0.0000" speed="14.1261" acceleration="0.3999" x="1386.7370" y="133.6147" lane="76to16_0" posOnLane="115.7557" timeStopped="0"/>
        <vehicle id="vehWithCustDepartEnergy" energyConsumed="-2.4638" actualBatteryCapacity="9860.0271" maximumBatteryCapacity="35000.0000" chargingStationId="NULL" energyCharged="0.0000" energyChargedInTransit="0.0000" energyChargedStopped="0.0000" speed="9.1208" acceleration="-1.5676" x="1341.6484" y="284.1750" lane="16to38_0" posOnLane="8.6052" timeStopped="0"/>
    </timestep>
    <timestep time="21.00">
        <vehicle id="vehWithBusStop" energyConsumed="7.4003" actualBatteryCapacity="17381.8697" maximumBatteryCapacity="35000.0000" chargingStationId="NULL" energyCharged="0.0000" energyChargedInTransit="0.0000" energyChargedStopped="0.0000" speed="14.0415" acceleration="-0.0846" x="1381.6989" y="146.7209" lane="76to16_0" posOnLane="129.7973" timeStopped="0"/>
        <vehicle id="vehWithCustDepartEnergy" energyConsumed="-0.1238" actualBatteryCapacity="9860.1509" maximumBatteryCapacity="35000.0000" chargingStationId="NULL" energyCharged="0.0000" energyChargedInTransit="0.0000" energyChargedStopped="0.0000" speed="8.1691" acceleration="-0.9517" x="1349.0704" y="287.5878" lane="16to38_0" posOnLane="16.7743" timeStopped="0"/>
    </timestep>
    <timestep time="22.00">
        <vehicle id="vehWithBusStop" energyConsumed="9.7155" actualBatteryCapacity="17372.1542" maximumBatteryCapacity="35000.0000" chargingStationId="NULL" energyCharged="0.0000" energyChargedInTransit="0.0000" energyChargedStopped="0.0000" speed="14.2270" acceleration="0.1855" x="1376.5942" y="160.0002" lane="76to16_0" posOnLane="144.0242" timeStopped="0"/>
        <vehicle id="vehWithCustDepartEnergy" energyConsumed="3.2475" actualBatteryCapacity="9856.9035" maximumBatteryCapacity="35000.0000" chargingStationId="NULL" energyCharged="0.0000" energyChargedInTransit="0.0000" energyChargedStopped="0.0000" speed="7.9193" acceleration="-0.2497" x="1356.2656" y="290.8962" lane="16to38_0" posOnLane="24.6936" timeStopped="0"/>
    </timestep>
    <timestep time="23.00">
        <vehicle id="vehWithBusStop" energyConsumed="9.6983" actualBatteryCapacity="17362.4560" maximumBatteryCapacity="35000.0000" chargingStationId="NULL" energyCharged="0.0000" energyChargedInTransit="0.0000" energyChargedStopped="0.0000" speed="14.3951" acceleration="0.1681" x="1371.4293" y="173.4363" lane="76to16_0" posOnLane="158.4193" timeStopped="0"/>
        <vehicle id="vehWithCustDepartEnergy" energyConsumed="6.2553" actualBatteryCapacity="9850.6481" maximumBatteryCapacity="35000.0000" chargingStationId="NULL" energyCharged="0.0000" energyChargedInTransit="0.0000" energyChargedStopped="0.0000" speed="8.2723" acceleration="0.3530" x="1363.7815" y="294.3521" lane="16to38_0" posOnLane="32.9659" timeStopped="0"/>
    </timestep>
    <timestep time="24.00">
        <vehicle id="vehWithBusStop" energyConsumed="4.8547" actualBatteryCapacity="17357.6013" maximumBatteryCapacity="35000.0000" chargingStationId="NULL" energyCharged="0.0000" energyChargedInTransit="0.0000" energyChargedStopped="0.0000" speed="14.0031" acceleration="-0.3919" x="1366.4050" y="186.5066" lane="76to16_0" posOnLane="172.4224" timeStopped="0"/>
        <vehicle id="vehWithCustDepartEnergy" energyConsumed="8.6213" actualBatteryCapacity="9842.0268" maximumBatteryCapacity="35000.0000" chargingStationId="NULL" energyCharged="0.0000" energyChargedInTransit="0.0000" energyChargedStopped="0.0000" speed="8.9947" acceleration="0.7224" x="1371.9538" y="298.1098" lane="16to38_0" posOnLane="41.9606" timeStopped="0"/>
    </timestep>
    <timestep time="25.00">
        <vehicle id="vehWithBusStop" energyConsumed="10.4139" actualBatteryCapacity="17347.1874" maximumBatteryCapacity="35000.0000" chargingStationId="NULL" energyCharged="0.0000" energyChargedInTransit="0.0000" energyChargedStopped="0.0000" speed="14.2708" acceleration="0.2677" x="1361.2846" y="199.8268" lane="76to16_0" posOnLane="186.6933" timeStopped="0"/>
        <vehicle id="vehWithCustDepartEnergy" energyConsumed="2.9520" actualBatteryCapacity="9839.0748" maximumBatteryCapacity="35000.0000" chargingStationId="NULL" energyCharged="0.0000" energyChargedInTransit="0.0000" energyChargedStopped="0.0000" speed="8.6282" acceleration="-0.3666" x="1379.7930" y="301.7144" lane="16to38_0" posOnLane="50.5888" timeStopped="0"/>
    </timestep>
    <timestep time="26.00">
        <vehicle id="vehWithBusStop" energyConsumed="-0.6950" actualBatteryCapacity="17347.8824" maximumBatteryCapacity="35000.0000" chargingStationId="NULL" energyCharged="0.0000" energyChargedInTransit="0.0000" energyChargedStopped="0.0000" speed="13.1799" acceleration="-1.0909" x="1356.5557" y="212.1288" lane="76to16_0" posOnLane="199.8732" timeStopped="0"/>
        <vehicle id="vehWithCustDepartEnergy" energyConsumed="5.8874" actualBatteryCapacity="9833.1874" maximumBatteryCapacity="35000.0000" chargingStationId="NULL" energyCharged="0.0000" energyChargedInTransit="0.0000" energyChargedStopped="0.0000" speed="8.8196" acceleration="0.1915" x="1387.8061" y="305.3990" lane="16to38_0" posOnLane="59.4084" timeStopped="0"/>
    </timestep>
    <timestep time="27.00">
        <vehicle id="vehWithBusStop" energyConsumed="15.7414" actualBatteryCapacity="17332.1410" maximumBatteryCapacity="35000.0000" chargingStationId="NULL" energyCharged="0.0000" energyChargedInTransit="0.0000" energyChargedStopped="0.0000" speed="14.1438" acceleration="0.9638" x="1351.4809" y="225.3304" lane="76to16_0" posOnLane="214.0170" timeStopped="0"/>
        <vehicle id="vehWithCustDepartEnergy" energyConsumed="5.6370" actualBatteryCapacity="9827.5504" maximumBatteryCapacity="35000.0000" chargingStationId="NULL" energyCharged="0.0000" energyChargedInTransit="0.0000" energyChargedStopped="0.0000" speed="8.9446" acceleration="0.1250" x="1395.9328" y="309.1357" lane="16to38_0" posOnLane="68.3530" timeStopped="0"/>
    </timestep>
    <timestep time="28.00">
        <vehicle id="vehWithBusStop" energyConsumed="4.2308" actualBatteryCapacity="17327.9102" maximumBatteryCapacity="35000.0000" chargingStationId="NULL" energyCharged="0.0000" energyChargedInTransit="0.0000" energyChargedStopped="0.0000" speed="13.6907" acceleration="-0.4530" x="1346.5687" y="238.1091" lane="76to16_0" posOnLane="227.7077" timeStopped="0"/>
        <vehicle id="vehWithCustDepartEnergy" energyConsumed="4.4523" actualBatteryCapacity="9823.0981" maximumBatteryCapacity="35000.0000" chargingStationId="NULL" energyCharged="0.0000" energyChargedInTransit="0.0000" energyChargedStopped="0.0000" speed="8.8491" acceleration="-0.0955" x="1403.9727" y="312.8326" lane="16to38_0" posOnLane="77.2021" timeStopped="0"/>
    </timestep>
    <timestep time="29.00">
        <vehicle id="vehWithBusStop" energyConsumed="5.2337" actualBatteryCapacity="17322.6764" maximumBatteryCapacity="35000.0000" chargingStationId="NULL" energyCharged="0.0000" energyChargedInTransit="0.0000" energyChargedStopped="0.0000" speed="13.3786" acceleration="-0.3121" x="1341.7684" y="250.5965" lane="76to16_0" posOnLane="241.0863" timeStopped="0"/>
        <vehicle id="vehWithCustDepartEnergy" energyConsumed="6.0786" actualBatteryCapacity="9817.0196" maximumBatteryCapacity="35000.0000" chargingStationId="NULL" energyCharged="0.0000" energyChargedInTransit="0.0000" energyChargedStopped="0.0000" speed="9.0472" acceleration="0.1981" x="1412.1926" y="316.6123" lane="16to38_0" posOnLane="86.2493" timeStopped="0"/>
    </timestep>
    <timestep time="30.00">
        <vehicle id="vehWithBusStop" energyConsumed="9.2351" actualBatteryCapacity="17313.4413" maximumBatteryCapacity="35000.0000" chargingStationId="NULL" energyCharged="0.0000" energyChargedInTransit="0.0000" energyChargedStopped="0.0000" speed="13.5653" acceleration="0.1866" x="1336.9012" y="263.2582" lane="76to16_0" posOnLane="254.6516" timeStopped="0"/>
        <vehicle id="vehWithCustDepartEnergy" energyConsumed="0.5292" actualBatteryCapacity="9816.4903" maximumBatteryCapacity="35000.0000" chargingStationId="NULL" energyCharged="0.0000" energyChargedInTransit="0.0000" energyChargedStopped="0.0000" speed="8.2327" acceleration="-0.8145" x="1419.6725" y="320.0516" lane="16to38_0" posOnLane="94.4819" timeStopped="0"/>
    </timestep>
    <timestep time="31.00">
        <vehicle id="vehWithBusStop" energyConsumed="8.5780" actualBatteryCapacity="17304.8633" maximumBatteryCapacity="35000.0000" chargingStationId="NULL" energyCharged="0.0000" energyChargedInTransit="0.0000" energyChargedStopped="0.0000" speed="13.6587" acceleration="0.0935" x="1331.9995" y="276.0084" lane=":16_3_0" posOnLane="0.5004" timeStopped="0"/>
        <vehicle id="vehWithCustDepartEnergy" energyConsumed="4.7513" actualBatteryCapacity="9811.7390" maximumBatteryCapacity="35000.0000" chargingStationId="NULL" energyCharged="0.0000" energyChargedInTransit="0.0000" energyChargedStopped="0.0000" speed="8.2638" acceleration="0.0311" x="1427.1807" y="323.5040" lane="16to38_0" posOnLane="102.7457" timeStopped="0"/>
    </timestep>
    <timestep time="32.00">
        <vehicle id="vehWithBusStop" energyConsumed="4.1565" actualBatteryCapacity="17300.7068" maximumBatteryCapacity="35000.0000" chargingStationId="NULL" energyCharged="0.0000" energyChargedInTransit="0.0000" energyChargedStopped="0.0000" speed="13.2183" acceleration="-0.4405" x="1327.1056" y="288.3225" lane="16to13_0" posOnLane="3.3686" timeStopped="0"/>
        <vehicle id="vehWithCustDepartEnergy" energyConsumed="2.7763" actualBatteryCapacity="9808.9627" maximumBatteryCapacity="35000.0000" chargingStationId="NULL" energyCharged="0.0000" energyChargedInTransit="0.0000" energyChargedStopped="0.0000" speed="7.9150" acceleration="-0.3488" x="1434.3719" y="326.8106" lane="16to38_0" posOnLane="110.6607" timeStopped="0"/>
    </timestep>
    <timestep time="33.00">
        <vehicle id="vehWithBusStop" energyConsumed="14.4861" actualBatteryCapacity="17286.2207" maximumBatteryCapacity="35000.0000" chargingStationId="NULL" energyCharged="0.0000" energyChargedInTransit="0.0000" energyChargedStopped="0.0000" speed="14.0337" acceleration="0.8154" x="1321.8382" y="301.3310" lane="16to13_0" posOnLane="17.4023" timeStopped="0"/>
        <vehicle id="vehWithCustDepartEnergy" energyConsumed="7.6309" actualBatteryCapacity="9801.3318" maximumBatteryCapacity="35000.0000" chargingStationId="NULL" energyCharged="0.0000" energyChargedInTransit="0.0000" energyChargedStopped="0.0000" speed="8.5226" acceleration="0.6076" x="1442.1152" y="330.3711" lane="16to38_0" posOnLane="119.1833" timeStopped="0"/>
    </timestep>
    <timestep time="34.00">
        <vehicle id="vehWithBusStop" energyConsumed="5.0308" actualBatteryCapacity="17281.1899" maximumBatteryCapacity="35000.0000" chargingStationId="NULL" energyCharged="0.0000" energyChargedInTransit="0.0000" energyChargedStopped="0.0000" speed="13.6797" acceleration="-0.3540" x="1316.7037" y="314.0113" lane="16to13_0" posOnLane="31.0821" timeStopped="0"/>
        <vehicle id="vehWithCustDepartEnergy" energyConsumed="7.1183" actualBatteryCapacity="9794.2135" maximumBatteryCapacity="35000.0000" chargingStationId="NULL" energyCharged="0.0000" energyChargedInTransit="0.0000" energyChargedStopped="0.0000" speed="8.9440" acceleration="0.4214" x="1450.2413" y="334.1076" lane="16to38_0" posOnLane="128.1273" timeStopped="0"/>
    </timestep>
    <timestep time="35.00">
        <vehicle id="vehWithBusStop" energyConsumed="3.7785" actualBatteryCapacity="17277.4114" maximumBatteryCapacity="35000.0000" chargingStationId="NULL" energyCharged="0.0000" energyChargedInTransit="0.0000" energyChargedStopped="0.0000" speed="13.1925" acceleration="-0.4873" x="1311.7520" y="326.2399" lane="16to13_0" posOnLane="44.2745" timeStopped="0"/>
        <vehicle id="vehWithCustDepartEnergy" energyConsumed="4.8855" actualBatteryCapacity="9789.3280" maximumBatteryCapacity="35000.0000" chargingStationId="NULL" energyCharged="0.0000" energyChargedInTransit="0.0000" energyChargedStopped="0.0000" speed="8.9245" acceleration="-0.0194" x="1458.3498" y="337.8360" lane="16to38_0" posOnLane="137.0518" timeStopped="0"/>
    </timestep>
    <timestep time="36.00">
        <vehicle id="vehWithBusStop" energyConsumed="10.9519" actualBatteryCapacity="17266.4595" maximumBatteryCapacity="35000.0000" chargingStationId="NULL" energyCharged="0.0000" energyChargedInTransit="0.0000" energyChargedStopped="0.0000" speed="13.5997" acceleration="0.4072" x="1306.6475" y="338.8461" lane="16to13_0" posOnLane="57.8742" timeStopped="0"/>
        <vehicle id="vehWithCustDepartEnergy" energyConsumed="5.2208" actualBatteryCapacity="9784.1072" maximumBatteryCapacity="35000.0000" chargingStationId="NULL" energyCharged="0.0000" energyChargedInTransit="0.0000" energyChargedStopped="0.0000" speed="8.9655" acceleration="0.0410" x="1466.4955" y="341.5815" lane="16to38_0" posOnLane="146.0173" timeStopped="0"/>
    </timestep>
    <timestep time="37.00">
        <vehicle id="vehWithBusStop" energyConsumed="14.7519" actualBatteryCapacity="17251.7076" maximumBatteryCapacity="35000.0000" chargingStationId="NULL" energyCharged="0.0000" energyChargedInTransit="0.0000" energyChargedStopped="0.0000" speed="14.3976" acceleration="0.7979" x="1301.5431" y="352.2112" lane=":13_3_0" posOnLane="9.5819" timeStopped="0"/>
        <vehicle id="vehWithCustDepartEnergy" energyConsumed="4.0682" actualBatteryCapacity="9780.0391" maximumBatteryCapacity="35000.0000" chargingStationId="NULL" energyCharged="0.0000" energyChargedInTransit="0.0000" energyChargedStopped="0.0000" speed="8.8004" acceleration="-0.1651" x="1474.4912" y="345.2580" lane="16to38_0" posOnLane="154.8178" timeStopped="0"/>
    </timestep>
    <timestep time="38.00">
        <vehicle id="vehWithBusStop" energyConsumed="2.4180" actualBatteryCapacity="17249.2896" maximumBatteryCapacity="35000.0000" chargingStationId="NULL" energyCharged="0.0000" energyChargedInTransit="0.0000" energyChargedStopped="0.0000" speed="13.7230" acceleration="-0.6746" x="1297.1196" y="365.1946" lane="13to1_0" posOnLane="12.9349" timeStopped="0"/>
        <vehicle id="vehWithCustDepartEnergy" energyConsumed="0.3505" actualBatteryCapacity="9779.6886" maximumBatteryCapacity="35000.0000" chargingStationId="NULL" energyCharged="0.0000" energyChargedInTransit="0.0000" energyChargedStopped="0.0000" speed="7.9564" acceleration="-0.8440" x="1481.7201" y="348.5820" lane="16to38_0" posOnLane="162.7741" timeStopped="0"/>
    </timestep>
    <timestep time="39.00">
        <vehicle id="vehWithBusStop" energyConsumed="13.3268" actualBatteryCapacity="17235.9628" maximumBatteryCapacity="35000.0000" chargingStationId="NULL" energyCharged="0.0000" energyChargedInTransit="0.0000" energyChargedStopped="0.0000" speed="14.3468" acceleration="0.6237" x="1292.4941" y="378.7757" lane="13to1_0" posOnLane="27.2817" timeStopped="0"/>
        <vehicle id="vehWithCustDepartEnergy" energyConsumed="9.7284" actualBatteryCapacity="9769.9602" maximumBatteryCapacity="35000.0000" chargingStationId="NULL" energyCharged="0.0000" energyChargedInTransit="0.0000" energyChargedStopped="0.0000" speed="8.9302" acceleration="0.9739" x="1489.8337" y="352.3127" lane="16to38_0" posOnLane="171.7044" timeStopped="0"/>
    </timestep>
    <timestep time="40.00">
        <vehicle id="vehWithBusStop" energyConsumed="-1.2852" actualBatteryCapacity="17237.2480" maximumBatteryCapacity="35000.0000" chargingStationId="NULL" energyCharged="0.0000" energyChargedInTransit="0.0000" energyChargedStopped="0.0000" speed="13.1439" acceleration="-1.2029" x="1288.2563" y="391.2181" lane="13to1_0" posOnLane="40.4256" timeStopped="0"/>
        <vehicle id="vehWithCustDepartEnergy" energyConsumed="3.9934" actualBatteryCapacity="9765.9667" maximumBatteryCapacity="35000.0000" chargingStationId="NULL" energyCharged="0.0000" energyChargedInTransit="0.0000" energyChargedStopped="0.0000" speed="8.7549" acceleration="-0.1753" x="1497.7881" y="355.9703" lane="16to38_0" posOnLane="180.4592" timeStopped="0"/>
    </timestep>
    <timestep time="41.00">
        <vehicle id="vehWithBusStop" energyConsumed="14.6976" actualBatteryCapacity="17222.5504" maximumBatteryCapacity="35000.0000" chargingStationId="NULL" energyCharged="0.0000" energyChargedInTransit="0.0000" energyChargedStopped="0.0000" speed="13.9931" acceleration="0.8492" x="1283.7448" y="404.4644" lane="13to1_0" posOnLane="54.4187" timeStopped="0"/>
        <vehicle id="vehWithCustDepartEnergy" energyConsumed="6.5792" actualBatteryCapacity="9759.3875" maximumBatteryCapacity="35000.0000" chargingStationId="NULL" energyCharged="0.0000" energyChargedInTransit="0.0000" energyChargedStopped="0.0000" speed="9.0511" acceleration="0.2962" x="1506.0115" y="359.7515" lane="16to38_0" posOnLane="189.5103" timeStopped="0"/>
    </timestep>
    <timestep time="42.00">
        <vehicle id="vehWithBusStop" energyConsumed="5.5018" actualBatteryCapacity="17217.0486" maximumBatteryCapacity="35000.0000" chargingStationId="NULL" energyCharged="0.0000" energyChargedInTransit="0.0000" energyChargedStopped="0.0000" speed="13.6965" acceleration="-0.2966" x="1278.8933" y="417.4262" lane=":1_3_0" posOnLane="8.9052" timeStopped="0"/>