<?xml version="1.0" encoding="UTF-8"?>

<!-- generated on 03/14/17 11:08:46 by SUMO Version dev-SVN-r23360
<?xml version="1.0" encoding="UTF-8"?>

<configuration xmlns:xsi="http://www.w3.org/2001/XMLSchema-instance" xsi:noNamespaceSchemaLocation="http://sumo.dlr.de/xsd/sumoConfiguration.xsd">

    <input>
        <net-file value="net.net.xml"/>
        <route-files value="input_routes.rou.xml"/>
        <additional-files value="input_additional.add.xml"/>
    </input>

    <output>
        <battery-output value="battery.xml"/>
        <battery-output.precision value="4"/>
    </output>

    <report>
        <xml-validation value="never"/>
        <duration-log.disable value="true"/>
        <no-step-log value="true"/>
    </report>

    <battery>
        <device.battery.probability value="1"/>
    </battery>

</configuration>
-->

<battery-export>
    <timestep time="0.00">
        <vehicle id="vehWithCustDepartEnergy" energyConsumed="0.0000" actualBatteryCapacity="10000.0000" maximumBatteryCapacity="35000.0000" chargingStationId="NULL" energyCharged="0.0000" energyChargedInTransit="0.0000" energyChargedStopped="0.0000" speed="0.6604" acceleration="0.0000" x="1428.2700" y="25.5700" lane="76to16_0" posOnLane="0.0000" timeStopped="0"/>
    </timestep>
    <timestep time="1.00">
        <vehicle id="vehWithCustDepartEnergy" energyConsumed="3.3025" actualBatteryCapacity="9996.6975" maximumBatteryCapacity="35000.0000" chargingStationId="NULL" energyCharged="0.0000" energyChargedInTransit="0.0000" energyChargedStopped="0.0000" speed="2.6215" acceleration="1.9611" x="1427.3294" y="28.0169" lane="76to16_0" posOnLane="2.6215" timeStopped="0"/>
    </timestep>
    <timestep time="2.00">
        <vehicle id="vehWithCustDepartEnergy" energyConsumed="6.1932" actualBatteryCapacity="9990.5043" maximumBatteryCapacity="35000.0000" chargingStationId="NULL" energyCharged="0.0000" energyChargedInTransit="0.0000" energyChargedStopped="0.0000" speed="4.4546" acceleration="1.8331" x="1425.7311" y="32.1747" lane="76to16_0" posOnLane="7.0761" timeStopped="0"/>
    </timestep>
    <timestep time="3.00">
        <vehicle id="vehWithCustDepartEnergy" energyConsumed="12.2740" actualBatteryCapacity="9978.2303" maximumBatteryCapacity="35000.0000" chargingStationId="NULL" energyCharged="0.0000" energyChargedInTransit="0.0000" energyChargedStopped="0.0000" speed="6.9979" acceleration="2.5433" x="1423.2203" y="38.7065" lane="76to16_0" posOnLane="14.0740" timeStopped="0"/>
    </timestep>
    <timestep time="4.00">
        <vehicle id="vehWithCustDepartEnergy" energyConsumed="12.1748" actualBatteryCapacity="9966.0555" maximumBatteryCapacity="35000.0000" chargingStationId="NULL" energyCharged="0.0000" energyChargedInTransit="0.0000" energyChargedStopped="0.0000" speed="8.6317" acceleration="1.6338" x="1420.1232" y="46.7631" lane="76to16_0" posOnLane="22.7056" timeStopped="0"/>
    </timestep>
    <timestep time="5.00">
        <vehicle id="vehWithCustDepartEnergy" energyConsumed="18.9874" actualBatteryCapacity="9947.0681" maximumBatteryCapacity="35000.0000" chargingStationId="NULL" energyCharged="0.0000" energyChargedInTransit="0.0000" energyChargedStopped="0.0000" speed="10.9099" acceleration="2.2782" x="1416.2088" y="56.9463" lane="76to16_0" posOnLane="33.6155" timeStopped="0"/>
    </timestep>
    <timestep time="6.00">
        <vehicle id="vehWithCustDepartEnergy" energyConsumed="20.2317" actualBatteryCapacity="9926.8364" maximumBatteryCapacity="35000.0000" chargingStationId="NULL" energyCharged="0.0000" energyChargedInTransit="0.0000" energyChargedStopped="0.0000" speed="12.8010" acceleration="1.8911" x="1411.6158" y="68.8946" lane="76to16_0" posOnLane="46.4166" timeStopped="0"/>
    </timestep>
    <timestep time="7.00">
        <vehicle id="vehWithCustDepartEnergy" energyConsumed="13.4828" actualBatteryCapacity="9913.3536" maximumBatteryCapacity="35000.0000" chargingStationId="NULL" energyCharged="0.0000" energyChargedInTransit="0.0000" energyChargedStopped="0.0000" speed="13.5522" acceleration="0.7512" x="1406.7532" y="81.5440" lane="76to16_0" posOnLane="59.9688" timeStopped="0"/>
    </timestep>
    <timestep time="8.00">
        <vehicle id="vehWithCustDepartEnergy" energyConsumed="16.1587" actualBatteryCapacity="9897.1949" maximumBatteryCapacity="35000.0000" chargingStationId="NULL" energyCharged="0.0000" energyChargedInTransit="0.0000" energyChargedStopped="0.0000" speed="14.5130" acceleration="0.9608" x="1401.5460" y="95.0903" lane="76to16_0" posOnLane="74.4819" timeStopped="0"/>
    </timestep>
    <timestep time="9.00">
        <vehicle id="vehWithCustDepartEnergy" energyConsumed="0.8002" actualBatteryCapacity="9896.3947" maximumBatteryCapacity="35000.0000" chargingStationId="NULL" energyCharged="0.0000" energyChargedInTransit="0.0000" energyChargedStopped="0.0000" speed="13.6460" acceleration="-0.8671" x="1396.6498" y="107.8273" lane="76to16_0" posOnLane="88.1278" timeStopped="0"/>
    </timestep>
    <timestep time="10.00">
        <vehicle id="vehWithCustDepartEnergy" energyConsumed="10.1422" actualBatteryCapacity="9886.2526" maximumBatteryCapacity="35000.0000" chargingStationId="NULL" energyCharged="0.0000" energyChargedInTransit="0.0000" energyChargedStopped="0.0000" speed="13.9149" acceleration="0.2689" x="1391.6572" y="120.8152" lane="76to16_0" posOnLane="102.0427" timeStopped="0"/>
    </timestep>
    <timestep time="11.00">
        <vehicle id="vehWithBusStop" energyConsumed="0.0000" actualBatteryCapacity="17500.0000" maximumBatteryCapacity="35000.0000" chargingStationId="NULL" energyCharged="0.0000" energyChargedInTransit="0.0000" energyChargedStopped="0.0000" speed="0.8828" acceleration="0.0000" x="1428.2700" y="25.5700" lane="76to16_0" posOnLane="0.0000" timeStopped="0"/>
        <vehicle id="vehWithCustDepartEnergy" energyConsumed="8.1646" actualBatteryCapacity="9878.0880" maximumBatteryCapacity="35000.0000" chargingStationId="NULL" energyCharged="0.0000" energyChargedInTransit="0.0000" energyChargedStopped="0.0000" speed="13.9331" acceleration="0.0183" x="1386.6580" y="133.8202" lane="76to16_0" posOnLane="115.9759" timeStopped="0"/>
    </timestep>
    <timestep time="12.00">
        <vehicle id="vehWithBusStop" energyConsumed="4.1738" actualBatteryCapacity="17495.8262" maximumBatteryCapacity="35000.0000" chargingStationId="NULL" energyCharged="0.0000" energyChargedInTransit="0.0000" energyChargedStopped="0.0000" speed="3.0643" acceleration="2.1814" x="1427.1705" y="28.4301" lane="76to16_0" posOnLane="3.0643" timeStopped="0"/>
        <vehicle id="vehWithCustDepartEnergy" energyConsumed="3.3374" actualBatteryCapacity="9874.7506" maximumBatteryCapacity="35000.0000" chargingStationId="NULL" energyCharged="0.0000" energyChargedInTransit="0.0000" energyChargedStopped="0.0000" speed="13.3826" acceleration="-0.5505" x="1381.8563" y="146.3113" lane="76to16_0" posOnLane="129.3585" timeStopped="0"/>
    </timestep>
    <timestep time="13.00">
        <vehicle id="vehWithBusStop" energyConsumed="9.4402" actualBatteryCapacity="17486.3860" maximumBatteryCapacity="35000.0000" chargingStationId="NULL" energyCharged="0.0000" energyChargedInTransit="0.0000" energyChargedStopped="0.0000" speed="5.6042" acceleration="2.5399" x="1425.1598" y="33.6610" lane="76to16_0" posOnLane="8.6685" timeStopped="0"/>
        <vehicle id="vehWithCustDepartEnergy" energyConsumed="9.7710" actualBatteryCapacity="9864.9796" maximumBatteryCapacity="35000.0000" chargingStationId="NULL" energyCharged="0.0000" energyChargedInTransit="0.0000" energyChargedStopped="0.0000" speed="13.6322" acceleration="0.2496" x="1376.9651" y="159.0354" lane="76to16_0" posOnLane="142.9907" timeStopped="0"/>
    </timestep>
    <timestep time="14.00">
        <vehicle id="vehWithBusStop" energyConsumed="12.8448" actualBatteryCapacity="17473.5413" maximumBatteryCapacity="35000.0000" chargingStationId="NULL" energyCharged="0.0000" energyChargedInTransit="0.0000" energyChargedStopped="0.0000" speed="7.8050" acceleration="2.2008" x="1422.3593" y="40.9461" lane="76to16_0" posOnLane="16.4735" timeStopped="0"/>
        <vehicle id="vehWithCustDepartEnergy" energyConsumed="9.7251" actualBatteryCapacity="9855.2545" maximumBatteryCapacity="35000.0000" chargingStationId="NULL" energyCharged="0.0000" energyChargedInTransit="0.0000" energyChargedStopped="0.0000" speed="13.8540" acceleration="0.2218" x="1371.9943" y="171.9666" lane="76to16_0" posOnLane="156.8447" timeStopped="0"/>
    </timestep>
    <timestep time="15.00">
        <vehicle id="vehWithBusStop" energyConsumed="11.8900" actualBatteryCapacity="17461.6513" maximumBatteryCapacity="35000.0000" chargingStationId="NULL" energyCharged="0.0000" energyChargedInTransit="0.0000" energyChargedStopped="0.0000" speed="9.1843" acceleration="1.3792" x="1419.0640" y="49.5186" lane="76to16_0" posOnLane="25.6577" timeStopped="0"/>
        <vehicle id="vehWithCustDepartEnergy" energyConsumed="6.6250" actualBatteryCapacity="9848.6295" maximumBatteryCapacity="35000.0000" chargingStationId="NULL" energyCharged="0.0000" energyChargedInTransit="0.0000" energyChargedStopped="0.0000" speed="13.6974" acceleration="-0.1567" x="1367.0796" y="184.7515" lane="76to16_0" posOnLane="170.5421" timeStopped="0"/>
    </timestep>
    <timestep time="16.00">
        <vehicle id="vehWithBusStop" energyConsumed="14.2476" actualBatteryCapacity="17447.4037" maximumBatteryCapacity="35000.0000" chargingStationId="NULL" energyCharged="0.0000" energyChargedInTransit="0.0000" energyChargedStopped="0.0000" speed="10.6304" acceleration="1.4461" x="1415.2499" y="59.4408" lane="76to16_0" posOnLane="36.2881" timeStopped="0"/>
        <vehicle id="vehWithCustDepartEnergy" energyConsumed="5.7721" actualBatteryCapacity="9842.8574" maximumBatteryCapacity="35000.0000" chargingStationId="NULL" energyCharged="0.0000" energyChargedInTransit="0.0000" energyChargedStopped="0.0000" speed="13.4493" acceleration="-0.2481" x="1362.2541" y="197.3049" lane="76to16_0" posOnLane="183.9914" timeStopped="0"/>
    </timestep>
    <timestep time="17.00">
        <vehicle id="vehWithBusStop" energyConsumed="19.7640" actualBatteryCapacity="17427.6397" maximumBatteryCapacity="35000.0000" chargingStationId="NULL" energyCharged="0.0000" energyChargedInTransit="0.0000" energyChargedStopped="0.0000" speed="12.5227" acceleration="1.8924" x="1410.7567" y="71.1293" lane="76to16_0" posOnLane="48.8108" timeStopped="0"/>
        <vehicle id="vehWithCustDepartEnergy" energyConsumed="12.4633" actualBatteryCapacity="9830.3941" maximumBatteryCapacity="35000.0000" chargingStationId="NULL" energyCharged="0.0000" energyChargedInTransit="0.0000" energyChargedStopped="0.0000" speed="14.0053" acceleration="0.5560" x="1357.2290" y="210.3773" lane="76to16_0" posOnLane="197.9967" timeStopped="0"/>
    </timestep>
    <timestep time="18.00">
        <vehicle id="vehWithBusStop" energyConsumed="24.7579" actualBatteryCapacity="17402.8818" maximumBatteryCapacity="35000.0000" chargingStationId="NULL" energyCharged="0.0000" energyChargedInTransit="0.0000" energyChargedStopped="0.0000" speed="14.6086" acceleration="2.0858" x="1405.5152" y="84.7648" lane="76to16_0" posOnLane="63.4194" timeStopped="0"/>
        <vehicle id="vehWithCustDepartEnergy" energyConsumed="9.8859" actualBatteryCapacity="9820.5082" maximumBatteryCapacity="35000.0000" chargingStationId="NULL" energyCharged="0.0000" energyChargedInTransit="0.0000" energyChargedStopped="0.0000" speed="14.2132" acceleration="0.2078" x="1352.1293" y="223.6436" lane="76to16_0" posOnLane="212.2099" timeStopped="0"/>
    </timestep>
    <timestep time="19.00">
        <vehicle id="vehWithBusStop" energyConsumed="0.0909" actualBatteryCapacity="17402.7909" maximumBatteryCapacity="35000.0000" chargingStationId="NULL" energyCharged="0.0000" energyChargedInTransit="0.0000" energyChargedStopped="0.0000" speed="13.6569" acceleration="-0.9517" x="1400.6151" y="97.5119" lane="76to16_0" posOnLane="77.0763" timeStopped="0"/>
        <vehicle id="vehWithCustDepartEnergy" energyConsumed="7.4513" actualBatteryCapacity="9813.0568" maximumBatteryCapacity="35000.0000" chargingStationId="NULL" energyCharged="0.0000" energyChargedInTransit="0.0000" energyChargedStopped="0.0000" speed="14.1286" acceleration="-0.0846" x="1347.0600" y="236.8311" lane="76to16_0" posOnLane="226.3384" timeStopped="0"/>
    </timestep>
    <timestep time="20.00">
        <vehicle id="vehWithBusStop" energyConsumed="5.7388" actualBatteryCapacity="17397.0521" maximumBatteryCapacity="35000.0000" chargingStationId="NULL" energyCharged="0.0000" energyChargedInTransit="0.0000" energyChargedStopped="0.0000" speed="13.4071" acceleration="-0.2497" x="1395.8046" y="110.0259" lane="76to16_0" posOnLane="90.4834" timeStopped="0"/>
        <vehicle id="vehWithCustDepartEnergy" energyConsumed="9.7803" actualBatteryCapacity="9803.2765" maximumBatteryCapacity="35000.0000" chargingStationId="NULL" energyCharged="0.0000" energyChargedInTransit="0.0000" energyChargedStopped="0.0000" speed="14.3140" acceleration="0.1855" x="1341.9241" y="250.1916" lane="76to16_0" posOnLane="240.6525" timeStopped="0"/>
    </timestep>
    <timestep time="21.00">
        <vehicle id="vehWithBusStop" energyConsumed="10.6722" actualBatteryCapacity="17386.3799" maximumBatteryCapacity="35000.0000" chargingStationId="NULL" energyCharged="0.0000" energyChargedInTransit="0.0000" energyChargedStopped="0.0000" speed="13.7601" acceleration="0.3530" x="1390.8675" y="122.8694" lane="76to16_0" posOnLane="104.2435" timeStopped="0"/>
        <vehicle id="vehWithCustDepartEnergy" energyConsumed="9.7624" actualBatteryCapacity="9793.5141" maximumBatteryCapacity="35000.0000" chargingStationId="NULL" energyCharged="0.0000" energyChargedInTransit="0.0000" energyChargedStopped="0.0000" speed="14.4821" acceleration="0.1681" x="1336.7279" y="263.7090" lane="76to16_0" posOnLane="255.1346" timeStopped="0"/>
    </timestep>
    <timestep time="22.00">
        <vehicle id="vehWithBusStop" energyConsumed="14.2478" actualBatteryCapacity="17372.1322" maximumBatteryCapacity="35000.0000" chargingStationId="NULL" energyCharged="0.0000" energyChargedInTransit="0.0000" energyChargedStopped="0.0000" speed="14.4825" acceleration="0.7224" x="1385.6712" y="136.3872" lane="76to16_0" posOnLane="118.7260" timeStopped="0"/>
        <vehicle id="vehWithCustDepartEnergy" energyConsumed="-6.5715" actualBatteryCapacity="9800.0856" maximumBatteryCapacity="35000.0000" chargingStationId="NULL" energyCharged="0.0000" energyChargedInTransit="0.0000" energyChargedStopped="0.0000" speed="12.2447" acceleration="-2.2374" x="1332.3345" y="275.1380" lane="76to16_0" posOnLane="267.3793" timeStopped="0"/>
    </timestep>
    <timestep time="23.00">
        <vehicle id="vehWithBusStop" energyConsumed="5.1128" actualBatteryCapacity="17367.0194" maximumBatteryCapacity="35000.0000" chargingStationId="NULL" energyCharged="0.0000" energyChargedInTransit="0.0000" energyChargedStopped="0.0000" speed="14.1160" acceleration="-0.3666" x="1380.6064" y="149.5628" lane="76to16_0" posOnLane="132.8420" timeStopped="0"/>
        <vehicle id="vehWithCustDepartEnergy" energyConsumed="-11.1354" actualBatteryCapacity="9811.2210" maximumBatteryCapacity="35000.0000" chargingStationId="NULL" energyCharged="0.0000" energyChargedInTransit="0.0000" energyChargedStopped="0.0000" speed="8.5454" acceleration="-3.6993" x="1335.7967" y="281.4843" lane="16to38_0" posOnLane="2.1647" timeStopped="0"/>
    </timestep>
    <timestep time="24.00">
        <vehicle id="vehWithBusStop" energyConsumed="1.9778" actualBatteryCapacity="17365.0415" maximumBatteryCapacity="35000.0000" chargingStationId="NULL" energyCharged="0.0000" energyChargedInTransit="0.0000" energyChargedStopped="0.0000" speed="13.3968" acceleration="-0.7192" x="1375.7996" y="162.0672" lane="76to16_0" posOnLane="146.2388" timeStopped="0"/>
        <vehicle id="vehWithCustDepartEnergy" energyConsumed="3.7830" actualBatteryCapacity="9807.4380" maximumBatteryCapacity="35000.0000" chargingStationId="NULL" energyCharged="0.0000" energyChargedInTransit="0.0000" energyChargedStopped="0.0000" speed="8.3651" acceleration="-0.1803" x="1343.3969" y="284.9790" lane="16to38_0" posOnLane="10.5297" timeStopped="0"/>
    </timestep>
    <timestep time="25.00">
        <vehicle id="vehWithBusStop" energyConsumed="16.0001" actualBatteryCapacity="17349.0414" maximumBatteryCapacity="35000.0000" chargingStationId="NULL" energyCharged="0.0000" energyChargedInTransit="0.0000" energyChargedStopped="0.0000" speed="14.3606" acceleration="0.9638" x="1370.6471" y="175.4712" lane="76to16_0" posOnLane="160.5994" timeStopped="0"/>
        <vehicle id="vehWithCustDepartEnergy" energyConsumed="5.3408" actualBatteryCapacity="9802.0972" maximumBatteryCapacity="35000.0000" chargingStationId="NULL" energyCharged="0.0000" energyChargedInTransit="0.0000" energyChargedStopped="0.0000" speed="8.4900" acceleration="0.1250" x="1351.1106" y="288.5258" lane="16to38_0" posOnLane="19.0197" timeStopped="0"/>
    </timestep>
    <timestep time="26.00">
        <vehicle id="vehWithBusStop" energyConsumed="4.3111" actualBatteryCapacity="17344.7302" maximumBatteryCapacity="35000.0000" chargingStationId="NULL" energyCharged="0.0000" energyChargedInTransit="0.0000" energyChargedStopped="0.0000" speed="13.9076" acceleration="-0.4530" x="1365.6570" y="188.4524" lane="76to16_0" posOnLane="174.5070" timeStopped="0"/>
        <vehicle id="vehWithCustDepartEnergy" energyConsumed="4.2141" actualBatteryCapacity="9797.8831" maximumBatteryCapacity="35000.0000" chargingStationId="NULL" energyCharged="0.0000" energyChargedInTransit="0.0000" energyChargedStopped="0.0000" speed="8.3945" acceleration="-0.0955" x="1358.7375" y="292.0328" lane="16to38_0" posOnLane="27.4143" timeStopped="0"/>
    </timestep>
    <timestep time="27.00">
        <vehicle id="vehWithBusStop" energyConsumed="5.3309" actualBatteryCapacity="17339.3993" maximumBatteryCapacity="35000.0000" chargingStationId="NULL" energyCharged="0.0000" energyChargedInTransit="0.0000" energyChargedStopped="0.0000" speed="13.5955" acceleration="-0.3121" x="1360.7790" y="201.1422" lane="76to16_0" posOnLane="188.1025" timeStopped="0"/>
        <vehicle id="vehWithCustDepartEnergy" energyConsumed="5.7629" actualBatteryCapacity="9792.1202" maximumBatteryCapacity="35000.0000" chargingStationId="NULL" energyCharged="0.0000" energyChargedInTransit="0.0000" energyChargedStopped="0.0000" speed="8.5926" acceleration="0.1981" x="1366.5444" y="295.6226" lane="16to38_0" posOnLane="36.0069" timeStopped="0"/>
    </timestep>
    <timestep time="28.00">
        <vehicle id="vehWithBusStop" energyConsumed="9.3951" actualBatteryCapacity="17330.0042" maximumBatteryCapacity="35000.0000" chargingStationId="NULL" energyCharged="0.0000" energyChargedInTransit="0.0000" energyChargedStopped="0.0000" speed="13.7821" acceleration="0.1866" x="1355.8339" y="214.0063" lane="76to16_0" posOnLane="201.8847" timeStopped="0"/>
        <vehicle id="vehWithCustDepartEnergy" energyConsumed="0.4816" actualBatteryCapacity="9791.6386" maximumBatteryCapacity="35000.0000" chargingStationId="NULL" energyCharged="0.0000" energyChargedInTransit="0.0000" energyChargedStopped="0.0000" speed="7.7781" acceleration="-0.8145" x="1373.6113" y="298.8720" lane="16to38_0" posOnLane="43.7850" timeStopped="0"/>
    </timestep>
    <timestep time="29.00">
        <vehicle id="vehWithBusStop" energyConsumed="8.7266" actualBatteryCapacity="17321.2776" maximumBatteryCapacity="35000.0000" chargingStationId="NULL" energyCharged="0.0000" energyChargedInTransit="0.0000" energyChargedStopped="0.0000" speed="13.8756" acceleration="0.0935" x="1350.8554" y="226.9576" lane="76to16_0" posOnLane="215.7603" timeStopped="0"/>
        <vehicle id="vehWithCustDepartEnergy" energyConsumed="4.4821" actualBatteryCapacity="9787.1565" maximumBatteryCapacity="35000.0000" chargingStationId="NULL" energyCharged="0.0000" energyChargedInTransit="0.0000" energyChargedStopped="0.0000" speed="7.8093" acceleration="0.0311" x="1380.7065" y="302.1345" lane="16to38_0" posOnLane="51.5943" timeStopped="0"/>
    </timestep>
    <timestep time="30.00">
        <vehicle id="vehWithBusStop" energyConsumed="4.2372" actualBatteryCapacity="17317.0404" maximumBatteryCapacity="35000.0000" chargingStationId="NULL" energyCharged="0.0000" energyChargedInTransit="0.0000" energyChargedStopped="0.0000" speed="13.4351" acceleration="-0.4405" x="1346.0349" y="239.4977" lane="76to16_0" posOnLane="229.1954" timeStopped="0"/>
        <vehicle id="vehWithCustDepartEnergy" energyConsumed="2.6078" actualBatteryCapacity="9784.5487" maximumBatteryCapacity="35000.0000" chargingStationId="NULL" energyCharged="0.0000" energyChargedInTransit="0.0000" energyChargedStopped="0.0000" speed="7.4604" acceleration="-0.3488" x="1387.4847" y="305.2512" lane="16to38_0" posOnLane="59.0547" timeStopped="0"/>
    </timestep>
    <timestep time="31.00">
        <vehicle id="vehWithBusStop" energyConsumed="14.7260" actualBatteryCapacity="17302.3144" maximumBatteryCapacity="35000.0000" chargingStationId="NULL" energyCharged="0.0000" energyChargedInTransit="0.0000" energyChargedStopped="0.0000" speed="14.2506" acceleration="0.8154" x="1340.9218" y="252.7990" lane="76to16_0" posOnLane="243.4460" timeStopped="0"/>
        <vehicle id="vehWithCustDepartEnergy" energyConsumed="7.2097" actualBatteryCapacity="9777.3390" maximumBatteryCapacity="35000.0000" chargingStationId="NULL" energyCharged="0.0000" energyChargedInTransit="0.0000" energyChargedStopped="0.0000" speed="8.0680" acceleration="0.6076" x="1394.8150" y="308.6218" lane="16to38_0" posOnLane="67.1227" timeStopped="0"/>
    </timestep>
    <timestep time="32.00">
        <vehicle id="vehWithBusStop" energyConsumed="5.1235" actualBatteryCapacity="17297.1909" maximumBatteryCapacity="35000.0000" chargingStationId="NULL" energyCharged="0.0000" energyChargedInTransit="0.0000" energyChargedStopped="0.0000" speed="13.8966" acceleration="-0.3540" x="1335.9357" y="265.7699" lane="76to16_0" posOnLane="257.3426" timeStopped="0"/>
        <vehicle id="vehWithCustDepartEnergy" energyConsumed="6.7444" actualBatteryCapacity="9770.5946" maximumBatteryCapacity="35000.0000" chargingStationId="NULL" energyCharged="0.0000" energyChargedInTransit="0.0000" energyChargedStopped="0.0000" speed="8.4894" acceleration="0.4214" x="1402.5282" y="312.1684" lane="16to38_0" posOnLane="75.6121" timeStopped="0"/>
    </timestep>
    <timestep time="33.00">
        <vehicle id="vehWithBusStop" energyConsumed="3.8532" actualBatteryCapacity="17293.3377" maximumBatteryCapacity="35000.0000" chargingStationId="NULL" energyCharged="0.0000" energyChargedInTransit="0.0000" energyChargedStopped="0.0000" speed="13.4093" acceleration="-0.4873" x="1331.1185" y="278.2943" lane=":16_3_0" posOnLane="2.9420" timeStopped="0"/>
        <vehicle id="vehWithCustDepartEnergy" energyConsumed="4.6272" actualBatteryCapacity="9765.9674" maximumBatteryCapacity="35000.0000" chargingStationId="NULL" energyCharged="0.0000" energyChargedInTransit="0.0000" energyChargedStopped="0.0000" speed="8.4700" acceleration="-0.0194" x="1410.2237" y="315.7069" lane="16to38_0" posOnLane="84.0821" timeStopped="0"/>
    </timestep>
    <timestep time="34.00">
        <vehicle id="vehWithBusStop" energyConsumed="11.1396" actualBatteryCapacity="17282.1981" maximumBatteryCapacity="35000.0000" chargingStationId="NULL" energyCharged="0.0000" energyChargedInTransit="0.0000" energyChargedStopped="0.0000" speed="13.8166" acceleration="0.4072" x="1325.9646" y="291.1404" lane="16to13_0" posOnLane="6.4086" timeStopped="0"/>
        <vehicle id="vehWithCustDepartEnergy" energyConsumed="4.9465" actualBatteryCapacity="9761.0209" maximumBatteryCapacity="35000.0000" chargingStationId="NULL" energyCharged="0.0000" energyChargedInTransit="0.0000" energyChargedStopped="0.0000" speed="8.5110" acceleration="0.0410" x="1417.9564" y="319.2625" lane="16to38_0" posOnLane="92.5931" timeStopped="0"/>
    </timestep>
    <timestep time="35.00">
        <vehicle id="vehWithBusStop" energyConsumed="14.9906" actualBatteryCapacity="17267.2075" maximumBatteryCapacity="35000.0000" chargingStationId="NULL" energyCharged="0.0000" energyChargedInTransit="0.0000" energyChargedStopped="0.0000" speed="14.6145" acceleration="0.7979" x="1320.4792" y="304.6872" lane="16to13_0" posOnLane="21.0231" timeStopped="0"/>
        <vehicle id="vehWithCustDepartEnergy" energyConsumed="3.8485" actualBatteryCapacity="9757.1724" maximumBatteryCapacity="35000.0000" chargingStationId="NULL" energyCharged="0.0000" energyChargedInTransit="0.0000" energyChargedStopped="0.0000" speed="8.3459" acceleration="-0.1651" x="1425.5391" y="322.7492" lane="16to38_0" posOnLane="100.9389" timeStopped="0"/>
    </timestep>
    <timestep time="36.00">
        <vehicle id="vehWithBusStop" energyConsumed="2.4707" actualBatteryCapacity="17264.7368" maximumBatteryCapacity="35000.0000" chargingStationId="NULL" energyCharged="0.0000" energyChargedInTransit="0.0000" energyChargedStopped="0.0000" speed="13.9399" acceleration="-0.6746" x="1315.2470" y="317.6087" lane="16to13_0" posOnLane="34.9630" timeStopped="0"/>
        <vehicle id="vehWithCustDepartEnergy" energyConsumed="0.3115" actualBatteryCapacity="9756.8609" maximumBatteryCapacity="35000.0000" chargingStationId="NULL" energyCharged="0.0000" energyChargedInTransit="0.0000" energyChargedStopped="0.0000" speed="7.5018" acceleration="-0.8440" x="1432.3549" y="325.8832" lane="16to38_0" posOnLane="108.4408" timeStopped="0"/>
    </timestep>
    <timestep time="37.00">
        <vehicle id="vehWithBusStop" energyConsumed="13.5436" actualBatteryCapacity="17251.1932" maximumBatteryCapacity="35000.0000" chargingStationId="NULL" energyCharged="0.0000" energyChargedInTransit="0.0000" energyChargedStopped="0.0000" speed="14.5636" acceleration="0.6237" x="1309.7807" y="331.1083" lane="16to13_0" posOnLane="49.5266" timeStopped="0"/>
        <vehicle id="vehWithCustDepartEnergy" energyConsumed="9.2098" actualBatteryCapacity="9747.6511" maximumBatteryCapacity="35000.0000" chargingStationId="NULL" energyCharged="0.0000" energyChargedInTransit="0.0000" energyChargedStopped="0.0000" speed="8.4757" acceleration="0.9739" x="1440.0556" y="329.4241" lane="16to38_0" posOnLane="116.9164" timeStopped="0"/>
    </timestep>
    <timestep time="38.00">
        <vehicle id="vehWithBusStop" energyConsumed="-1.2947" actualBatteryCapacity="17252.4879" maximumBatteryCapacity="35000.0000" chargingStationId="NULL" energyCharged="0.0000" energyChargedInTransit="0.0000" energyChargedStopped="0.0000" speed="13.3608" acceleration="-1.2029" x="1304.7675" y="343.4916" lane=":13_3_0" posOnLane="0.1974" timeStopped="0"/>
        <vehicle id="vehWithCustDepartEnergy" energyConsumed="3.7766" actualBatteryCapacity="9743.8745" maximumBatteryCapacity="35000.0000" chargingStationId="NULL" energyCharged="0.0000" energyChargedInTransit="0.0000" energyChargedStopped="0.0000" speed="8.3003" acceleration="-0.1753" x="1447.5969" y="332.8917" lane="16to38_0" posOnLane="125.2168" timeStopped="0"/>
    </timestep>
    <timestep time="39.00">
        <vehicle id="vehWithBusStop" energyConsumed="14.9416" actualBatteryCapacity="17237.5463" maximumBatteryCapacity="35000.0000" chargingStationId="NULL" energyCharged="0.0000" energyChargedInTransit="0.0000" energyChargedStopped="0.0000" speed="14.2100" acceleration="0.8492" x="1299.9883" y="356.7719" lane="13to1_0" posOnLane="4.0374" timeStopped="0"/>
        <vehicle id="vehWithCustDepartEnergy" energyConsumed="6.2378" actualBatteryCapacity="9737.6367" maximumBatteryCapacity="35000.0000" chargingStationId="NULL" energyCharged="0.0000" energyChargedInTransit="0.0000" energyChargedStopped="0.0000" speed="8.5965" acceleration="0.2962" x="1455.4074" y="336.4830" lane="16to38_0" posOnLane="133.8133" timeStopped="0"/>
    </timestep>
    <timestep time="40.00">
        <vehicle id="vehWithBusStop" energyConsumed="5.6017" actualBatteryCapacity="17231.9445" maximumBatteryCapacity="35000.0000" chargingStationId="NULL" energyCharged="0.0000" energyChargedInTransit="0.0000" energyChargedStopped="0.0000" speed="13.9134" acceleration="-0.2966" x="1295.5025" y="369.9428" lane="13to1_0" posOnLane="17.9508" timeStopped="0"/>
        <vehicle id="vehWithCustDepartEnergy" energyConsumed="3.9311" actualBatteryCapacity="9733.7056" maximumBatteryCapacity="35000.0000" chargingStationId="NULL" energyCharged="0.0000" energyChargedInTransit="0.0000" energyChargedStopped="0.0000" speed="8.4390" acceleration="-0.1575" x="1463.0748" y="340.0086" lane="16to38_0" posOnLane="142.2523" timeStopped="0"/>
    </timestep>
    <timestep time="41.00">
        <vehicle id="vehWithBusStop" energyConsumed="12.4272" actualBatteryCapacity="17219.5173" maximumBatteryCapacity="35000.0000" chargingStationId="NULL" energyCharged="0.0000" energyChargedInTransit="0.0000" energyChargedStopped="0.0000" speed="14.4158" acceleration="0.5024" x="1290.8546" y="383.5892" lane="13to1_0" posOnLane="32.3666" timeStopped="0"/>
        <vehicle id="vehWithCustDepartEnergy" energyConsumed="5.8512" actualBatteryCapacity="9727.8544" maximumBatteryCapacity="35000.0000" chargingStationId="NULL" energyCharged="0.0000" energyChargedInTransit="0.0000" energyChargedStopped="0.0000" speed="8.6475" acceleration="0.2084" x="1470.9315" y="343.6212" lane="16to38_0" posOnLane="150.8998" timeStopped="0"/>
    </timestep>
    <timestep time="42.00">
        <vehicle id="vehWithBusStop" energyConsumed="9.5013" actualBatteryCapacity="17210.0160" maximumBatteryCapacity="35000.0000" chargingStationId="NULL" energyCharged="0.0000" energyChargedInTransit="0.0000" energyChargedStopped="0.0000" speed="14.5467" acceleration="0.1309" x="1286.1646" y="397.3596" lane="13to1_0" posOnLane="46.9133" timeStopped="0"/>