<?xml version="1.0" encoding="UTF-8"?>

<!-- generated on 2023-06-02 10:44:42 by Eclipse SUMO netedit Version v1_17_0+0654-4d0ab90
<configuration xmlns:xsi="http://www.w3.org/2001/XMLSchema-instance" xsi:noNamespaceSchemaLocation="http://sumo.dlr.de/xsd/neteditConfiguration.xsd">

    <input>
        <sumo-net-file value="net.net.xml"/>
    </input>

    <output>
        <output-file value="net.net.xml"/>
    </output>

    <processing>
        <geometry.min-radius.fix.railways value="false"/>
        <geometry.max-grade.fix value="false"/>
        <offset.disable-normalization value="true"/>
        <lefthand value="0"/>
    </processing>

    <junctions>
        <no-internal-links value="false"/>
        <no-turnarounds value="true"/>
        <junctions.corner-detail value="5"/>
        <junctions.limit-turn-speed value="5.50"/>
        <rectangular-lane-cut value="0"/>
    </junctions>

    <pedestrian>
        <walkingareas value="1"/>
    </pedestrian>

</configuration>
-->

<net version="1.16" junctionCornerDetail="5" walkingareas="true" limitTurnSpeed="5.50" xmlns:xsi="http://www.w3.org/2001/XMLSchema-instance" xsi:noNamespaceSchemaLocation="http://sumo.dlr.de/xsd/net_file.xsd">

    <location netOffset="-1732813.45,-8048871.66" convBoundary="1466.87,1794.16,1611.79,2031.47" origBoundary="15.566128,58.386126,15.600879,58.405234" projParameter="+proj=merc +a=6378137 +b=6378137 +lat_ts=0.0 +lon_0=0.0 +x_0=0.0 +y_0=0 +k=1.0 +units=m +nadgrids=@null +wktext +no_defs"/>

    <type id="highway.path" priority="1" numLanes="1" speed="5.56" allow="pedestrian bicycle" oneway="0" width="2.00"/>
    <type id="highway.service" priority="1" numLanes="1" speed="5.56" allow="pedestrian delivery bicycle" oneway="0"/>

    <edge id=":104178_0" function="internal">
        <lane id=":104178_0_0" index="0" allow="pedestrian delivery bicycle" speed="5.56" length="0.10" shape="1466.87,1940.77 1466.87,1940.77"/>
    </edge>
    <edge id=":29870528_0" function="internal" bidi=":29870528_14">
        <lane id=":29870528_0_0" index="0" allow="pedestrian bicycle" speed="5.56" length="5.79" width="2.00" shape="1599.91,1944.82 1598.30,1944.89 1597.03,1945.39 1596.11,1946.33 1595.53,1947.71"/>
    </edge>
    <edge id=":29870528_1" function="internal" bidi=":29870528_9">
        <lane id=":29870528_1_0" index="0" allow="pedestrian delivery bicycle" speed="5.56" length="6.99" shape="1599.91,1944.82 1592.95,1944.25"/>
    </edge>
    <edge id=":29870528_2" function="internal">
        <lane id=":29870528_2_0" index="0" allow="pedestrian bicycle" speed="5.45" length="6.27" width="2.00" shape="1599.91,1944.82 1597.94,1944.45 1596.60,1943.72 1595.88,1942.63 1595.80,1941.20"/>
    </edge>
    <edge id=":29870528_3" function="internal">
        <lane id=":29870528_3_0" index="0" allow="pedestrian delivery bicycle" speed="5.56" length="0.10" shape="1599.91,1944.82 1599.91,1944.82"/>
    </edge>
    <edge id=":29870528_4" function="internal">
        <lane id=":29870528_4_0" index="0" allow="pedestrian bicycle" speed="4.61" length="4.57" width="2.00" shape="1597.78,1941.47 1597.75,1942.86 1598.09,1943.87 1598.81,1944.53 1599.91,1944.82"/>
    </edge>
    <edge id=":29870528_5" function="internal">
        <lane id=":29870528_5_0" index="0" allow="pedestrian bicycle" speed="5.56" length="6.65" width="2.00" shape="1597.78,1941.47 1597.35,1943.38 1596.79,1944.62 1596.16,1945.84 1595.53,1947.71"/>
    </edge>
    <edge id=":29870528_6" function="internal">
        <lane id=":29870528_6_0" index="0" allow="pedestrian bicycle" speed="5.50" length="6.22" width="2.00" shape="1597.78,1941.47 1597.31,1942.81 1596.35,1943.72 1594.90,1944.20 1592.95,1944.25"/>
    </edge>
    <edge id=":29870528_7" function="internal">
        <lane id=":29870528_7_0" index="0" allow="pedestrian bicycle" speed="2.89" length="2.92" width="2.00" shape="1597.78,1941.47 1597.18,1942.15 1596.65,1942.33 1596.19,1942.01 1595.80,1941.20"/>
    </edge>
    <edge id=":29870528_8" function="internal">
        <lane id=":29870528_8_0" index="0" allow="pedestrian bicycle" speed="5.00" length="4.67" width="2.00" shape="1592.95,1944.25 1594.02,1944.13 1594.86,1943.58 1595.45,1942.60 1595.80,1941.20"/>
    </edge>
    <edge id=":29870528_9" function="internal" bidi=":29870528_1">
        <lane id=":29870528_9_0" index="0" allow="pedestrian delivery bicycle" speed="5.56" length="6.99" shape="1592.95,1944.25 1599.91,1944.82"/>
    </edge>
    <edge id=":29870528_10" function="internal" bidi=":29870528_12">
        <lane id=":29870528_10_0" index="0" allow="pedestrian bicycle" speed="4.85" length="5.14" width="2.00" shape="1592.95,1944.25 1594.38,1944.56 1595.29,1945.24 1595.67,1946.29 1595.53,1947.71"/>
    </edge>
    <edge id=":29870528_11" function="internal">
        <lane id=":29870528_11_0" index="0" allow="pedestrian delivery bicycle" speed="5.56" length="0.10" shape="1592.95,1944.25 1592.95,1944.25"/>
    </edge>
    <edge id=":29870528_12" function="internal" bidi=":29870528_10">
        <lane id=":29870528_12_0" index="0" allow="pedestrian bicycle" speed="4.68" length="5.14" width="2.00" shape="1595.53,1947.71 1595.67,1946.29 1595.29,1945.24 1594.38,1944.56 1592.95,1944.25"/>
    </edge>
    <edge id=":29870528_13" function="internal">
        <lane id=":29870528_13_0" index="0" allow="pedestrian bicycle" speed="5.56" length="6.55" width="2.00" shape="1595.53,1947.71 1595.85,1945.81 1595.79,1944.48 1595.68,1943.13 1595.80,1941.20"/>
    </edge>
    <edge id=":29870528_14" function="internal" bidi=":29870528_0">
        <lane id=":29870528_14_0" index="0" allow="pedestrian bicycle" speed="5.52" length="5.79" width="2.00" shape="1595.53,1947.71 1596.11,1946.33 1597.03,1945.39 1598.30,1944.89 1599.91,1944.82"/>
    </edge>
    <edge id=":29870528_15" function="internal">
        <lane id=":29870528_15_0" index="0" allow="pedestrian bicycle" speed="5.56" length="0.10" width="2.00" shape="1595.53,1947.71 1595.53,1947.71"/>
    </edge>
    <edge id=":29870528_w0" function="walkingarea">
        <lane id=":29870528_w0_0" index="0" allow="pedestrian" speed="2.78" length="5.32" width="3.20" shape="1599.77,1946.42 1600.05,1943.23 1599.25,1942.99 1598.98,1942.76 1598.82,1942.45 1598.75,1942.07 1598.77,1941.61 1594.81,1941.06 1594.51,1941.99 1594.25,1942.31 1593.93,1942.53 1593.53,1942.64 1593.07,1942.65 1592.82,1945.84 1593.95,1946.10 1594.31,1946.33 1594.53,1946.63 1594.62,1947.01 1594.56,1947.46 1596.50,1947.95 1597.06,1946.99 1597.54,1946.68 1598.15,1946.48 1598.90,1946.39"/>
    </edge>
    <edge id=":471041281_0" function="internal">
        <lane id=":471041281_0_0" index="0" allow="pedestrian bicycle" speed="2.89" length="2.92" width="2.00" shape="1609.55,1794.18 1610.03,1793.42 1610.53,1793.16 1611.03,1793.40 1611.55,1794.14"/>
    </edge>
    <edge id=":479153824_0" function="internal">
        <lane id=":479153824_0_0" index="0" allow="pedestrian bicycle" speed="5.56" length="0.10" width="2.00" shape="1572.80,2031.47 1572.80,2031.47"/>
    </edge>
    <edge id=":479153887_0" function="internal">
        <lane id=":479153887_0_0" index="0" allow="pedestrian delivery bicycle" speed="5.56" length="0.10" shape="1611.79,1945.87 1611.79,1945.87"/>
    </edge>

    <edge id="-8151231#0" from="29870528" to="479153887" priority="1" type="highway.service" spreadType="center" bidi="8151231#0">
        <lane id="-8151231#0_0" index="0" allow="pedestrian delivery bicycle" speed="5.56" length="11.92" shape="1599.91,1944.82 1611.79,1945.87">
            <param key="origId" value="8151231"/>
        </lane>
    </edge>
    <edge id="-8151231#1" from="104178" to="29870528" priority="1" type="highway.service" spreadType="center" shape="1466.87,1940.77 1492.69,1940.39 1542.11,1940.32 1596.34,1944.51" bidi="8151231#1">
        <lane id="-8151231#1_0" index="0" allow="pedestrian delivery bicycle" speed="5.56" length="126.23" shape="1466.87,1940.77 1492.69,1940.39 1542.11,1940.32 1592.95,1944.25">
            <param key="origId" value="8151231"/>
        </lane>
    </edge>
    <edge id="-a" from="29870528" to="479153824" priority="1" type="highway.path" spreadType="center" shape="1596.34,1944.51 1585.04,1989.14 1572.80,2031.47" bidi="a">
        <lane id="-a_0" index="0" allow="pedestrian bicycle" speed="5.56" length="86.81" width="2.00" shape="1595.53,1947.71 1585.04,1989.14 1572.80,2031.47">
            <param key="origId" value="25829749"/>
        </lane>
    </edge>
    <edge id="-b" from="29870528" to="471041281" priority="1" type="highway.path" shape="1596.34,1944.51 1602.41,1901.39 1606.69,1871.20 1611.39,1832.46 1610.55,1794.16">
        <lane id="-b_0" index="0" allow="pedestrian bicycle" speed="5.56" length="148.00" width="2.00" shape="1595.80,1941.20 1601.42,1901.25 1605.70,1871.07 1610.39,1832.41 1609.55,1794.18">
            <param key="origId" value="25829749"/>
        </lane>
    </edge>
    <edge id="8151231#0" from="479153887" to="29870528" priority="1" type="highway.service" spreadType="center" bidi="-8151231#0">
        <lane id="8151231#0_0" index="0" allow="pedestrian delivery bicycle" speed="5.56" length="11.92" shape="1611.79,1945.87 1599.91,1944.82">
            <param key="origId" value="8151231"/>
        </lane>
    </edge>
    <edge id="8151231#1" from="29870528" to="104178" priority="1" type="highway.service" spreadType="center" shape="1596.34,1944.51 1542.11,1940.32 1492.69,1940.39 1466.87,1940.77" bidi="-8151231#1">
        <lane id="8151231#1_0" index="0" allow="pedestrian delivery bicycle" speed="5.56" length="126.23" shape="1592.95,1944.25 1542.11,1940.32 1492.69,1940.39 1466.87,1940.77">
            <param key="origId" value="8151231"/>
        </lane>
    </edge>
    <edge id="a" from="479153824" to="29870528" priority="1" type="highway.path" spreadType="center" shape="1572.80,2031.47 1585.04,1989.14 1596.34,1944.51" bidi="-a">
        <lane id="a_0" index="0" allow="pedestrian bicycle" speed="5.56" length="86.81" width="2.00" shape="1572.80,2031.47 1585.04,1989.14 1595.53,1947.71">
            <param key="origId" value="25829749"/>
        </lane>
    </edge>
    <edge id="b" from="471041281" to="29870528" priority="1" type="highway.path" shape="1610.55,1794.16 1611.39,1832.46 1606.69,1871.20 1602.41,1901.39 1596.34,1944.51">
        <lane id="b_0" index="0" allow="pedestrian bicycle" speed="5.56" length="148.33" width="2.00" shape="1611.55,1794.14 1612.39,1832.51 1607.68,1871.33 1603.40,1901.53 1597.78,1941.47">
            <param key="origId" value="25829749"/>
        </lane>
    </edge>

    <junction id="104178" type="right_before_left" x="1466.87" y="1940.77" incLanes="8151231#1_0" intLanes=":104178_0_0" shape="1466.89,1942.37 1466.85,1939.17 1466.89,1942.37 1466.85,1939.17">
        <request index="0" response="0" foes="0" cont="0"/>
    </junction>
    <junction id="29870528" type="right_before_left" x="1596.34" y="1944.51" incLanes="8151231#0_0 b_0 -8151231#1_0 a_0" intLanes=":29870528_0_0 :29870528_1_0 :29870528_2_0 :29870528_3_0 :29870528_4_0 :29870528_5_0 :29870528_6_0 :29870528_7_0 :29870528_8_0 :29870528_9_0 :29870528_10_0 :29870528_11_0 :29870528_12_0 :29870528_13_0 :29870528_14_0 :29870528_15_0" shape="1599.77,1946.42 1600.05,1943.23 1599.25,1942.99 1598.98,1942.76 1598.82,1942.45 1598.75,1942.07 1598.77,1941.61 1594.81,1941.06 1594.51,1941.99 1594.25,1942.31 1593.93,1942.53 1593.53,1942.64 1593.07,1942.65 1592.82,1945.84 1593.95,1946.10 1594.31,1946.33 1594.53,1946.63 1594.62,1947.01 1594.56,1947.46 1596.50,1947.95 1597.06,1946.99 1597.54,1946.68 1598.15,1946.48 1598.90,1946.39">
        <request index="0"  response="0011000000000000" foes="1111011000110000" cont="0"/>
        <request index="1"  response="0011010100000000" foes="0111111101110000" cont="0"/>
        <request index="2"  response="0010000100000000" foes="0110001111110000" cont="0"/>
        <request index="3"  response="0100001000010000" foes="0100001000010000" cont="0"/>
        <request index="4"  response="0000000000000111" foes="0100001000001111" cont="0"/>
        <request index="5"  response="0111000000000111" foes="1111011000000111" cont="0"/>
        <request index="6"  response="0011011100000110" foes="0111111100000110" cont="0"/>
        <request index="7"  response="0010000100000100" foes="0010000100000100" cont="0"/>
        <request index="8"  response="0000000000000000" foes="0011000011000110" cont="0"/>
        <request index="9"  response="0000000000110101" foes="0111000001111111" cont="0"/>
        <request index="10" response="0110000000100001" foes="1111000001100011" cont="0"/>
        <request index="11" response="0001000001000010" foes="0001000001000010" cont="0"/>
        <request index="12" response="0000001100000000" foes="0000111101100011" cont="0"/>
        <request index="13" response="0000001100000000" foes="0000011111100111" cont="0"/>
        <request index="14" response="0000001001010110" foes="0000011001111111" cont="0"/>
        <request index="15" response="0000010000100001" foes="0000010000100001" cont="0"/>
    </junction>
    <junction id="471041281" type="right_before_left" x="1610.55" y="1794.16" incLanes="-b_0" intLanes=":471041281_0_0" shape="1610.55,1794.16 1608.55,1794.20 1610.55,1794.16">
        <request index="0" response="0" foes="0" cont="0"/>
    </junction>
    <junction id="479153824" type="right_before_left" x="1572.80" y="2031.47" incLanes="-a_0" intLanes=":479153824_0_0" shape="1573.76,2031.75 1571.84,2031.19 1573.76,2031.75 1571.84,2031.19">
        <request index="0" response="0" foes="0" cont="0"/>
    </junction>
    <junction id="479153887" type="priority" x="1611.79" y="1945.87" incLanes="-8151231#0_0" intLanes=":479153887_0_0" shape="1611.93,1944.28 1611.65,1947.46 1611.93,1944.28 1611.65,1947.46">
        <request index="0" response="0" foes="0" cont="0"/>
    </junction>

    <connection from="-8151231#0" to="8151231#0" fromLane="0" toLane="0" via=":479153887_0_0" dir="t" state="M"/>
    <connection from="-8151231#1" to="-b" fromLane="0" toLane="0" via=":29870528_8_0" dir="r" state="M"/>
    <connection from="-8151231#1" to="-8151231#0" fromLane="0" toLane="0" via=":29870528_9_0" dir="s" state="="/>
    <connection from="-8151231#1" to="-a" fromLane="0" toLane="0" via=":29870528_10_0" dir="l" state="="/>
    <connection from="-8151231#1" to="8151231#1" fromLane="0" toLane="0" via=":29870528_11_0" dir="t" state="="/>
    <connection from="-a" to="a" fromLane="0" toLane="0" via=":479153824_0_0" dir="t" state="M"/>
    <connection from="-b" to="b" fromLane="0" toLane="0" via=":471041281_0_0" dir="t" state="M"/>
    <connection from="8151231#0" to="-a" fromLane="0" toLane="0" via=":29870528_0_0" dir="r" state="="/>
    <connection from="8151231#0" to="8151231#1" fromLane="0" toLane="0" via=":29870528_1_0" dir="s" state="="/>
    <connection from="8151231#0" to="-b" fromLane="0" toLane="0" via=":29870528_2_0" dir="l" state="="/>
    <connection from="8151231#0" to="-8151231#0" fromLane="0" toLane="0" via=":29870528_3_0" dir="t" state="="/>
    <connection from="8151231#1" to="-8151231#1" fromLane="0" toLane="0" via=":104178_0_0" dir="t" state="M"/>
    <connection from="a" to="8151231#1" fromLane="0" toLane="0" via=":29870528_12_0" dir="r" state="="/>
    <connection from="a" to="-b" fromLane="0" toLane="0" via=":29870528_13_0" dir="s" state="="/>
    <connection from="a" to="-8151231#0" fromLane="0" toLane="0" via=":29870528_14_0" dir="l" state="="/>
    <connection from="a" to="-a" fromLane="0" toLane="0" via=":29870528_15_0" dir="t" state="="/>
    <connection from="b" to="-8151231#0" fromLane="0" toLane="0" via=":29870528_4_0" dir="r" state="="/>
    <connection from="b" to="-a" fromLane="0" toLane="0" via=":29870528_5_0" dir="s" state="="/>
    <connection from="b" to="8151231#1" fromLane="0" toLane="0" via=":29870528_6_0" dir="l" state="="/>
    <connection from="b" to="-b" fromLane="0" toLane="0" via=":29870528_7_0" dir="t" state="="/>

    <connection from=":104178_0" to="-8151231#1" fromLane="0" toLane="0" dir="t" state="M"/>
    <connection from=":29870528_0" to="-a" fromLane="0" toLane="0" dir="r" state="M"/>
    <connection from=":29870528_1" to="8151231#1" fromLane="0" toLane="0" dir="s" state="M"/>
    <connection from=":29870528_2" to="-b" fromLane="0" toLane="0" dir="l" state="M"/>
    <connection from=":29870528_3" to="-8151231#0" fromLane="0" toLane="0" dir="t" state="M"/>
    <connection from=":29870528_4" to="-8151231#0" fromLane="0" toLane="0" dir="r" state="M"/>
    <connection from=":29870528_5" to="-a" fromLane="0" toLane="0" dir="s" state="M"/>
    <connection from=":29870528_6" to="8151231#1" fromLane="0" toLane="0" dir="l" state="M"/>
    <connection from=":29870528_7" to="-b" fromLane="0" toLane="0" dir="t" state="M"/>
    <connection from=":29870528_8" to="-b" fromLane="0" toLane="0" dir="r" state="M"/>
    <connection from=":29870528_9" to="-8151231#0" fromLane="0" toLane="0" dir="s" state="M"/>
    <connection from=":29870528_10" to="-a" fromLane="0" toLane="0" dir="l" state="M"/>
    <connection from=":29870528_11" to="8151231#1" fromLane="0" toLane="0" dir="t" state="M"/>
    <connection from=":29870528_12" to="8151231#1" fromLane="0" toLane="0" dir="r" state="M"/>
    <connection from=":29870528_13" to="-b" fromLane="0" toLane="0" dir="s" state="M"/>
    <connection from=":29870528_14" to="-8151231#0" fromLane="0" toLane="0" dir="l" state="M"/>
    <connection from=":29870528_15" to="-a" fromLane="0" toLane="0" dir="t" state="M"/>
    <connection from=":471041281_0" to="b" fromLane="0" toLane="0" dir="t" state="M"/>
    <connection from=":479153824_0" to="a" fromLane="0" toLane="0" dir="t" state="M"/>
    <connection from=":479153887_0" to="8151231#0" fromLane="0" toLane="0" dir="t" state="M"/>

    <connection from=":29870528_w0" to="-8151231#0" fromLane="0" toLane="0" dir="s" state="M"/>
    <connection from=":29870528_w0" to="-b" fromLane="0" toLane="0" dir="s" state="M"/>
    <connection from=":29870528_w0" to="8151231#1" fromLane="0" toLane="0" dir="s" state="M"/>
    <connection from=":29870528_w0" to="-a" fromLane="0" toLane="0" dir="s" state="M"/>
    <connection from="8151231#0" to=":29870528_w0" fromLane="0" toLane="0" dir="s" state="M"/>
    <connection from="b" to=":29870528_w0" fromLane="0" toLane="0" dir="s" state="M"/>
    <connection from="-8151231#1" to=":29870528_w0" fromLane="0" toLane="0" dir="s" state="M"/>
    <connection from="a" to=":29870528_w0" fromLane="0" toLane="0" dir="s" state="M"/>
</net>
