<?xml version="1.0" encoding="UTF-8"?>

<!-- generated on 2023-08-04 15:38:22 by Eclipse SUMO netedit Version v1_18_0+0766-5d773b7626e
-->

<additional xmlns:xsi="http://www.w3.org/2001/XMLSchema-instance" xsi:noNamespaceSchemaLocation="http://sumo.dlr.de/xsd/additional_file.xsd">
    <!-- JuPedSim elements -->
    <poly id="jps.sink_0" type="jupedsim.sink" color="207,99,246" fill="0" layer="5.00" shape="0.000000,20.000000 10.000000,20.000000 10.000000,10.000000 0.000000,10.000000 0.000000,20.000000"/>
    <poly id="jps.sink_1" type="jupedsim.sink" color="207,99,246" fill="0" layer="5.00" shape="30.000000,20.000000 30.000000,10.000000 20.000000,10.000000 20.000000,20.000000 30.000000,20.000000"/>
    <poly id="jps.sink_2" type="jupedsim.sink" color="207,99,246" fill="0" layer="5.00" shape="50.000000,10.000000 40.000000,10.000000 40.000000,20.000000 50.000000,20.000000 50.000000,10.000000"/>
    <poly id="jps.sink_3" type="jupedsim.sink" color="207,99,246" fill="0" layer="5.00" shape="0.000000,-20.000000 0.000000,-10.000000 10.000000,-10.000000 10.000000,-20.000000 0.000000,-20.000000"/>
    <poly id="jps.sink_4" type="jupedsim.sink" color="207,99,246" fill="0" layer="5.00" shape="20.000000,-10.000000 30.000000,-10.000000 30.000000,-20.000000 30.000000,-20.000000 20.000000,-20.000000"/>
    <poly id="jps.sink_5" type="jupedsim.sink" color="207,99,246" fill="0" layer="5.00" shape="50.000000,-10.000000 50.000000,-20.000000 50.000000,-20.000000 40.000000,-20.000000 40.000000,-10.000000"/>
</additional>
