<?xml version="1.0"?>

<!-- generated on 01/28/11 14:03:30 by SUMO netconvert Version dev-SVN-r9633
<?xml version="1.0" encoding="iso-8859-1"?>

<configuration xmlns:xsi="http://www.w3.org/2001/XMLSchema-instance" xsi:noNamespaceSchemaLocation="http://sumo.sf.net/xsd/netconvertConfiguration.xsd">

    <input>
        <xml-node-files value="test.nod.xml"/>
        <xml-edge-files value="test.edg.xml"/>
        <xml-type-files value="test.typ.xml"/>
    </input>

    <output>
        <output-file value="input_net.net.xml"/>
    </output>

    <report>
        <verbose value="true"/>
    </report>

</configuration>
-->

<net>

   <location netOffset="500.00,50.00" convBoundary="0.00,0.00,1800.00,100.00" origBoundary="-500.00,-50.00,1300.00,50.00" projParameter="!"/>

   <edge id=":1_0" function="internal">
      <lanes>
         <lane id=":1_0_0" depart="0" maxspeed="15.99" length="3.36" shape="498.50,48.35 501.85,48.02"/>
      </lanes>
   </edge>
   <edge id=":1_1" function="internal">
      <lanes>
         <lane id=":1_1_0" depart="0" maxspeed="15.99" length="3.25" shape="498.50,48.35 501.75,48.62"/>
      </lanes>
   </edge>
   <edge id=":2_0" function="internal">
      <lanes>
         <lane id=":2_0_0" depart="0" maxspeed="15.99" length="3.25" shape="1498.53,48.08 1501.77,48.35"/>
      </lanes>
   </edge>
   <edge id=":2_1" function="internal">
      <lanes>
         <lane id=":2_1_0" depart="0" maxspeed="15.99" length="3.34" shape="1498.44,48.59 1501.77,48.35"/>
      </lanes>
   </edge>

   <edge id="1to21" from="1" to="2" priority="-1" type="a" function="normal">
      <lanes>
         <lane id="1to21_0" depart="1" maxspeed="15.99" length="1004.90" shape="501.85,48.02 799.73,-1.63 1200.00,-1.65 1498.53,48.08"/>
      </lanes>
   </edge>
   <edge id="1to22" from="1" to="2" priority="-1" type="b" function="normal">
      <lanes>
         <lane id="1to22_0" depart="1" maxspeed="15.99" length="1004.93" shape="501.75,48.62 800.27,98.37 1200.00,98.35 1498.44,48.59"/>
      </lanes>
   </edge>
   <edge id="91to1" from="91" to="1" priority="-1" type="c" function="normal">
      <lanes>
         <lane id="91to1_0" depart="1" maxspeed="15.99" length="498.50" shape="0.00,48.35 498.50,48.35"/>
      </lanes>
   </edge>
   <edge id="out" from="2" to="3" priority="-1" type="c" function="normal">
      <lanes>
         <lane id="out_0" depart="1" maxspeed="15.99" length="298.23" shape="1501.77,48.35 1800.00,48.35"/>
      </lanes>
   </edge>

   <row-logic id="1" requestSize="2" laneNumber="1">
      <logic>
         <logicitem request="0" response="00" foes="00" cont="0"/>
         <logicitem request="1" response="00" foes="00" cont="0"/>
      </logic>
   </row-logic>
   <row-logic id="2" requestSize="2" laneNumber="2">
      <logic>
         <logicitem request="0" response="00" foes="10" cont="0"/>
         <logicitem request="1" response="01" foes="01" cont="0"/>
      </logic>
   </row-logic>

   <tl-logic id="2" type="static" programID="0" offset="0">
      <phase duration="31" state="Gr"/>
      <phase duration="5" state="yr"/>
      <phase duration="31" state="rG"/>
      <phase duration="5" state="ry"/>
   </tl-logic>

   <junction id="1" type="priority" x="500.00" y="50.00" incLanes="91to1_0" intLanes=":1_0_0 :1_1_0" shape="501.48,50.20 502.01,47.04 498.50,46.75 498.50,49.95"/>
   <junction id="2" type="priority" x="1500.00" y="50.00" incLanes="1to21_0 1to22_0" intLanes=":2_0_0 :2_1_0" shape="1501.77,49.95 1501.77,46.75 1498.79,46.50 1498.26,49.66"/>
   <junction id="3" type="DEAD_END" x="1800.00" y="50.00" incLanes="out_0" intLanes="" shape="1800.00,46.75 1800.00,49.95"/>
   <junction id="91" type="DEAD_END" x="0.00" y="50.00" incLanes="" intLanes="" shape="0.00,49.95 0.00,46.75"/>

   <succ edge="1to21" lane="1to21_0" junction="2">
      <succlane lane="out_0" via=":2_0_0" tl="2" linkno="0" yield="1" dir="s" state="t"/>
   </succ>
   <succ edge="1to22" lane="1to22_0" junction="2">
      <succlane lane="out_0" via=":2_1_0" tl="2" linkno="1" yield="1" dir="s" state="t"/>
   </succ>
   <succ edge="91to1" lane="91to1_0" junction="1">
      <succlane lane="1to21_0" via=":1_0_0" yield="0" dir="s" state="M"/>
      <succlane lane="1to22_0" via=":1_1_0" yield="0" dir="s" state="M"/>
   </succ>
   <succ edge="out" lane="out_0" junction="3">
      <succlane lane="SUMO_NO_DESTINATION" yield="1" dir="s" state="O"/>
   </succ>

   <succ edge=":1_0" lane=":1_0_0" junction="1">
      <succlane lane="1to21_0" tl="" linkno="" yield="0" dir="s" state="M"/>
   </succ>
   <succ edge=":1_1" lane=":1_1_0" junction="1">
      <succlane lane="1to22_0" tl="" linkno="" yield="0" dir="s" state="M"/>
   </succ>
   <succ edge=":2_0" lane=":2_0_0" junction="2">
      <succlane lane="out_0" tl="" linkno="" yield="0" dir="s" state="M"/>
   </succ>
   <succ edge=":2_1" lane=":2_1_0" junction="2">
      <succlane lane="out_0" tl="" linkno="" yield="0" dir="s" state="M"/>
   </succ>

</net>
