<?xml version="1.0" encoding="UTF-8"?>

<!-- generated on Wed Apr 20 15:44:38 2016 by SUMO netconvert Version dev-SVN-r20491
<?xml version="1.0" encoding="UTF-8"?>

<configuration xmlns:xsi="http://www.w3.org/2001/XMLSchema-instance" xsi:noNamespaceSchemaLocation="http://sumo.dlr.de/xsd/netconvertConfiguration.xsd">

    <input>
        <sumo-net-file value="input_net.net.xml"/>
    </input>

    <output>
        <plain-output-prefix value="plain"/>
        <output.street-names value="true"/>
    </output>

    <processing>
        <no-turnarounds value="true"/>
        <offset.disable-normalization value="true"/>
        <lefthand value="false"/>
        <junctions.corner-detail value="0"/>
        <crossings.guess value="true"/>
    </processing>

    <report>
        <xml-validation value="never"/>
    </report>

</configuration>
-->

<nodes version="0.27" xmlns:xsi="http://www.w3.org/2001/XMLSchema-instance" xsi:noNamespaceSchemaLocation="http://sumo.dlr.de/xsd/nodes_file.xsd">
    <location netOffset="-603769.29,-5791964.70" convBoundary="576.67,320.65,600.43,435.92" origBoundary="10.517836,52.268016,10.549189,52.288860" projParameter="+proj=utm +zone=32 +ellps=WGS84 +datum=WGS84 +units=m +no_defs"/>

    <node id="34677686" x="600.43" y="320.65" type="dead_end"/>
    <node id="34677691" x="588.73" y="376.99" type="priority"/>
    <node id="34677698" x="576.67" y="435.92" type="unregulated"/>
</nodes>
