<?xml version="1.0" encoding="UTF-8"?>

<!-- generated on 2022-01-18 13:48:41 by Eclipse SUMO netedit Version v1_11_0+1211-1b1dce94384
-->

<additional xmlns:xsi="http://www.w3.org/2001/XMLSchema-instance" xsi:noNamespaceSchemaLocation="http://sumo.dlr.de/xsd/additional_file.xsd">
    <vaporizer id="1" name="%%$$$" begin="5.00" end="15.00"/>
    <vaporizer id="2" name="customName" begin="5.00" end="15.00"/>
</additional>
