<?xml version="1.0" encoding="UTF-8"?>

<!-- generated on 08.06.2020 08:31:31 by Eclipse SUMO netedit Version v1_6_0+0558-287ab5e744
<configuration xmlns:xsi="http://www.w3.org/2001/XMLSchema-instance" xsi:noNamespaceSchemaLocation="http://sumo.dlr.de/xsd/netconvertConfiguration.xsd">

    <input>
        <sumo-net-file value="net.net.xml"/>
    </input>

    <output>
        <output-file value="C:\Users\behr_mi\Projekte\sumo\repos\sumo\tests\tools\route\cut_routes\pt\input_net.net.xml"/>
    </output>

    <processing>
        <geometry.min-radius.fix.railways value="false"/>
        <geometry.max-grade.fix value="false"/>
        <offset.disable-normalization value="true"/>
        <lefthand value="false"/>
    </processing>

    <junctions>
        <no-turnarounds value="true"/>
        <junctions.corner-detail value="0"/>
        <junctions.limit-turn-speed value="-1"/>
        <rectangular-lane-cut value="false"/>
    </junctions>

    <pedestrian>
        <walkingareas value="false"/>
    </pedestrian>

    <report>
        <aggregate-warnings value="5"/>
    </report>

</configuration>
-->

<net version="1.6" xmlns:xsi="http://www.w3.org/2001/XMLSchema-instance" xsi:noNamespaceSchemaLocation="http://sumo.dlr.de/xsd/net_file.xsd">

    <location netOffset="-389060.19,-5815081.48" convBoundary="6.36,0.00,1267.18,1579.73" origBoundary="13.366597,52.474606,13.384884,52.488946" projParameter="+proj=utm +zone=33 +ellps=WGS84 +datum=WGS84 +units=m +no_defs"/>

    <type id="cycleway.lane" bikeLaneWidth="1.00"/>
    <type id="cycleway.lane|highway.secondary" priority="7" numLanes="2" speed="27.78" oneway="0" bikeLaneWidth="1.00"/>
    <type id="cycleway.opposite_lane" bikeLaneWidth="1.00"/>
    <type id="cycleway.opposite_track" bikeLaneWidth="1.50"/>
    <type id="cycleway.track" bikeLaneWidth="1.50"/>
    <type id="cycleway.track|highway.secondary" priority="7" numLanes="2" speed="27.78" oneway="0" bikeLaneWidth="1.50"/>
    <type id="highway.bridleway" priority="1" numLanes="1" speed="2.78" allow="pedestrian" oneway="1"/>
    <type id="highway.cycleway" priority="1" numLanes="1" speed="5.56" allow="bicycle" oneway="0"/>
    <type id="highway.footway" priority="1" numLanes="1" speed="8.33" allow="pedestrian" oneway="1"/>
    <type id="highway.living_street" priority="3" numLanes="1" speed="2.78" disallow="tram rail_urban rail rail_electric ship" oneway="0"/>
    <type id="highway.motorway" priority="13" numLanes="2" speed="44.44" allow="private emergency authority army vip passenger hov taxi bus coach delivery truck trailer motorcycle evehicle custom1 custom2" oneway="1"/>
    <type id="highway.motorway_link" priority="12" numLanes="1" speed="22.22" allow="private emergency authority army vip passenger hov taxi bus coach delivery truck trailer motorcycle evehicle custom1 custom2" oneway="1"/>
    <type id="highway.path" priority="1" numLanes="1" speed="2.78" allow="pedestrian bicycle" oneway="1"/>
    <type id="highway.pedestrian" priority="1" numLanes="1" speed="8.33" allow="pedestrian" oneway="1"/>
    <type id="highway.primary" priority="9" numLanes="2" speed="27.78" disallow="tram rail_urban rail rail_electric ship" oneway="0"/>
    <type id="highway.primary_link" priority="8" numLanes="1" speed="22.22" disallow="tram rail_urban rail rail_electric ship" oneway="0"/>
    <type id="highway.residential" priority="4" numLanes="1" speed="13.89" disallow="tram rail_urban rail rail_electric ship" oneway="0"/>
    <type id="highway.secondary" priority="7" numLanes="2" speed="27.78" disallow="tram rail_urban rail rail_electric ship" oneway="0"/>
    <type id="highway.secondary_link" priority="6" numLanes="1" speed="22.22" disallow="tram rail_urban rail rail_electric ship" oneway="0"/>
    <type id="highway.service" priority="2" numLanes="1" speed="5.56" allow="pedestrian delivery bicycle" oneway="0"/>
    <type id="highway.services" priority="1" numLanes="1" speed="8.33" disallow="tram rail_urban rail rail_electric ship" oneway="0"/>
    <type id="highway.stairs" priority="1" numLanes="1" speed="1.39" allow="pedestrian" oneway="1"/>
    <type id="highway.step" priority="1" numLanes="1" speed="1.39" allow="pedestrian" oneway="1"/>
    <type id="highway.steps" priority="1" numLanes="1" speed="1.39" allow="pedestrian" oneway="1"/>
    <type id="highway.tertiary" priority="6" numLanes="1" speed="22.22" disallow="tram rail_urban rail rail_electric ship" oneway="0"/>
    <type id="highway.tertiary_link" priority="5" numLanes="1" speed="22.22" disallow="tram rail_urban rail rail_electric ship" oneway="0"/>
    <type id="highway.track" priority="1" numLanes="1" speed="5.56" disallow="tram rail_urban rail rail_electric ship" oneway="0"/>
    <type id="highway.trunk" priority="11" numLanes="2" speed="27.78" disallow="pedestrian bicycle tram rail_urban rail rail_electric ship" oneway="0"/>
    <type id="highway.trunk_link" priority="10" numLanes="1" speed="22.22" disallow="pedestrian bicycle tram rail_urban rail rail_electric ship" oneway="0"/>
    <type id="highway.unclassified" priority="5" numLanes="1" speed="13.89" disallow="tram rail_urban rail rail_electric ship" oneway="0"/>
    <type id="highway.unsurfaced" priority="1" numLanes="1" speed="8.33" disallow="tram rail_urban rail rail_electric ship" oneway="0"/>

    <edge id=":1388312343_0" function="internal">
        <lane id=":1388312343_0_0" index="0" allow="pedestrian delivery bicycle" speed="5.56" length="5.00" shape="465.55,1179.63 465.33,1178.28 464.72,1177.32 463.74,1176.76 462.38,1176.60"/>
    </edge>
    <edge id=":1388312343_1" function="internal">
        <lane id=":1388312343_1_0" index="0" allow="pedestrian delivery bicycle" speed="5.56" length="9.39" shape="465.55,1179.63 465.35,1170.24"/>
    </edge>
    <edge id=":1388312343_2" function="internal">
        <lane id=":1388312343_2_0" index="0" allow="pedestrian delivery bicycle" speed="5.56" length="4.67" shape="465.55,1179.63 466.32,1178.41 467.11,1177.99 467.92,1178.37 468.75,1179.55"/>
    </edge>
    <edge id=":1388312343_3" function="internal">
        <lane id=":1388312343_3_0" index="0" allow="pedestrian delivery bicycle" speed="5.56" length="9.38" shape="468.55,1170.17 468.75,1179.55"/>
    </edge>
    <edge id=":1388312343_4" function="internal">
        <lane id=":1388312343_4_0" index="0" allow="pedestrian delivery bicycle" speed="5.56" length="10.15" shape="468.55,1170.17 468.21,1172.93 467.07,1174.92 465.12,1176.14 462.38,1176.60"/>
    </edge>
    <edge id=":1388312343_5" function="internal">
        <lane id=":1388312343_5_0" index="0" allow="pedestrian delivery bicycle" speed="5.56" length="4.67" shape="468.55,1170.17 467.77,1171.39 466.98,1171.81 466.17,1171.42 465.35,1170.24"/>
    </edge>
    <edge id=":1388312343_6" function="internal">
        <lane id=":1388312343_6_0" index="0" allow="pedestrian delivery bicycle" speed="5.56" length="5.01" shape="462.30,1173.40 463.66,1173.18 464.62,1172.57 465.18,1171.59 465.35,1170.24"/>
    </edge>
    <edge id=":1388312343_7" function="internal">
        <lane id=":1388312343_7_0" index="0" allow="pedestrian delivery bicycle" speed="5.56" length="10.16" shape="462.30,1173.40 465.07,1173.73 467.06,1174.86 468.29,1176.80 468.75,1179.55"/>
    </edge>
    <edge id=":1388312343_8" function="internal">
        <lane id=":1388312343_8_0" index="0" allow="pedestrian delivery bicycle" speed="5.56" length="4.67" shape="462.30,1173.40 463.52,1174.17 463.94,1174.96 463.56,1175.77 462.38,1176.60"/>
    </edge>
    <edge id=":1388312344_0" function="internal">
        <lane id=":1388312344_0_0" index="0" allow="pedestrian delivery bicycle" speed="5.56" length="5.00" shape="448.93,1180.03 448.71,1178.68 448.10,1177.72 447.12,1177.16 445.76,1177.00"/>
    </edge>
    <edge id=":1388312344_1" function="internal">
        <lane id=":1388312344_1_0" index="0" allow="pedestrian delivery bicycle" speed="5.56" length="10.16" shape="448.93,1180.03 449.26,1177.26 450.39,1175.27 452.33,1174.04 455.08,1173.58"/>
    </edge>
    <edge id=":1388312344_2" function="internal">
        <lane id=":1388312344_2_0" index="0" allow="pedestrian delivery bicycle" speed="5.56" length="4.67" shape="448.93,1180.03 449.70,1178.81 450.49,1178.39 451.30,1178.77 452.13,1179.95"/>
    </edge>
    <edge id=":1388312344_3" function="internal">
        <lane id=":1388312344_3_0" index="0" allow="pedestrian delivery bicycle" speed="5.56" length="5.00" shape="455.16,1176.78 453.81,1177.00 452.85,1177.61 452.29,1178.59 452.13,1179.95"/>
    </edge>
    <edge id=":1388312344_4" function="internal">
        <lane id=":1388312344_4_0" index="0" allow="pedestrian delivery bicycle" speed="5.56" length="9.40" shape="455.16,1176.78 445.76,1177.00"/>
    </edge>
    <edge id=":1388312344_5" function="internal">
        <lane id=":1388312344_5_0" index="0" allow="pedestrian delivery bicycle" speed="5.56" length="4.67" shape="455.16,1176.78 453.94,1176.01 453.52,1175.22 453.90,1174.41 455.08,1173.58"/>
    </edge>
    <edge id=":1388312344_6" function="internal">
        <lane id=":1388312344_6_0" index="0" allow="pedestrian delivery bicycle" speed="5.56" length="9.40" shape="445.68,1173.80 455.08,1173.58"/>
    </edge>
    <edge id=":1388312344_7" function="internal">
        <lane id=":1388312344_7_0" index="0" allow="pedestrian delivery bicycle" speed="5.56" length="10.16" shape="445.68,1173.80 448.45,1174.13 450.44,1175.26 451.67,1177.20 452.13,1179.95"/>
    </edge>
    <edge id=":1388312344_8" function="internal">
        <lane id=":1388312344_8_0" index="0" allow="pedestrian delivery bicycle" speed="5.56" length="4.67" shape="445.68,1173.80 446.90,1174.57 447.32,1175.36 446.94,1176.17 445.76,1177.00"/>
    </edge>
    <edge id=":1388312349_0" function="internal">
        <lane id=":1388312349_0_0" index="0" allow="pedestrian delivery bicycle" speed="5.56" length="4.80" shape="432.72,1217.84 432.50,1216.60 431.89,1215.72 430.91,1215.21 429.55,1215.06"/>
    </edge>
    <edge id=":1388312349_1" function="internal">
        <lane id=":1388312349_1_0" index="0" allow="pedestrian delivery bicycle" speed="5.56" length="9.15" shape="432.72,1217.84 432.50,1208.69"/>
    </edge>
    <edge id=":1388312349_2" function="internal">
        <lane id=":1388312349_2_0" index="0" allow="pedestrian delivery bicycle" speed="5.56" length="4.73" shape="432.72,1217.84 433.31,1216.50 434.03,1215.96 434.90,1216.22 435.91,1217.27"/>
    </edge>
    <edge id=":1388312349_3" function="internal">
        <lane id=":1388312349_3_0" index="0" allow="pedestrian delivery bicycle" speed="5.56" length="8.66" shape="435.70,1208.62 435.91,1217.27"/>
    </edge>
    <edge id=":1388312349_4" function="internal">
        <lane id=":1388312349_4_0" index="0" allow="pedestrian delivery bicycle" speed="5.56" length="10.16" shape="435.70,1208.62 435.37,1211.38 434.24,1213.38 432.30,1214.60 429.55,1215.06"/>
    </edge>
    <edge id=":1388312349_5" function="internal">
        <lane id=":1388312349_5_0" index="0" allow="pedestrian delivery bicycle" speed="5.56" length="4.67" shape="435.70,1208.62 434.93,1209.83 434.14,1210.25 433.33,1209.87 432.50,1208.69"/>
    </edge>
    <edge id=":1388312349_6" function="internal">
        <lane id=":1388312349_6_0" index="0" allow="pedestrian delivery bicycle" speed="5.56" length="5.00" shape="429.47,1211.87 430.83,1211.64 431.78,1211.03 432.34,1210.05 432.50,1208.69"/>
    </edge>
    <edge id=":1388312349_7" function="internal">
        <lane id=":1388312349_7_0" index="0" allow="pedestrian delivery bicycle" speed="5.56" length="9.57" shape="429.47,1211.87 432.24,1212.15 434.23,1213.14 435.45,1214.85 435.91,1217.27"/>
    </edge>
    <edge id=":1388312349_8" function="internal">
        <lane id=":1388312349_8_0" index="0" allow="pedestrian delivery bicycle" speed="5.56" length="4.67" shape="429.47,1211.87 430.69,1212.64 431.11,1213.43 430.73,1214.24 429.55,1215.06"/>
    </edge>
    <edge id=":1388312350_0" function="internal">
        <lane id=":1388312350_0_0" index="0" allow="pedestrian delivery bicycle" speed="5.56" length="4.67" shape="412.56,1215.48 411.34,1214.71 410.92,1213.92 411.30,1213.11 412.48,1212.28"/>
    </edge>
    <edge id=":1388312353_0" function="internal">
        <lane id=":1388312353_0_0" index="0" allow="pedestrian delivery bicycle" speed="5.56" length="9.40" shape="456.21,1221.16 446.82,1221.38"/>
    </edge>
    <edge id=":1388312353_1" function="internal">
        <lane id=":1388312353_1_0" index="0" allow="pedestrian delivery bicycle" speed="5.56" length="10.16" shape="456.21,1221.16 453.45,1220.83 451.46,1219.70 450.23,1217.76 449.77,1215.01"/>
    </edge>
    <edge id=":1388312353_2" function="internal">
        <lane id=":1388312353_2_0" index="0" allow="pedestrian delivery bicycle" speed="5.56" length="4.67" shape="456.21,1221.16 455.00,1220.39 454.58,1219.60 454.96,1218.79 456.14,1217.96"/>
    </edge>
    <edge id=":1388312353_3" function="internal">
        <lane id=":1388312353_3_0" index="0" allow="pedestrian delivery bicycle" speed="5.56" length="5.00" shape="452.97,1214.93 453.19,1216.28 453.80,1217.24 454.78,1217.80 456.14,1217.96"/>
    </edge>
    <edge id=":1388312353_4" function="internal">
        <lane id=":1388312353_4_0" index="0" allow="pedestrian delivery bicycle" speed="5.56" length="10.16" shape="452.97,1214.93 452.64,1217.70 451.51,1219.69 449.57,1220.92 446.82,1221.38"/>
    </edge>
    <edge id=":1388312353_5" function="internal">
        <lane id=":1388312353_5_0" index="0" allow="pedestrian delivery bicycle" speed="5.56" length="4.67" shape="452.97,1214.93 452.20,1216.15 451.41,1216.57 450.60,1216.19 449.77,1215.01"/>
    </edge>
    <edge id=":1388312353_6" function="internal">
        <lane id=":1388312353_6_0" index="0" allow="pedestrian delivery bicycle" speed="5.56" length="5.00" shape="446.74,1218.18 448.09,1217.96 449.05,1217.35 449.61,1216.37 449.77,1215.01"/>
    </edge>
    <edge id=":1388312353_7" function="internal">
        <lane id=":1388312353_7_0" index="0" allow="pedestrian delivery bicycle" speed="5.56" length="9.40" shape="446.74,1218.18 456.14,1217.96"/>
    </edge>
    <edge id=":1388312353_8" function="internal">
        <lane id=":1388312353_8_0" index="0" allow="pedestrian delivery bicycle" speed="5.56" length="4.67" shape="446.74,1218.18 447.96,1218.95 448.38,1219.74 448.00,1220.55 446.82,1221.38"/>
    </edge>
    <edge id=":1769087053_0" function="internal">
        <lane id=":1769087053_0_0" index="0" allow="bicycle" speed="13.89" length="0.33" width="1.00" shape="623.69,1151.73 623.33,1151.73"/>
        <lane id=":1769087053_0_1" index="1" disallow="bicycle rail_fast" speed="13.89" length="0.33" shape="623.64,1149.63 623.33,1149.63"/>
    </edge>
    <edge id=":1769087053_2" function="internal">
        <lane id=":1769087053_2_0" index="0" disallow="bicycle rail_fast" speed="13.89" length="2.34" shape="623.64,1149.63 622.42,1148.86 622.00,1148.07"/>
    </edge>
    <edge id=":1769087053_6" function="internal">
        <lane id=":1769087053_6_0" index="0" disallow="bicycle rail_fast" speed="13.89" length="2.34" shape="622.00,1148.07 622.38,1147.26 623.56,1146.43"/>
    </edge>
    <edge id=":1769087053_3" function="internal">
        <lane id=":1769087053_3_0" index="0" allow="bicycle" speed="13.89" length="0.21" width="1.00" shape="623.32,1144.33 623.51,1144.33"/>
        <lane id=":1769087053_3_1" index="1" disallow="bicycle rail_fast" speed="13.89" length="0.21" shape="623.32,1146.43 623.56,1146.43"/>
    </edge>
    <edge id=":1769087053_5" function="internal">
        <lane id=":1769087053_5_0" index="0" disallow="bicycle rail_fast" speed="13.89" length="2.34" shape="623.32,1146.43 624.52,1147.23 624.92,1148.03"/>
    </edge>
    <edge id=":1769087053_7" function="internal">
        <lane id=":1769087053_7_0" index="0" disallow="bicycle rail_fast" speed="13.89" length="2.34" shape="624.92,1148.03 624.52,1148.83 623.33,1149.63"/>
    </edge>
    <edge id=":2029039208_0" function="internal">
        <lane id=":2029039208_0_0" index="0" disallow="tram rail_urban rail rail_electric rail_fast ship" speed="13.89" length="8.05" shape="350.94,1164.79 342.86,1165.12"/>
        <lane id=":2029039208_0_1" index="1" disallow="tram rail_urban rail rail_electric rail_fast ship" speed="13.89" length="8.05" shape="350.79,1161.60 342.75,1161.92"/>
        <lane id=":2029039208_0_2" index="2" disallow="tram rail_urban rail rail_electric rail_fast ship" speed="13.89" length="8.05" shape="350.64,1158.40 342.65,1158.72"/>
    </edge>
    <edge id=":2029039208_3" function="internal">
        <lane id=":2029039208_3_0" index="0" disallow="tram rail_urban rail rail_electric rail_fast ship" speed="13.89" length="2.34" shape="350.64,1158.40 349.41,1157.66 348.97,1156.88"/>
    </edge>
    <edge id=":2029039208_8" function="internal">
        <lane id=":2029039208_8_0" index="0" disallow="tram rail_urban rail rail_electric rail_fast ship" speed="13.89" length="2.34" shape="348.97,1156.88 349.33,1156.06 350.49,1155.20"/>
    </edge>
    <edge id=":2029039208_4" function="internal">
        <lane id=":2029039208_4_0" index="0" disallow="tram rail_urban rail rail_electric rail_fast ship" speed="13.89" length="8.47" shape="342.44,1152.32 344.85,1151.74 346.32,1150.59 347.79,1149.43 350.19,1148.81"/>
        <lane id=":2029039208_4_1" index="1" disallow="tram rail_urban rail rail_electric rail_fast ship" speed="13.89" length="8.47" shape="342.55,1155.52 344.97,1154.94 346.45,1153.79 347.92,1152.62 350.34,1152.01"/>
        <lane id=":2029039208_4_2" index="2" disallow="tram rail_urban rail rail_electric rail_fast ship" speed="13.89" length="8.47" shape="342.55,1155.52 350.49,1155.20"/>
    </edge>
    <edge id=":2029039208_7" function="internal">
        <lane id=":2029039208_7_0" index="0" disallow="tram rail_urban rail rail_electric rail_fast ship" speed="13.89" length="2.34" shape="342.55,1155.52 343.77,1156.28 344.20,1157.07"/>
    </edge>
    <edge id=":2029039208_9" function="internal">
        <lane id=":2029039208_9_0" index="0" disallow="tram rail_urban rail rail_electric rail_fast ship" speed="13.89" length="2.34" shape="344.20,1157.07 343.82,1157.88 342.65,1158.72"/>
    </edge>
    <edge id=":2408597007_0" function="internal">
        <lane id=":2408597007_0_0" index="0" allow="bicycle" speed="13.89" length="6.23" width="1.00" shape="819.08,1145.59 812.87,1145.76"/>
        <lane id=":2408597007_0_1" index="1" disallow="bicycle rail_fast" speed="13.89" length="6.23" shape="819.04,1143.49 812.79,1143.66"/>
    </edge>
    <edge id=":2408597007_2" function="internal">
        <lane id=":2408597007_2_0" index="0" disallow="bicycle rail_fast" speed="13.89" length="2.34" shape="819.04,1143.49 817.83,1142.71 817.42,1141.91"/>
    </edge>
    <edge id=":2408597007_6" function="internal">
        <lane id=":2408597007_6_0" index="0" disallow="bicycle rail_fast" speed="13.89" length="2.34" shape="817.42,1141.91 817.80,1141.11 818.99,1140.29"/>
    </edge>
    <edge id=":2408597007_3" function="internal">
        <lane id=":2408597007_3_0" index="0" allow="bicycle" speed="13.89" length="6.34" width="1.00" shape="812.59,1138.36 818.95,1138.19"/>
        <lane id=":2408597007_3_1" index="1" disallow="bicycle rail_fast" speed="13.89" length="6.34" shape="812.67,1140.46 818.99,1140.29"/>
    </edge>
    <edge id=":2408597007_5" function="internal">
        <lane id=":2408597007_5_0" index="0" disallow="bicycle rail_fast" speed="13.89" length="2.34" shape="812.67,1140.46 813.90,1141.22 814.33,1142.00"/>
    </edge>
    <edge id=":2408597007_7" function="internal">
        <lane id=":2408597007_7_0" index="0" disallow="bicycle rail_fast" speed="13.89" length="2.34" shape="814.33,1142.00 813.96,1142.81 812.79,1143.66"/>
    </edge>
    <edge id=":241490607_0" function="internal">
        <lane id=":241490607_0_0" index="0" allow="bicycle" speed="13.89" length="6.11" width="1.00" shape="869.96,1144.76 863.79,1144.99"/>
        <lane id=":241490607_0_1" index="1" disallow="bicycle rail_fast" speed="13.89" length="6.11" shape="869.81,1142.66 863.76,1142.89"/>
    </edge>
    <edge id=":241490607_2" function="internal">
        <lane id=":241490607_2_0" index="0" disallow="bicycle rail_fast" speed="13.89" length="2.34" shape="863.73,1139.70 864.94,1140.48 865.35,1141.28"/>
    </edge>
    <edge id=":241490607_3" function="internal">
        <lane id=":241490607_3_0" index="0" disallow="bicycle rail_fast" speed="13.89" length="2.34" shape="865.35,1141.28 864.96,1142.08 863.76,1142.89"/>
    </edge>
    <edge id=":243337743_0" function="internal">
        <lane id=":243337743_0_0" index="0" disallow="bicycle rail_fast" speed="13.89" length="4.67" shape="721.01,1579.67 720.25,1580.90 719.47,1581.33 718.65,1580.96 717.81,1579.79"/>
    </edge>
    <edge id=":2524297263_0" function="internal">
        <lane id=":2524297263_0_0" index="0" allow="bicycle" speed="13.89" length="6.20" width="1.00" shape="427.24,1163.81 421.04,1163.89"/>
        <lane id=":2524297263_0_1" index="1" disallow="bicycle rail_fast" speed="13.89" length="6.20" shape="427.22,1161.71 421.01,1161.79"/>
        <lane id=":2524297263_0_2" index="2" disallow="bicycle rail_fast" speed="13.89" length="6.20" shape="427.18,1158.51 420.97,1158.59"/>
        <lane id=":2524297263_0_3" index="3" disallow="bicycle rail_fast" speed="13.89" length="6.20" shape="427.14,1155.31 420.94,1155.39"/>
    </edge>
    <edge id=":2524297263_4" function="internal">
        <lane id=":2524297263_4_0" index="0" disallow="bicycle rail_fast" speed="13.89" length="2.34" shape="427.14,1155.31 425.93,1154.53 425.52,1153.73"/>
    </edge>
    <edge id=":2524297263_9" function="internal">
        <lane id=":2524297263_9_0" index="0" disallow="bicycle rail_fast" speed="13.89" length="2.34" shape="425.52,1153.73 425.91,1152.93 427.10,1152.11"/>
    </edge>
    <edge id=":2524297263_5" function="internal">
        <lane id=":2524297263_5_0" index="0" allow="bicycle" speed="13.89" length="6.20" width="1.00" shape="420.83,1146.89 427.03,1146.81"/>
        <lane id=":2524297263_5_1" index="1" disallow="bicycle rail_fast" speed="13.89" length="6.20" shape="420.86,1148.99 427.06,1148.91"/>
        <lane id=":2524297263_5_2" index="2" disallow="bicycle rail_fast" speed="13.89" length="6.20" shape="420.90,1152.19 427.10,1152.11"/>
    </edge>
    <edge id=":2524297263_8" function="internal">
        <lane id=":2524297263_8_0" index="0" disallow="bicycle rail_fast" speed="13.89" length="2.34" shape="420.90,1152.19 422.11,1152.98 422.52,1153.77"/>
    </edge>
    <edge id=":2524297263_10" function="internal">
        <lane id=":2524297263_10_0" index="0" disallow="bicycle rail_fast" speed="13.89" length="2.34" shape="422.52,1153.77 422.13,1154.57 420.94,1155.39"/>
    </edge>
    <edge id=":2524297264_0" function="internal">
        <lane id=":2524297264_0_0" index="0" allow="bicycle" speed="13.89" length="6.79" width="1.00" shape="450.31,1163.53 443.51,1163.61"/>
        <lane id=":2524297264_0_1" index="1" disallow="bicycle rail_fast" speed="13.89" length="6.79" shape="450.28,1161.44 443.49,1161.51"/>
        <lane id=":2524297264_0_2" index="2" disallow="bicycle rail_fast" speed="13.89" length="6.79" shape="450.24,1158.24 443.45,1158.31"/>
        <lane id=":2524297264_0_3" index="3" disallow="bicycle rail_fast" speed="13.89" length="6.79" shape="450.20,1155.04 443.41,1155.11"/>
    </edge>
    <edge id=":2524297264_4" function="internal">
        <lane id=":2524297264_4_0" index="0" disallow="bicycle rail_fast" speed="13.89" length="2.34" shape="450.20,1155.04 448.99,1154.25 448.58,1153.46"/>
    </edge>
    <edge id=":2524297264_9" function="internal">
        <lane id=":2524297264_9_0" index="0" disallow="bicycle rail_fast" speed="13.89" length="2.34" shape="448.58,1153.46 448.97,1152.65 450.16,1151.84"/>
    </edge>
    <edge id=":2524297264_5" function="internal">
        <lane id=":2524297264_5_0" index="0" allow="bicycle" speed="13.89" length="6.79" width="1.00" shape="443.31,1146.61 450.09,1146.54"/>
        <lane id=":2524297264_5_1" index="1" disallow="bicycle rail_fast" speed="13.89" length="6.79" shape="443.34,1148.71 450.12,1148.64"/>
        <lane id=":2524297264_5_2" index="2" disallow="bicycle rail_fast" speed="13.89" length="6.79" shape="443.37,1151.91 450.16,1151.84"/>
    </edge>
    <edge id=":2524297264_8" function="internal">
        <lane id=":2524297264_8_0" index="0" disallow="bicycle rail_fast" speed="13.89" length="2.34" shape="443.37,1151.91 444.58,1152.70 444.99,1153.50"/>
    </edge>
    <edge id=":2524297264_10" function="internal">
        <lane id=":2524297264_10_0" index="0" disallow="bicycle rail_fast" speed="13.89" length="2.34" shape="444.99,1153.50 444.60,1154.30 443.41,1155.11"/>
    </edge>
    <edge id=":27787557_0" function="internal">
        <lane id=":27787557_0_0" index="0" disallow="tram rail_urban rail rail_electric rail_fast ship" speed="13.89" length="4.67" shape="188.85,1162.36 187.64,1161.58 187.23,1160.78 187.62,1159.98 188.81,1159.16"/>
    </edge>
    <edge id=":27787561_0" function="internal">
        <lane id=":27787561_0_0" index="0" disallow="tram rail_urban rail rail_electric rail_fast ship" speed="13.89" length="0.29" shape="254.11,1167.94 253.83,1167.94"/>
        <lane id=":27787561_0_1" index="1" disallow="tram rail_urban rail rail_electric rail_fast ship" speed="13.89" length="0.29" shape="254.08,1164.74 253.79,1164.74"/>
        <lane id=":27787561_0_2" index="2" disallow="tram rail_urban rail rail_electric rail_fast ship" speed="13.89" length="0.29" shape="254.05,1161.54 253.75,1161.54"/>
    </edge>
    <edge id=":27787561_3" function="internal">
        <lane id=":27787561_3_0" index="0" disallow="tram rail_urban rail rail_electric rail_fast ship" speed="13.89" length="2.34" shape="254.05,1161.54 252.84,1160.75 252.43,1159.96"/>
    </edge>
    <edge id=":27787561_7" function="internal">
        <lane id=":27787561_7_0" index="0" disallow="tram rail_urban rail rail_electric rail_fast ship" speed="13.89" length="2.34" shape="252.43,1159.96 252.82,1159.15 254.01,1158.34"/>
    </edge>
    <edge id=":27787561_4" function="internal">
        <lane id=":27787561_4_0" index="0" disallow="tram rail_urban rail rail_electric rail_fast ship" speed="13.89" length="0.31" shape="253.67,1155.14 253.98,1155.14"/>
        <lane id=":27787561_4_1" index="1" disallow="tram rail_urban rail rail_electric rail_fast ship" speed="13.89" length="0.31" shape="253.71,1158.34 254.01,1158.34"/>
    </edge>
    <edge id=":27787561_6" function="internal">
        <lane id=":27787561_6_0" index="0" disallow="tram rail_urban rail rail_electric rail_fast ship" speed="13.89" length="2.34" shape="253.71,1158.34 254.92,1159.13 255.33,1159.92"/>
    </edge>
    <edge id=":27787561_8" function="internal">
        <lane id=":27787561_8_0" index="0" disallow="tram rail_urban rail rail_electric rail_fast ship" speed="13.89" length="2.34" shape="255.33,1159.92 254.94,1160.73 253.75,1161.54"/>
    </edge>
    <edge id=":27787565_0" function="internal">
        <lane id=":27787565_0_0" index="0" disallow="tram rail_urban rail rail_electric rail_fast ship" speed="13.89" length="8.53" shape="371.02,1160.65 368.58,1161.26 367.10,1162.43 365.61,1163.60 363.18,1164.22"/>
        <lane id=":27787565_0_1" index="1" disallow="tram rail_urban rail rail_electric rail_fast ship" speed="13.89" length="8.53" shape="370.87,1157.45 368.43,1158.07 366.95,1159.24 365.47,1160.41 363.03,1161.02"/>
        <lane id=":27787565_0_2" index="2" disallow="tram rail_urban rail rail_electric rail_fast ship" speed="13.89" length="8.53" shape="370.87,1157.45 362.88,1157.83"/>
    </edge>
    <edge id=":27787565_3" function="internal">
        <lane id=":27787565_3_0" index="0" disallow="tram rail_urban rail rail_electric rail_fast ship" speed="13.89" length="2.34" shape="370.87,1157.45 369.63,1156.71 369.20,1155.93"/>
    </edge>
    <edge id=":27787565_8" function="internal">
        <lane id=":27787565_8_0" index="0" disallow="tram rail_urban rail rail_electric rail_fast ship" speed="13.89" length="2.34" shape="369.20,1155.93 369.56,1155.11 370.72,1154.26"/>
    </edge>
    <edge id=":27787565_4" function="internal">
        <lane id=":27787565_4_0" index="0" disallow="tram rail_urban rail rail_electric rail_fast ship" speed="13.89" length="8.00" shape="362.43,1148.24 370.42,1147.86"/>
        <lane id=":27787565_4_1" index="1" disallow="tram rail_urban rail rail_electric rail_fast ship" speed="13.89" length="8.00" shape="362.58,1151.43 370.57,1151.06"/>
        <lane id=":27787565_4_2" index="2" disallow="tram rail_urban rail rail_electric rail_fast ship" speed="13.89" length="8.00" shape="362.73,1154.63 370.72,1154.26"/>
    </edge>
    <edge id=":27787565_7" function="internal">
        <lane id=":27787565_7_0" index="0" disallow="tram rail_urban rail rail_electric rail_fast ship" speed="13.89" length="2.34" shape="362.73,1154.63 363.97,1155.37 364.40,1156.15"/>
    </edge>
    <edge id=":27787565_9" function="internal">
        <lane id=":27787565_9_0" index="0" disallow="tram rail_urban rail rail_electric rail_fast ship" speed="13.89" length="2.34" shape="364.40,1156.15 364.04,1156.97 362.88,1157.83"/>
    </edge>
    <edge id=":27787691_0" function="internal">
        <lane id=":27787691_0_0" index="0" allow="bicycle" speed="13.89" length="8.66" width="1.00" shape="547.34,1156.16 544.92,1155.74 543.37,1154.70 541.82,1153.69 539.40,1153.34"/>
        <lane id=":27787691_0_1" index="1" speed="13.89" length="8.66" shape="547.28,1154.06 544.83,1153.64 543.27,1152.60 541.71,1151.59 539.26,1151.24"/>
    </edge>
    <edge id=":27787691_2" function="internal">
        <lane id=":27787691_2_0" index="0" disallow="bicycle rail_fast" speed="13.89" length="2.34" shape="547.17,1150.86 545.95,1150.10 545.52,1149.31"/>
    </edge>
    <edge id=":27787691_6" function="internal">