<routes xmlns:xsi="http://www.w3.org/2001/XMLSchema-instance" xsi:noNamespaceSchemaLocation="http://sumo.dlr.de/xsd/routes_file.xsd">
    <vType id="t1" accel="0.8" decel="4.5" sigma="0" length="3" minGap="2" maxSpeed="10"/>
    <route id="r1" edges="4/1to3/1 3/1to2/1"/>
    <vehicle id="0" depart="0" departSpeed="10" departPos="330" route="r1" type="t1"/>
</routes>
