
<additional>
	<laneData id="dump_15" freq="1" file="aggregated_1.xml" excludeEmpty="true"/>
</additional>
