<?xml version="1.0" encoding="iso-8859-1"?>

<!-- generated on 06/10/11 11:26:32 by SUMO netconvert Version dev-SVN-r10587
<?xml version="1.0" encoding="iso-8859-1"?>

<configuration xmlns:xsi="http://www.w3.org/2001/XMLSchema-instance" xsi:noNamespaceSchemaLocation="http://sumo.sf.net/xsd/netconvertConfiguration.xsd">

    <input>
        <node-files value="input_nodes.nod.xml"/>
        <edge-files value="input_edges.edg.xml"/>
    </input>

    <output>
        <output-file value="net.net.xml"/>
    </output>

    <processing>
        <no-internal-links value="true"/>
    </processing>

</configuration>
-->

<net>

    <location netOffset="500.00,0.00" convBoundary="0.00,0.00,1011.00,0.00" origBoundary="-500.00,0.00,511.00,0.00" projParameter="!"/>

    <edge id="1to2" from="1" to="2" priority="-1">
        <lane id="1to2_0" depart="1" maxSpeed="13.90" length="1000.00" shape="0.00,-1.65 1000.00,-1.65"/>
    </edge>
    <edge id="out" from="o" to="t" priority="-1">
        <lane id="out_0" depart="1" maxSpeed="13.90" length="10.90" shape="1000.10,-1.65 1011.00,-1.65"/>
    </edge>

    <junction id="1" type="DEAD_END" x="0.00" y="0.00" incLanes="" intLanes="" shape="0.00,-0.05 0.00,-3.25"/>
    <junction id="2" type="DEAD_END" x="1000.00" y="0.00" incLanes="1to2_0" intLanes="" shape="1000.00,-3.25 1000.00,-0.05"/>
    <junction id="o" type="DEAD_END" x="1000.10" y="0.00" incLanes="" intLanes="" shape="1000.10,-0.05 1000.10,-3.25"/>
    <junction id="t" type="DEAD_END" x="1011.00" y="0.00" incLanes="out_0" intLanes="" shape="1011.00,-3.25 1011.00,-0.05"/>

    <succ edge="1to2" lane="1to2_0" junction="2">
    </succ>
    <succ edge="out" lane="out_0" junction="t">
    </succ>

</net>
