<?xml version="1.0" encoding="UTF-8"?>

<!-- generated on Wed 24 Apr 2019 10:55:03 PM CEST by Eclipse SUMO netedit Version v1_2_0+0022-5179cc2293
<configuration xmlns:xsi="http://www.w3.org/2001/XMLSchema-instance" xsi:noNamespaceSchemaLocation="http://sumo.dlr.de/xsd/netconvertConfiguration.xsd">

    <input>
        <sumo-net-file value="net2.net.xml"/>
    </input>

    <output>
        <output-file value="net2.net.xml"/>
        <plain-output-prefix value="/home/kobo/dlr/debug/5512/input_plain"/>
    </output>

    <processing>
        <geometry.max-grade.fix value="false"/>
        <offset.disable-normalization value="true"/>
        <lefthand value="false"/>
    </processing>

    <junctions>
        <no-turnarounds value="true"/>
        <junctions.corner-detail value="0"/>
        <junctions.limit-turn-speed value="-1"/>
        <rectangular-lane-cut value="false"/>
    </junctions>

    <pedestrian>
        <walkingareas value="false"/>
    </pedestrian>

</configuration>
-->

<edges version="1.1" xmlns:xsi="http://www.w3.org/2001/XMLSchema-instance" xsi:noNamespaceSchemaLocation="http://sumo.dlr.de/xsd/edges_file.xsd">
    <edge id="CE" from="C" to="E" priority="2" numLanes="2" speed="13.89"/>
    <edge id="CN" from="C" to="N" priority="2" numLanes="2" speed="13.89"/>
    <edge id="CS" from="C" to="S" priority="2" numLanes="2" speed="13.89"/>
    <edge id="CW" from="C" to="W" priority="2" numLanes="2" speed="13.89"/>
    <edge id="EC" from="E" to="C" priority="2" numLanes="2" speed="13.89"/>
    <edge id="NC" from="N" to="C" priority="2" numLanes="2" speed="13.89"/>
    <edge id="SC" from="S" to="C" priority="2" numLanes="2" speed="13.89"/>
    <edge id="WC" from="W" to="C" priority="2" numLanes="2" speed="13.89"/>
    <edge id="gneE0" from="C" to="gneJ1" priority="-1" numLanes="1" speed="13.89" shape="117.93,92.45 133.86,92.01" allow="pedestrian"/>
</edges>
