<?xml version="1.0"?>

<!-- generated on Thu Feb  7 11:48:01 2013 by SUMO sumo Version dev-SVN-r13280
<?xml version="1.0" encoding="UTF-8"?>

<configuration xmlns:xsi="http://www.w3.org/2001/XMLSchema-instance" xsi:noNamespaceSchemaLocation="http://sumo.sf.net/xsd/sumoConfiguration.xsd">

    <input>
        <net-file value="net.net.xml"/>
        <route-files value="input_routes.rou.xml"/>
        <additional-files value="input_additional.add.xml"/>
    </input>

    <time>
        <begin value="0"/>
        <end value="1000"/>
    </time>

    <report>
        <no-duration-log value="true"/>
        <no-step-log value="true"/>
    </report>

</configuration>
-->

<netstats>
    <interval begin="0.00" end="300.00" id="dump_300">
        <edge id="1fi" sampledSeconds="709.00" traveltime="29.73" density="9.51" occupancy="2.85" waitingTime="0.00" speed="8.36" departed="19" arrived="0" entered="11" left="19" laneChangedFrom="0" laneChangedTo="0"/>
        <edge id="1o" sampledSeconds="508.05" traveltime="45.90" density="3.47" occupancy="1.04" waitingTime="0.00" speed="10.64" departed="0" arrived="0" entered="11" left="11" laneChangedFrom="0" laneChangedTo="0"/>
        <edge id="1si" sampledSeconds="837.59" traveltime="46.52" density="11.77" occupancy="1.18" waitingTime="358.00" speed="5.10" departed="0" arrived="0" entered="19" left="11" laneChangedFrom="0" laneChangedTo="0"/>
        <edge id="2fi" sampledSeconds="783.98" traveltime="30.17" density="10.52" occupancy="3.15" waitingTime="0.00" speed="8.24" departed="20" arrived="0" entered="9" left="24" laneChangedFrom="0" laneChangedTo="0"/>
        <edge id="2o" sampledSeconds="545.32" traveltime="48.69" density="3.72" occupancy="1.12" waitingTime="0.00" speed="10.04" departed="0" arrived="0" entered="17" left="9" laneChangedFrom="0" laneChangedTo="0"/>
        <edge id="2si" sampledSeconds="847.38" traveltime="37.85" density="11.91" occupancy="1.19" waitingTime="314.00" speed="6.27" departed="0" arrived="0" entered="24" left="11" laneChangedFrom="0" laneChangedTo="0"/>
        <edge id="3fi" sampledSeconds="1170.83" traveltime="32.07" density="15.71" occupancy="4.71" waitingTime="1.00" speed="7.75" departed="40" arrived="0" entered="0" left="34" laneChangedFrom="0" laneChangedTo="0"/>
        <edge id="3o" sampledSeconds="91.29" traveltime="44.75" density="0.62" occupancy="0.19" waitingTime="0.00" speed="10.92" departed="0" arrived="0" entered="6" left="0" laneChangedFrom="0" laneChangedTo="0"/>
        <edge id="3si" sampledSeconds="1238.59" traveltime="37.80" density="17.41" occupancy="1.74" waitingTime="418.00" speed="6.27" departed="0" arrived="0" entered="34" left="31" laneChangedFrom="0" laneChangedTo="0"/>
        <edge id="4fi" sampledSeconds="207.38" traveltime="22.77" density="2.78" occupancy="0.83" waitingTime="0.00" speed="10.91" departed="0" arrived="0" entered="9" left="9" laneChangedFrom="0" laneChangedTo="0"/>
        <edge id="4o" sampledSeconds="744.56" traveltime="47.08" density="5.08" occupancy="1.52" waitingTime="0.00" speed="10.38" departed="0" arrived="0" entered="24" left="9" laneChangedFrom="0" laneChangedTo="0"/>
        <edge id="4si" sampledSeconds="282.03" traveltime="31.08" density="3.96" occupancy="0.40" waitingTime="92.00" speed="7.63" departed="0" arrived="0" entered="9" left="8" laneChangedFrom="0" laneChangedTo="0"/>
    </interval>
    <interval begin="0.00" end="300.00" id="dump_300">
        <edge id="1fi">
            <lane id="1fi_0" sampledSeconds="709.00" traveltime="29.73" density="9.51" occupancy="2.85" waitingTime="0.00" speed="8.36" departed="19" arrived="0" entered="11" left="19" laneChangedFrom="0" laneChangedTo="0"/>
        </edge>
        <edge id="1o">
            <lane id="1o_0" sampledSeconds="508.05" traveltime="45.90" density="3.47" occupancy="1.04" waitingTime="0.00" speed="10.64" departed="0" arrived="0" entered="11" left="11" laneChangedFrom="0" laneChangedTo="0"/>
        </edge>
        <edge id="1si">
            <lane id="1si_0" sampledSeconds="0.00" departed="0" arrived="0" entered="0" left="0" laneChangedFrom="0" laneChangedTo="0"/>
            <lane id="1si_1" sampledSeconds="35.91" traveltime="17.73" density="0.50" occupancy="0.15" waitingTime="0.00" speed="13.38" departed="0" arrived="0" entered="2" left="2" laneChangedFrom="0" laneChangedTo="0"/>
            <lane id="1si_2" sampledSeconds="801.68" traveltime="50.16" density="11.27" occupancy="3.38" waitingTime="358.00" speed="4.73" departed="0" arrived="0" entered="17" left="9" laneChangedFrom="0" laneChangedTo="0"/>
        </edge>
        <edge id="2fi">
            <lane id="2fi_0" sampledSeconds="783.98" traveltime="30.17" density="10.52" occupancy="3.15" waitingTime="0.00" speed="8.24" departed="20" arrived="0" entered="9" left="24" laneChangedFrom="0" laneChangedTo="0"/>
        </edge>
        <edge id="2o">
            <lane id="2o_0" sampledSeconds="545.32" traveltime="48.69" density="3.72" occupancy="1.12" waitingTime="0.00" speed="10.04" departed="0" arrived="0" entered="17" left="9" laneChangedFrom="0" laneChangedTo="0"/>
        </edge>
        <edge id="2si">
            <lane id="2si_0" sampledSeconds="205.66" traveltime="31.68" density="2.89" occupancy="0.87" waitingTime="54.00" speed="7.49" departed="0" arrived="0" entered="7" left="0" laneChangedFrom="0" laneChangedTo="0"/>
            <lane id="2si_1" sampledSeconds="641.72" traveltime="40.37" density="9.02" occupancy="2.71" waitingTime="260.00" speed="5.87" departed="0" arrived="0" entered="17" left="11" laneChangedFrom="0" laneChangedTo="0"/>
            <lane id="2si_2" sampledSeconds="0.00" departed="0" arrived="0" entered="0" left="0" laneChangedFrom="0" laneChangedTo="0"/>
        </edge>
        <edge id="3fi">
            <lane id="3fi_0" sampledSeconds="1170.83" traveltime="32.07" density="15.71" occupancy="4.71" waitingTime="1.00" speed="7.75" departed="40" arrived="0" entered="0" left="34" laneChangedFrom="0" laneChangedTo="0"/>
        </edge>
        <edge id="3o">
            <lane id="3o_0" sampledSeconds="91.29" traveltime="44.75" density="0.62" occupancy="0.19" waitingTime="0.00" speed="10.92" departed="0" arrived="0" entered="6" left="0" laneChangedFrom="0" laneChangedTo="0"/>
        </edge>
        <edge id="3si">
            <lane id="3si_0" sampledSeconds="610.90" traveltime="36.82" density="8.59" occupancy="2.58" waitingTime="199.00" speed="6.44" departed="0" arrived="0" entered="17" left="16" laneChangedFrom="0" laneChangedTo="0"/>
            <lane id="3si_1" sampledSeconds="627.68" traveltime="38.79" density="8.82" occupancy="2.65" waitingTime="219.00" speed="6.11" departed="0" arrived="0" entered="17" left="15" laneChangedFrom="0" laneChangedTo="0"/>
            <lane id="3si_2" sampledSeconds="0.00" departed="0" arrived="0" entered="0" left="0" laneChangedFrom="0" laneChangedTo="0"/>
        </edge>
        <edge id="4fi">
            <lane id="4fi_0" sampledSeconds="207.38" traveltime="22.77" density="2.78" occupancy="0.83" waitingTime="0.00" speed="10.91" departed="0" arrived="0" entered="9" left="9" laneChangedFrom="0" laneChangedTo="0"/>
        </edge>
        <edge id="4o">
            <lane id="4o_0" sampledSeconds="744.56" traveltime="47.08" density="5.08" occupancy="1.52" waitingTime="0.00" speed="10.38" departed="0" arrived="0" entered="24" left="9" laneChangedFrom="0" laneChangedTo="0"/>
        </edge>
        <edge id="4si">
            <lane id="4si_0" sampledSeconds="0.00" departed="0" arrived="0" entered="0" left="0" laneChangedFrom="0" laneChangedTo="0"/>
            <lane id="4si_1" sampledSeconds="107.93" traveltime="17.76" density="1.52" occupancy="0.46" waitingTime="0.00" speed="13.35" departed="0" arrived="0" entered="6" left="6" laneChangedFrom="0" laneChangedTo="0"/>
            <lane id="4si_2" sampledSeconds="174.10" traveltime="58.05" density="2.45" occupancy="0.73" waitingTime="92.00" speed="4.09" departed="0" arrived="0" entered="3" left="2" laneChangedFrom="0" laneChangedTo="0"/>
        </edge>
    </interval>
    <interval begin="900.00" end="1000.00" id="dump_300">
        <edge id="1fi" sampledSeconds="925.21" traveltime="27.90" density="37.23" occupancy="11.17" waitingTime="0.00" speed="8.91" departed="11" arrived="4" entered="21" left="30" laneChangedFrom="0" laneChangedTo="0"/>
        <edge id="1o" sampledSeconds="1112.01" traveltime="49.15" density="22.76" occupancy="6.83" waitingTime="0.00" speed="9.94" departed="0" arrived="0" entered="23" left="21" laneChangedFrom="0" laneChangedTo="0"/>
        <edge id="1si" sampledSeconds="4294.42" traveltime="158.70" density="181.08" occupancy="18.11" waitingTime="2265.00" speed="1.49" departed="0" arrived="0" entered="30" left="21" laneChangedFrom="0" laneChangedTo="0"/>
        <edge id="2fi" sampledSeconds="859.14" traveltime="27.68" density="34.57" occupancy="10.37" waitingTime="0.00" speed="8.98" departed="10" arrived="9" entered="19" left="22" laneChangedFrom="0" laneChangedTo="0"/>
        <edge id="2o" sampledSeconds="999.14" traveltime="46.95" density="20.45" occupancy="6.13" waitingTime="0.00" speed="10.41" departed="0" arrived="0" entered="21" left="19" laneChangedFrom="0" laneChangedTo="0"/>
        <edge id="2si" sampledSeconds="1403.28" traveltime="58.78" density="59.17" occupancy="5.92" waitingTime="666.00" speed="4.03" departed="0" arrived="0" entered="22" left="19" laneChangedFrom="0" laneChangedTo="0"/>
        <edge id="3fi" sampledSeconds="880.49" traveltime="28.60" density="35.43" occupancy="10.63" waitingTime="2.00" speed="8.69" departed="13" arrived="14" entered="17" left="16" laneChangedFrom="0" laneChangedTo="0"/>
        <edge id="3o" sampledSeconds="912.79" traveltime="48.97" density="18.68" occupancy="5.60" waitingTime="0.00" speed="9.98" departed="0" arrived="0" entered="17" left="18" laneChangedFrom="0" laneChangedTo="0"/>
        <edge id="3si" sampledSeconds="823.11" traveltime="51.02" density="34.71" occupancy="3.47" waitingTime="335.00" speed="4.65" departed="0" arrived="0" entered="16" left="24" laneChangedFrom="0" laneChangedTo="0"/>
        <edge id="4fi" sampledSeconds="392.02" traveltime="22.77" density="15.78" occupancy="4.73" waitingTime="0.00" speed="10.91" departed="0" arrived="0" entered="18" left="17" laneChangedFrom="0" laneChangedTo="0"/>
        <edge id="4o" sampledSeconds="887.70" traveltime="46.70" density="18.17" occupancy="5.45" waitingTime="0.00" speed="10.46" departed="0" arrived="0" entered="17" left="18" laneChangedFrom="0" laneChangedTo="0"/>
        <edge id="4si" sampledSeconds="1049.45" traveltime="56.00" density="44.25" occupancy="4.43" waitingTime="476.00" speed="4.23" departed="0" arrived="0" entered="17" left="22" laneChangedFrom="0" laneChangedTo="0"/>
    </interval>
</netstats>
