<?xml version="1.0"?>

<!-- generated on 10/06/10 12:12:58 by SUMO sumo Version dev-SVN-r9178
<?xml version="1.0" encoding="iso-8859-1"?>

<configuration>

    <input>
        <net-file value="net.net.xml"/>
        <route-files value="input_routes.rou.xml"/>
        <additional-files value="input_additional.add.xml"/>
    </input>

    <time>
        <begin value="0"/>
        <end value="1000"/>
    </time>

    <report>
        <no-duration-log value="true"/>
        <no-step-log value="true"/>
    </report>

</configuration>
-->

<netstats>
    <interval begin="0.00" end="900.00" id="dump_900">
        <edge id="1fi" sampledSeconds="4941.69" traveltime="27.97" density="22.10" occupancy="11.05" waitingTime="0.00" speed="8.89" departed="80" arrived="16" entered="117" left="174" laneChangedFrom="0" laneChangedTo="0"/>
        <edge id="1o" sampledSeconds="5828.02" traveltime="47.39" density="13.25" occupancy="6.63" waitingTime="0.00" speed="10.31" departed="0" arrived="0" entered="128" left="117" laneChangedFrom="0" laneChangedTo="0"/>
        <edge id="1si" sampledSeconds="19056.65" traveltime="124.76" density="89.29" occupancy="14.88" waitingTime="12842.00" speed="1.90" departed="0" arrived="0" entered="174" left="131" laneChangedFrom="0" laneChangedTo="0"/>
        <edge id="2fi" sampledSeconds="4622.07" traveltime="28.83" density="20.67" occupancy="10.33" waitingTime="0.00" speed="8.62" departed="80" arrived="54" entered="140" left="158" laneChangedFrom="0" laneChangedTo="0"/>
        <edge id="2o" sampledSeconds="6882.86" traveltime="47.12" density="15.65" occupancy="7.83" waitingTime="0.00" speed="10.37" departed="0" arrived="0" entered="149" left="140" laneChangedFrom="0" laneChangedTo="0"/>
        <edge id="2si" sampledSeconds="7727.01" traveltime="49.84" density="36.20" occupancy="6.03" waitingTime="3515.00" speed="4.76" departed="0" arrived="0" entered="158" left="150" laneChangedFrom="0" laneChangedTo="0"/>
        <edge id="3fi" sampledSeconds="4685.93" traveltime="31.28" density="20.95" occupancy="10.48" waitingTime="0.00" speed="7.94" departed="136" arrived="76" entered="96" left="149" laneChangedFrom="0" laneChangedTo="0"/>
        <edge id="3o" sampledSeconds="4697.03" traveltime="46.27" density="10.68" occupancy="5.34" waitingTime="0.00" speed="10.56" departed="0" arrived="0" entered="107" left="96" laneChangedFrom="0" laneChangedTo="0"/>
        <edge id="3si" sampledSeconds="7349.45" traveltime="49.88" density="34.43" occupancy="5.74" waitingTime="3538.00" speed="4.75" departed="0" arrived="0" entered="149" left="134" laneChangedFrom="0" laneChangedTo="0"/>
        <edge id="4fi" sampledSeconds="3194.32" traveltime="22.72" density="14.28" occupancy="7.14" waitingTime="0.00" speed="10.94" departed="0" arrived="0" entered="141" left="140" laneChangedFrom="0" laneChangedTo="0"/>
        <edge id="4o" sampledSeconds="6829.02" traveltime="47.05" density="15.53" occupancy="7.76" waitingTime="0.00" speed="10.38" departed="0" arrived="0" entered="150" left="141" laneChangedFrom="0" laneChangedTo="0"/>
        <edge id="4si" sampledSeconds="5220.37" traveltime="38.69" density="24.46" occupancy="4.08" waitingTime="1986.00" speed="6.13" departed="0" arrived="0" entered="140" left="119" laneChangedFrom="0" laneChangedTo="0"/>
    </interval>
    <interval begin="0.00" end="900.00" id="dump_900">
        <edge id="1fi">
            <lane id="1fi_0" sampledSeconds="4941.69" traveltime="27.97" density="22.10" occupancy="11.05" waitingTime="0.00" speed="8.89" departed="80" arrived="16" entered="117" left="174" laneChangedFrom="0" laneChangedTo="0"/>
        </edge>
        <edge id="1o">
            <lane id="1o_0" sampledSeconds="5828.02" traveltime="47.39" density="13.25" occupancy="6.63" waitingTime="0.00" speed="10.31" departed="0" arrived="0" entered="128" left="117" laneChangedFrom="0" laneChangedTo="0"/>
        </edge>
        <edge id="1si">
            <lane id="1si_0" sampledSeconds="1735.44" traveltime="54.96" density="8.13" occupancy="4.07" waitingTime="824.00" speed="4.31" departed="0" arrived="0" entered="35" left="31" laneChangedFrom="0" laneChangedTo="0"/>
            <lane id="1si_1" sampledSeconds="1348.53" traveltime="21.75" density="6.32" occupancy="3.16" waitingTime="167.00" speed="10.90" departed="0" arrived="0" entered="62" left="62" laneChangedFrom="0" laneChangedTo="0"/>
            <lane id="1si_2" sampledSeconds="15972.69" traveltime="269.96" density="74.84" occupancy="37.42" waitingTime="11851.00" speed="0.88" departed="0" arrived="0" entered="77" left="38" laneChangedFrom="0" laneChangedTo="0"/>
        </edge>
        <edge id="2fi">
            <lane id="2fi_0" sampledSeconds="4622.07" traveltime="28.83" density="20.67" occupancy="10.33" waitingTime="0.00" speed="8.62" departed="80" arrived="54" entered="140" left="158" laneChangedFrom="0" laneChangedTo="0"/>
        </edge>
        <edge id="2o">
            <lane id="2o_0" sampledSeconds="6882.86" traveltime="47.12" density="15.65" occupancy="7.83" waitingTime="0.00" speed="10.37" departed="0" arrived="0" entered="149" left="140" laneChangedFrom="0" laneChangedTo="0"/>
        </edge>
        <edge id="2si">
            <lane id="2si_0" sampledSeconds="3051.57" traveltime="55.35" density="14.30" occupancy="7.15" waitingTime="1471.00" speed="4.28" departed="0" arrived="0" entered="58" left="53" laneChangedFrom="0" laneChangedTo="0"/>
            <lane id="2si_1" sampledSeconds="3646.77" traveltime="48.04" density="17.09" occupancy="8.54" waitingTime="1667.00" speed="4.94" departed="0" arrived="0" entered="76" left="73" laneChangedFrom="0" laneChangedTo="0"/>
            <lane id="2si_2" sampledSeconds="1028.66" traveltime="42.86" density="4.82" occupancy="2.41" waitingTime="377.00" speed="5.53" departed="0" arrived="0" entered="24" left="24" laneChangedFrom="0" laneChangedTo="0"/>
        </edge>
        <edge id="3fi">
            <lane id="3fi_0" sampledSeconds="4685.93" traveltime="31.28" density="20.95" occupancy="10.48" waitingTime="0.00" speed="7.94" departed="136" arrived="76" entered="96" left="149" laneChangedFrom="0" laneChangedTo="0"/>
        </edge>
        <edge id="3o">
            <lane id="3o_0" sampledSeconds="4697.03" traveltime="46.27" density="10.68" occupancy="5.34" waitingTime="0.00" speed="10.56" departed="0" arrived="0" entered="107" left="96" laneChangedFrom="0" laneChangedTo="0"/>
        </edge>
        <edge id="3si">
            <lane id="3si_0" sampledSeconds="3204.56" traveltime="50.08" density="15.01" occupancy="7.51" waitingTime="1559.00" speed="4.73" departed="0" arrived="0" entered="65" left="59" laneChangedFrom="0" laneChangedTo="0"/>
            <lane id="3si_1" sampledSeconds="3171.39" traveltime="49.96" density="14.86" occupancy="7.43" waitingTime="1537.00" speed="4.75" departed="0" arrived="0" entered="64" left="59" laneChangedFrom="0" laneChangedTo="0"/>
            <lane id="3si_2" sampledSeconds="973.49" traveltime="48.99" density="4.56" occupancy="2.28" waitingTime="442.00" speed="4.84" departed="0" arrived="0" entered="20" left="16" laneChangedFrom="0" laneChangedTo="0"/>
        </edge>
        <edge id="4fi">
            <lane id="4fi_0" sampledSeconds="3194.32" traveltime="22.72" density="14.28" occupancy="7.14" waitingTime="0.00" speed="10.94" departed="0" arrived="0" entered="141" left="140" laneChangedFrom="0" laneChangedTo="0"/>
        </edge>
        <edge id="4o">
            <lane id="4o_0" sampledSeconds="6829.02" traveltime="47.05" density="15.53" occupancy="7.76" waitingTime="0.00" speed="10.38" departed="0" arrived="0" entered="150" left="141" laneChangedFrom="0" laneChangedTo="0"/>
        </edge>
        <edge id="4si">
            <lane id="4si_0" sampledSeconds="2775.58" traveltime="59.81" density="13.00" occupancy="6.50" waitingTime="1476.00" speed="3.97" departed="0" arrived="0" entered="47" left="39" laneChangedFrom="0" laneChangedTo="0"/>
            <lane id="4si_1" sampledSeconds="964.54" traveltime="17.88" density="4.52" occupancy="2.26" waitingTime="0.00" speed="13.27" departed="0" arrived="0" entered="58" left="52" laneChangedFrom="0" laneChangedTo="0"/>
            <lane id="4si_2" sampledSeconds="1480.26" traveltime="42.84" density="6.94" occupancy="3.47" waitingTime="510.00" speed="5.54" departed="0" arrived="0" entered="35" left="28" laneChangedFrom="0" laneChangedTo="0"/>
        </edge>
    </interval>
    <interval begin="900.00" end="1000.00" id="dump_900">
        <edge id="1fi" sampledSeconds="888.09" traveltime="30.47" density="35.74" occupancy="17.87" waitingTime="39.00" speed="8.16" departed="10" arrived="4" entered="23" left="24" laneChangedFrom="0" laneChangedTo="0"/>
        <edge id="1o" sampledSeconds="1135.96" traveltime="47.49" density="23.25" occupancy="11.62" waitingTime="0.00" speed="10.29" departed="0" arrived="0" entered="23" left="23" laneChangedFrom="0" laneChangedTo="0"/>
        <edge id="1si" sampledSeconds="4911.41" traveltime="220.37" density="207.10" occupancy="34.52" waitingTime="3668.00" speed="1.08" departed="0" arrived="0" entered="24" left="22" laneChangedFrom="0" laneChangedTo="0"/>
        <edge id="2fi" sampledSeconds="669.01" traveltime="28.18" density="26.92" occupancy="13.46" waitingTime="0.00" speed="8.82" departed="9" arrived="9" entered="23" left="22" laneChangedFrom="0" laneChangedTo="0"/>
        <edge id="2o" sampledSeconds="1161.21" traveltime="46.66" density="23.76" occupancy="11.88" waitingTime="0.00" speed="10.47" departed="0" arrived="0" entered="26" left="23" laneChangedFrom="0" laneChangedTo="0"/>
        <edge id="2si" sampledSeconds="1090.90" traveltime="49.95" density="46.00" occupancy="7.67" waitingTime="514.00" speed="4.75" departed="0" arrived="0" entered="22" left="19" laneChangedFrom="0" laneChangedTo="0"/>
        <edge id="3fi" sampledSeconds="580.98" traveltime="30.92" density="23.38" occupancy="11.69" waitingTime="0.00" speed="8.04" departed="14" arrived="14" entered="18" left="18" laneChangedFrom="0" laneChangedTo="0"/>
        <edge id="3o" sampledSeconds="946.81" traveltime="46.44" density="19.38" occupancy="9.69" waitingTime="0.00" speed="10.52" departed="0" arrived="0" entered="19" left="19" laneChangedFrom="0" laneChangedTo="0"/>
        <edge id="3si" sampledSeconds="952.18" traveltime="51.45" density="40.15" occupancy="6.69" waitingTime="427.00" speed="4.61" departed="0" arrived="0" entered="18" left="24" laneChangedFrom="0" laneChangedTo="0"/>
        <edge id="4fi" sampledSeconds="349.33" traveltime="22.72" density="14.06" occupancy="7.03" waitingTime="0.00" speed="10.94" departed="0" arrived="0" entered="15" left="16" laneChangedFrom="0" laneChangedTo="0"/>
        <edge id="4o" sampledSeconds="797.11" traveltime="47.27" density="16.31" occupancy="8.16" waitingTime="0.00" speed="10.34" departed="0" arrived="0" entered="16" left="15" laneChangedFrom="0" laneChangedTo="0"/>
        <edge id="4si" sampledSeconds="951.49" traveltime="48.73" density="40.12" occupancy="6.69" waitingTime="383.00" speed="4.87" departed="0" arrived="0" entered="16" left="27" laneChangedFrom="0" laneChangedTo="0"/>
    </interval>
</netstats>
