<?xml version="1.0"?>

<!-- generated on 09/20/10 13:43:04 by SUMO sumo Version dev-SVN-r8982
<configuration>

    <input>
        <net-file value="net.net.xml"/>
        <route-files value="input_routes.rou.xml"/>
        <additional-files value="input_additional.add.xml"/>
    </input>

    <time>
        <begin value="0"/>
        <end value="1000"/>
    </time>

    <report>
        <no-duration-log value="true"/>
        <no-step-log value="true"/>
    </report>

</configuration>
-->

<netstats>
    <interval begin="0.00" end="900.00" id="dump_900">
        <edge id="1fi" sampledSeconds="4826.85" traveltime="27.47" density="21.58" occupancy="10.79" waitingTime="0.00" speed="9.05" departed="80" arrived="14" entered="116" left="172" laneChangedFrom="0" laneChangedTo="0"/>
        <edge id="1o" sampledSeconds="5712.67" traveltime="46.99" density="12.99" occupancy="6.49" waitingTime="0.00" speed="10.40" departed="0" arrived="0" entered="126" left="116" laneChangedFrom="0" laneChangedTo="0"/>
        <edge id="1si" sampledSeconds="18900.55" traveltime="120.62" density="88.55" occupancy="14.76" waitingTime="12894.00" speed="1.97" departed="0" arrived="0" entered="172" left="136" laneChangedFrom="0" laneChangedTo="0"/>
        <edge id="2fi" sampledSeconds="4647.89" traveltime="28.35" density="20.78" occupancy="10.39" waitingTime="0.00" speed="8.76" departed="79" arrived="55" entered="146" left="160" laneChangedFrom="0" laneChangedTo="0"/>
        <edge id="2o" sampledSeconds="7069.98" traveltime="46.85" density="16.08" occupancy="8.04" waitingTime="0.00" speed="10.43" departed="0" arrived="0" entered="154" left="146" laneChangedFrom="0" laneChangedTo="0"/>
        <edge id="2si" sampledSeconds="7995.96" traveltime="51.31" density="37.46" occupancy="6.24" waitingTime="3756.00" speed="4.62" departed="0" arrived="0" entered="160" left="152" laneChangedFrom="0" laneChangedTo="0"/>
        <edge id="3fi" sampledSeconds="4727.00" traveltime="31.22" density="21.14" occupancy="10.57" waitingTime="0.00" speed="7.96" departed="137" arrived="76" entered="95" left="151" laneChangedFrom="0" laneChangedTo="0"/>
        <edge id="3o" sampledSeconds="4690.05" traveltime="46.28" density="10.66" occupancy="5.33" waitingTime="0.00" speed="10.56" departed="0" arrived="0" entered="110" left="95" laneChangedFrom="0" laneChangedTo="0"/>
        <edge id="3si" sampledSeconds="7524.83" traveltime="50.65" density="35.26" occupancy="5.88" waitingTime="3684.00" speed="4.68" departed="0" arrived="0" entered="151" left="133" laneChangedFrom="0" laneChangedTo="0"/>
        <edge id="4fi" sampledSeconds="3294.75" traveltime="22.72" density="14.73" occupancy="7.37" waitingTime="0.00" speed="10.94" departed="0" arrived="0" entered="145" left="144" laneChangedFrom="0" laneChangedTo="0"/>
        <edge id="4o" sampledSeconds="7014.50" traveltime="47.02" density="15.95" occupancy="7.97" waitingTime="0.00" speed="10.39" departed="0" arrived="0" entered="154" left="145" laneChangedFrom="0" laneChangedTo="0"/>
        <edge id="4si" sampledSeconds="6306.94" traveltime="45.35" density="29.55" occupancy="4.92" waitingTime="2824.00" speed="5.23" departed="0" arrived="0" entered="144" left="123" laneChangedFrom="0" laneChangedTo="0"/>
    </interval>
    <interval begin="0.00" end="900.00" id="dump_900">
        <edge id="1fi">
            <lane id="1fi_0" sampledSeconds="4826.85" traveltime="27.47" density="21.58" occupancy="10.79" waitingTime="0.00" speed="9.05" departed="80" arrived="14" entered="116" left="172" laneChangedFrom="0" laneChangedTo="0"/>
        </edge>
        <edge id="1o">
            <lane id="1o_0" sampledSeconds="5712.67" traveltime="46.99" density="12.99" occupancy="6.49" waitingTime="0.00" speed="10.40" departed="0" arrived="0" entered="126" left="116" laneChangedFrom="0" laneChangedTo="0"/>
        </edge>
        <edge id="1si">
            <lane id="1si_0" sampledSeconds="1932.05" traveltime="60.38" density="9.05" occupancy="4.53" waitingTime="1011.00" speed="3.93" departed="0" arrived="0" entered="32" left="32" laneChangedFrom="0" laneChangedTo="0"/>
            <lane id="1si_1" sampledSeconds="2119.25" traveltime="33.64" density="9.93" occupancy="4.96" waitingTime="621.00" speed="7.05" departed="0" arrived="0" entered="63" left="63" laneChangedFrom="0" laneChangedTo="0"/>
            <lane id="1si_2" sampledSeconds="14849.25" traveltime="240.69" density="69.57" occupancy="34.79" waitingTime="11262.00" speed="0.99" departed="0" arrived="0" entered="77" left="41" laneChangedFrom="0" laneChangedTo="0"/>
        </edge>
        <edge id="2fi">
            <lane id="2fi_0" sampledSeconds="4647.89" traveltime="28.35" density="20.78" occupancy="10.39" waitingTime="0.00" speed="8.76" departed="79" arrived="55" entered="146" left="160" laneChangedFrom="0" laneChangedTo="0"/>
        </edge>
        <edge id="2o">
            <lane id="2o_0" sampledSeconds="7069.98" traveltime="46.85" density="16.08" occupancy="8.04" waitingTime="0.00" speed="10.43" departed="0" arrived="0" entered="154" left="146" laneChangedFrom="0" laneChangedTo="0"/>
        </edge>
        <edge id="2si">
            <lane id="2si_0" sampledSeconds="3052.60" traveltime="55.96" density="14.30" occupancy="7.15" waitingTime="1475.00" speed="4.24" departed="0" arrived="0" entered="58" left="54" laneChangedFrom="0" laneChangedTo="0"/>
            <lane id="2si_1" sampledSeconds="3522.62" traveltime="46.17" density="16.50" occupancy="8.25" waitingTime="1554.00" speed="5.14" departed="0" arrived="0" entered="77" left="73" laneChangedFrom="0" laneChangedTo="0"/>
            <lane id="2si_2" sampledSeconds="1420.74" traveltime="56.83" density="6.66" occupancy="3.33" waitingTime="727.00" speed="4.17" departed="0" arrived="0" entered="25" left="25" laneChangedFrom="0" laneChangedTo="0"/>
        </edge>
        <edge id="3fi">
            <lane id="3fi_0" sampledSeconds="4727.00" traveltime="31.22" density="21.14" occupancy="10.57" waitingTime="0.00" speed="7.96" departed="137" arrived="76" entered="95" left="151" laneChangedFrom="0" laneChangedTo="0"/>
        </edge>
        <edge id="3o">
            <lane id="3o_0" sampledSeconds="4690.05" traveltime="46.28" density="10.66" occupancy="5.33" waitingTime="0.00" speed="10.56" departed="0" arrived="0" entered="110" left="95" laneChangedFrom="0" laneChangedTo="0"/>
        </edge>
        <edge id="3si">
            <lane id="3si_0" sampledSeconds="3204.41" traveltime="49.16" density="15.01" occupancy="7.51" waitingTime="1530.00" speed="4.82" departed="0" arrived="0" entered="66" left="60" laneChangedFrom="0" laneChangedTo="0"/>
            <lane id="3si_1" sampledSeconds="3377.91" traveltime="52.29" density="15.83" occupancy="7.91" waitingTime="1696.00" speed="4.54" departed="0" arrived="0" entered="66" left="59" laneChangedFrom="0" laneChangedTo="0"/>
            <lane id="3si_2" sampledSeconds="942.50" traveltime="50.17" density="4.42" occupancy="2.21" waitingTime="458.00" speed="4.73" departed="0" arrived="0" entered="19" left="14" laneChangedFrom="0" laneChangedTo="0"/>
        </edge>
        <edge id="4fi">
            <lane id="4fi_0" sampledSeconds="3294.75" traveltime="22.72" density="14.73" occupancy="7.37" waitingTime="0.00" speed="10.94" departed="0" arrived="0" entered="145" left="144" laneChangedFrom="0" laneChangedTo="0"/>
        </edge>
        <edge id="4o">
            <lane id="4o_0" sampledSeconds="7014.50" traveltime="47.02" density="15.95" occupancy="7.97" waitingTime="0.00" speed="10.39" departed="0" arrived="0" entered="154" left="145" laneChangedFrom="0" laneChangedTo="0"/>
        </edge>
        <edge id="4si">
            <lane id="4si_0" sampledSeconds="3117.98" traveltime="66.00" density="14.61" occupancy="7.30" waitingTime="1784.00" speed="3.59" departed="0" arrived="0" entered="48" left="39" laneChangedFrom="0" laneChangedTo="0"/>
            <lane id="4si_1" sampledSeconds="995.33" traveltime="18.34" density="4.66" occupancy="2.33" waitingTime="0.00" speed="12.93" departed="0" arrived="0" entered="58" left="53" laneChangedFrom="0" laneChangedTo="0"/>
            <lane id="4si_2" sampledSeconds="2193.64" traveltime="58.41" density="10.28" occupancy="5.14" waitingTime="1040.00" speed="4.06" departed="0" arrived="0" entered="38" left="31" laneChangedFrom="0" laneChangedTo="0"/>
        </edge>
    </interval>
    <interval begin="900.00" end="1000.00" id="dump_900">
        <edge id="1fi" sampledSeconds="825.29" traveltime="26.63" density="33.21" occupancy="16.61" waitingTime="0.00" speed="9.33" departed="10" arrived="5" entered="24" left="35" laneChangedFrom="0" laneChangedTo="0"/>
        <edge id="1o" sampledSeconds="1208.11" traveltime="47.12" density="24.72" occupancy="12.36" waitingTime="0.00" speed="10.37" departed="0" arrived="0" entered="25" left="24" laneChangedFrom="0" laneChangedTo="0"/>
        <edge id="1si" sampledSeconds="4582.21" traveltime="175.30" density="193.22" occupancy="32.20" waitingTime="3060.00" speed="1.35" departed="0" arrived="0" entered="35" left="20" laneChangedFrom="0" laneChangedTo="0"/>
        <edge id="2fi" sampledSeconds="694.42" traveltime="28.77" density="27.94" occupancy="13.97" waitingTime="0.00" speed="8.64" departed="10" arrived="8" entered="22" left="24" laneChangedFrom="0" laneChangedTo="0"/>
        <edge id="2o" sampledSeconds="1164.33" traveltime="46.96" density="23.83" occupancy="11.91" waitingTime="0.00" speed="10.40" departed="0" arrived="0" entered="24" left="23" laneChangedFrom="0" laneChangedTo="0"/>
        <edge id="2si" sampledSeconds="1198.46" traveltime="48.20" density="50.54" occupancy="8.42" waitingTime="526.00" speed="4.92" departed="0" arrived="0" entered="24" left="21" laneChangedFrom="0" laneChangedTo="0"/>
        <edge id="3fi" sampledSeconds="594.03" traveltime="30.61" density="23.90" occupancy="11.95" waitingTime="0.00" speed="8.12" departed="14" arrived="15" entered="21" left="18" laneChangedFrom="0" laneChangedTo="0"/>
        <edge id="3o" sampledSeconds="1054.48" traveltime="46.46" density="21.58" occupancy="10.79" waitingTime="0.00" speed="10.52" departed="0" arrived="0" entered="19" left="21" laneChangedFrom="0" laneChangedTo="0"/>
        <edge id="3si" sampledSeconds="1018.36" traveltime="53.47" density="42.94" occupancy="7.16" waitingTime="448.00" speed="4.44" departed="0" arrived="0" entered="18" left="25" laneChangedFrom="0" laneChangedTo="0"/>
        <edge id="4fi" sampledSeconds="363.56" traveltime="22.72" density="14.63" occupancy="7.32" waitingTime="0.00" speed="10.94" departed="0" arrived="0" entered="16" left="17" laneChangedFrom="0" laneChangedTo="0"/>
        <edge id="4o" sampledSeconds="859.70" traveltime="47.15" density="17.59" occupancy="8.80" waitingTime="0.00" speed="10.36" departed="0" arrived="0" entered="17" left="17" laneChangedFrom="0" laneChangedTo="0"/>
        <edge id="4si" sampledSeconds="937.02" traveltime="47.63" density="39.51" occupancy="6.59" waitingTime="394.00" speed="4.98" departed="0" arrived="0" entered="17" left="27" laneChangedFrom="0" laneChangedTo="0"/>
    </interval>
</netstats>
