<?xml version="1.0"?>

<!-- generated on 02/15/12 11:30:13 by SUMO sumo Version dev-SVN-r11891
<?xml version="1.0" encoding="UTF-8"?>

<configuration xmlns:xsi="http://www.w3.org/2001/XMLSchema-instance" xsi:noNamespaceSchemaLocation="http://sumo.sf.net/xsd/sumoConfiguration.xsd">

    <input>
        <net-file value="net.net.xml"/>
        <route-files value="input_routes.rou.xml"/>
        <additional-files value="input_additional.add.xml"/>
    </input>

    <time>
        <begin value="0"/>
        <end value="1000"/>
    </time>

    <report>
        <no-duration-log value="true"/>
        <no-step-log value="true"/>
    </report>

</configuration>
-->

<netstats>
    <interval begin="0.00" end="900.00" id="dump_900">
        <edge id="1fi" sampledSeconds="5092.05" traveltime="27.82" density="22.77" occupancy="6.83" waitingTime="0.00" speed="8.93" departed="77" arrived="1" entered="109" left="165" laneChangedFrom="0" laneChangedTo="0"/>
        <edge id="1o" sampledSeconds="5542.57" traveltime="48.02" density="12.60" occupancy="3.78" waitingTime="0.00" speed="10.18" departed="0" arrived="0" entered="118" left="109" laneChangedFrom="0" laneChangedTo="0"/>
        <edge id="1si" sampledSeconds="16591.86" traveltime="109.04" density="77.74" occupancy="7.77" waitingTime="9166.00" speed="2.17" departed="0" arrived="0" entered="165" left="131" laneChangedFrom="0" laneChangedTo="0"/>
        <edge id="2fi" sampledSeconds="5715.32" traveltime="27.90" density="25.55" occupancy="7.67" waitingTime="0.00" speed="8.91" departed="75" arrived="8" entered="133" left="151" laneChangedFrom="0" laneChangedTo="0"/>
        <edge id="2o" sampledSeconds="6592.45" traveltime="47.76" density="14.99" occupancy="4.50" waitingTime="0.00" speed="10.23" departed="0" arrived="0" entered="142" left="133" laneChangedFrom="0" laneChangedTo="0"/>
        <edge id="2si" sampledSeconds="8035.15" traveltime="54.09" density="37.65" occupancy="3.76" waitingTime="3637.00" speed="4.38" departed="0" arrived="0" entered="151" left="138" laneChangedFrom="0" laneChangedTo="0"/>
        <edge id="3fi" sampledSeconds="5933.62" traveltime="29.23" density="26.53" occupancy="7.96" waitingTime="0.00" speed="8.50" departed="115" arrived="12" entered="91" left="132" laneChangedFrom="0" laneChangedTo="0"/>
        <edge id="3o" sampledSeconds="4628.60" traveltime="48.17" density="10.52" occupancy="3.16" waitingTime="0.00" speed="10.15" departed="0" arrived="0" entered="100" left="91" laneChangedFrom="0" laneChangedTo="0"/>
        <edge id="3si" sampledSeconds="6113.55" traveltime="46.41" density="28.64" occupancy="2.86" waitingTime="2607.00" speed="5.11" departed="0" arrived="0" entered="132" left="118" laneChangedFrom="0" laneChangedTo="0"/>
        <edge id="4fi" sampledSeconds="2997.27" traveltime="22.78" density="13.40" occupancy="4.02" waitingTime="0.00" speed="10.91" departed="0" arrived="0" entered="130" left="130" laneChangedFrom="0" laneChangedTo="0"/>
        <edge id="4o" sampledSeconds="6346.80" traveltime="47.07" density="14.43" occupancy="4.33" waitingTime="0.00" speed="10.38" departed="0" arrived="0" entered="141" left="130" laneChangedFrom="0" laneChangedTo="0"/>
        <edge id="4si" sampledSeconds="5541.69" traveltime="43.30" density="25.96" occupancy="2.60" waitingTime="2150.00" speed="5.48" departed="0" arrived="0" entered="130" left="115" laneChangedFrom="0" laneChangedTo="0"/>
    </interval>
    <interval begin="0.00" end="900.00" id="dump_900">
        <edge id="1fi">
            <lane id="1fi_0" sampledSeconds="5092.05" traveltime="27.82" density="22.77" occupancy="6.83" waitingTime="0.00" speed="8.93" departed="77" arrived="1" entered="109" left="165" laneChangedFrom="0" laneChangedTo="0"/>
        </edge>
        <edge id="1o">
            <lane id="1o_0" sampledSeconds="5542.57" traveltime="48.02" density="12.60" occupancy="3.78" waitingTime="0.00" speed="10.18" departed="0" arrived="0" entered="118" left="109" laneChangedFrom="0" laneChangedTo="0"/>
        </edge>
        <edge id="1si">
            <lane id="1si_0" sampledSeconds="1712.60" traveltime="55.98" density="8.02" occupancy="2.41" waitingTime="773.00" speed="4.24" departed="0" arrived="0" entered="32" left="30" laneChangedFrom="0" laneChangedTo="0"/>
            <lane id="1si_1" sampledSeconds="1203.23" traveltime="20.15" density="5.64" occupancy="1.69" waitingTime="110.00" speed="11.77" departed="0" arrived="0" entered="59" left="58" laneChangedFrom="0" laneChangedTo="0"/>
            <lane id="1si_2" sampledSeconds="13676.03" traveltime="221.13" density="64.08" occupancy="19.22" waitingTime="8283.00" speed="1.07" departed="0" arrived="0" entered="74" left="43" laneChangedFrom="0" laneChangedTo="0"/>
        </edge>
        <edge id="2fi">
            <lane id="2fi_0" sampledSeconds="5715.32" traveltime="27.90" density="25.55" occupancy="7.67" waitingTime="0.00" speed="8.91" departed="75" arrived="8" entered="133" left="151" laneChangedFrom="0" laneChangedTo="0"/>
        </edge>
        <edge id="2o">
            <lane id="2o_0" sampledSeconds="6592.45" traveltime="47.76" density="14.99" occupancy="4.50" waitingTime="0.00" speed="10.23" departed="0" arrived="0" entered="142" left="133" laneChangedFrom="0" laneChangedTo="0"/>
        </edge>
        <edge id="2si">
            <lane id="2si_0" sampledSeconds="2695.13" traveltime="55.67" density="12.63" occupancy="3.79" waitingTime="1246.00" speed="4.26" departed="0" arrived="0" entered="51" left="47" laneChangedFrom="0" laneChangedTo="0"/>
            <lane id="2si_1" sampledSeconds="3525.12" traveltime="48.95" density="16.52" occupancy="4.95" waitingTime="1586.00" speed="4.84" departed="0" arrived="0" entered="72" left="67" laneChangedFrom="0" laneChangedTo="0"/>
            <lane id="2si_2" sampledSeconds="1814.89" traveltime="64.52" density="8.50" occupancy="2.55" waitingTime="805.00" speed="3.68" departed="0" arrived="0" entered="28" left="24" laneChangedFrom="0" laneChangedTo="0"/>
        </edge>
        <edge id="3fi">
            <lane id="3fi_0" sampledSeconds="5933.62" traveltime="29.23" density="26.53" occupancy="7.96" waitingTime="0.00" speed="8.50" departed="115" arrived="12" entered="91" left="132" laneChangedFrom="0" laneChangedTo="0"/>
        </edge>
        <edge id="3o">
            <lane id="3o_0" sampledSeconds="4628.60" traveltime="48.17" density="10.52" occupancy="3.16" waitingTime="0.00" speed="10.15" departed="0" arrived="0" entered="100" left="91" laneChangedFrom="0" laneChangedTo="0"/>
        </edge>
        <edge id="3si">
            <lane id="3si_0" sampledSeconds="2659.83" traveltime="47.64" density="12.46" occupancy="3.74" waitingTime="1192.00" speed="4.98" departed="0" arrived="0" entered="56" left="52" laneChangedFrom="0" laneChangedTo="0"/>
            <lane id="3si_1" sampledSeconds="2637.16" traveltime="47.53" density="12.36" occupancy="3.71" waitingTime="1170.00" speed="4.99" departed="0" arrived="0" entered="55" left="51" laneChangedFrom="0" laneChangedTo="0"/>
            <lane id="3si_2" sampledSeconds="816.56" traveltime="39.99" density="3.83" occupancy="1.15" waitingTime="245.00" speed="5.93" departed="0" arrived="0" entered="21" left="15" laneChangedFrom="0" laneChangedTo="0"/>
        </edge>
        <edge id="4fi">
            <lane id="4fi_0" sampledSeconds="2997.27" traveltime="22.78" density="13.40" occupancy="4.02" waitingTime="0.00" speed="10.91" departed="0" arrived="0" entered="130" left="130" laneChangedFrom="0" laneChangedTo="0"/>
        </edge>
        <edge id="4o">
            <lane id="4o_0" sampledSeconds="6346.80" traveltime="47.07" density="14.43" occupancy="4.33" waitingTime="0.00" speed="10.38" departed="0" arrived="0" entered="141" left="130" laneChangedFrom="0" laneChangedTo="0"/>
        </edge>
        <edge id="4si">
            <lane id="4si_0" sampledSeconds="2543.32" traveltime="60.43" density="11.92" occupancy="3.57" waitingTime="1310.00" speed="3.92" departed="0" arrived="0" entered="42" left="36" laneChangedFrom="0" laneChangedTo="0"/>
            <lane id="4si_1" sampledSeconds="950.85" traveltime="19.50" density="4.45" occupancy="1.34" waitingTime="57.00" speed="12.16" departed="0" arrived="0" entered="51" left="47" laneChangedFrom="0" laneChangedTo="0"/>
            <lane id="4si_2" sampledSeconds="2047.53" traveltime="55.11" density="9.59" occupancy="2.88" waitingTime="783.00" speed="4.30" departed="0" arrived="0" entered="37" left="32" laneChangedFrom="0" laneChangedTo="0"/>
        </edge>
    </interval>
    <interval begin="900.00" end="1000.00" id="dump_900">
        <edge id="1fi" sampledSeconds="843.86" traveltime="27.73" density="33.96" occupancy="10.19" waitingTime="0.00" speed="8.96" departed="9" arrived="1" entered="21" left="27" laneChangedFrom="0" laneChangedTo="0"/>
        <edge id="1o" sampledSeconds="1125.64" traveltime="48.19" density="23.04" occupancy="6.91" waitingTime="0.00" speed="10.14" departed="0" arrived="0" entered="25" left="21" laneChangedFrom="0" laneChangedTo="0"/>
        <edge id="1si" sampledSeconds="4028.88" traveltime="166.30" density="169.89" occupancy="16.99" waitingTime="2284.00" speed="1.43" departed="0" arrived="0" entered="27" left="18" laneChangedFrom="0" laneChangedTo="0"/>
        <edge id="2fi" sampledSeconds="819.31" traveltime="28.51" density="32.97" occupancy="9.89" waitingTime="0.00" speed="8.72" departed="10" arrived="0" entered="18" left="20" laneChangedFrom="0" laneChangedTo="0"/>
        <edge id="2o" sampledSeconds="1008.57" traveltime="48.39" density="20.64" occupancy="6.19" waitingTime="0.00" speed="10.10" departed="0" arrived="0" entered="20" left="18" laneChangedFrom="0" laneChangedTo="0"/>
        <edge id="2si" sampledSeconds="1535.69" traveltime="73.56" density="64.76" occupancy="6.48" waitingTime="844.00" speed="3.22" departed="0" arrived="0" entered="19" left="20" laneChangedFrom="0" laneChangedTo="0"/>
        <edge id="3fi" sampledSeconds="790.13" traveltime="28.91" density="31.80" occupancy="9.54" waitingTime="0.00" speed="8.59" departed="13" arrived="7" entered="14" left="14" laneChangedFrom="0" laneChangedTo="0"/>
        <edge id="3o" sampledSeconds="777.69" traveltime="48.49" density="15.92" occupancy="4.77" waitingTime="0.00" speed="10.08" departed="0" arrived="0" entered="16" left="15" laneChangedFrom="0" laneChangedTo="0"/>
        <edge id="3si" sampledSeconds="774.80" traveltime="52.24" density="32.67" occupancy="3.27" waitingTime="306.00" speed="4.54" departed="0" arrived="0" entered="14" left="22" laneChangedFrom="0" laneChangedTo="0"/>
        <edge id="4fi" sampledSeconds="364.17" traveltime="22.79" density="14.65" occupancy="4.40" waitingTime="0.00" speed="10.90" departed="0" arrived="0" entered="17" left="15" laneChangedFrom="0" laneChangedTo="0"/>
        <edge id="4o" sampledSeconds="807.31" traveltime="46.76" density="16.52" occupancy="4.96" waitingTime="0.00" speed="10.45" departed="0" arrived="0" entered="14" left="17" laneChangedFrom="0" laneChangedTo="0"/>
        <edge id="4si" sampledSeconds="806.28" traveltime="44.49" density="34.00" occupancy="3.40" waitingTime="272.00" speed="5.33" departed="0" arrived="0" entered="15" left="22" laneChangedFrom="0" laneChangedTo="0"/>
    </interval>
</netstats>
