<?xml version="1.0"?>

<!-- generated on Fri Feb  1 14:30:30 2013 by SUMO sumo Version dev-SVN-r13266
<?xml version="1.0" encoding="UTF-8"?>

<configuration xmlns:xsi="http://www.w3.org/2001/XMLSchema-instance" xsi:noNamespaceSchemaLocation="http://sumo.sf.net/xsd/sumoConfiguration.xsd">

    <input>
        <net-file value="net.net.xml"/>
        <route-files value="input_routes.rou.xml"/>
        <additional-files value="input_additional.add.xml"/>
    </input>

    <time>
        <begin value="0"/>
        <end value="1000"/>
    </time>

    <report>
        <no-duration-log value="true"/>
        <no-step-log value="true"/>
    </report>

</configuration>
-->

<netstats>
    <interval begin="0.00" end="300.00" id="dump_300">
        <edge id="1fi" sampledSeconds="708.19" traveltime="29.75" density="9.50" occupancy="2.85" waitingTime="0.00" speed="8.35" departed="19" arrived="0" entered="11" left="19" laneChangedFrom="0" laneChangedTo="0"/>
        <edge id="1o" sampledSeconds="508.04" traveltime="45.90" density="3.47" occupancy="1.04" waitingTime="0.00" speed="10.65" departed="0" arrived="0" entered="11" left="11" laneChangedFrom="0" laneChangedTo="0"/>
        <edge id="1si" sampledSeconds="882.10" traveltime="49.34" density="12.40" occupancy="1.24" waitingTime="404.00" speed="4.81" departed="0" arrived="0" entered="19" left="10" laneChangedFrom="0" laneChangedTo="0"/>
        <edge id="2fi" sampledSeconds="784.42" traveltime="30.05" density="10.52" occupancy="3.16" waitingTime="0.00" speed="8.27" departed="20" arrived="0" entered="9" left="24" laneChangedFrom="0" laneChangedTo="0"/>
        <edge id="2o" sampledSeconds="545.26" traveltime="48.65" density="3.72" occupancy="1.12" waitingTime="0.00" speed="10.04" departed="0" arrived="0" entered="17" left="9" laneChangedFrom="0" laneChangedTo="0"/>
        <edge id="2si" sampledSeconds="846.90" traveltime="37.81" density="11.90" occupancy="1.19" waitingTime="314.00" speed="6.27" departed="0" arrived="0" entered="24" left="11" laneChangedFrom="0" laneChangedTo="0"/>
        <edge id="3fi" sampledSeconds="1172.33" traveltime="32.10" density="15.73" occupancy="4.72" waitingTime="1.00" speed="7.74" departed="40" arrived="0" entered="0" left="34" laneChangedFrom="0" laneChangedTo="0"/>
        <edge id="3o" sampledSeconds="91.41" traveltime="44.70" density="0.62" occupancy="0.19" waitingTime="0.00" speed="10.93" departed="0" arrived="0" entered="6" left="0" laneChangedFrom="0" laneChangedTo="0"/>
        <edge id="3si" sampledSeconds="1237.06" traveltime="37.85" density="17.39" occupancy="1.74" waitingTime="418.00" speed="6.27" departed="0" arrived="0" entered="34" left="31" laneChangedFrom="0" laneChangedTo="0"/>
        <edge id="4fi" sampledSeconds="207.36" traveltime="22.77" density="2.78" occupancy="0.83" waitingTime="0.00" speed="10.92" departed="0" arrived="0" entered="9" left="9" laneChangedFrom="0" laneChangedTo="0"/>
        <edge id="4o" sampledSeconds="701.02" traveltime="47.08" density="4.78" occupancy="1.43" waitingTime="0.00" speed="10.38" departed="0" arrived="0" entered="23" left="9" laneChangedFrom="0" laneChangedTo="0"/>
        <edge id="4si" sampledSeconds="281.96" traveltime="31.07" density="3.96" occupancy="0.40" waitingTime="92.00" speed="7.63" departed="0" arrived="0" entered="9" left="8" laneChangedFrom="0" laneChangedTo="0"/>
    </interval>
    <interval begin="0.00" end="300.00" id="dump_300">
        <edge id="1fi">
            <lane id="1fi_0" sampledSeconds="708.19" traveltime="29.75" density="9.50" occupancy="2.85" waitingTime="0.00" speed="8.35" departed="19" arrived="0" entered="11" left="19" laneChangedFrom="0" laneChangedTo="0"/>
        </edge>
        <edge id="1o">
            <lane id="1o_0" sampledSeconds="508.04" traveltime="45.90" density="3.47" occupancy="1.04" waitingTime="0.00" speed="10.65" departed="0" arrived="0" entered="11" left="11" laneChangedFrom="0" laneChangedTo="0"/>
        </edge>
        <edge id="1si">
            <lane id="1si_0" sampledSeconds="0.00" departed="0" arrived="0" entered="0" left="0" laneChangedFrom="0" laneChangedTo="0"/>
            <lane id="1si_1" sampledSeconds="35.91" traveltime="17.73" density="0.50" occupancy="0.15" waitingTime="0.00" speed="13.38" departed="0" arrived="0" entered="2" left="2" laneChangedFrom="0" laneChangedTo="0"/>
            <lane id="1si_2" sampledSeconds="846.19" traveltime="53.37" density="11.89" occupancy="3.57" waitingTime="404.00" speed="4.44" departed="0" arrived="0" entered="17" left="8" laneChangedFrom="0" laneChangedTo="0"/>
        </edge>
        <edge id="2fi">
            <lane id="2fi_0" sampledSeconds="784.42" traveltime="30.05" density="10.52" occupancy="3.16" waitingTime="0.00" speed="8.27" departed="20" arrived="0" entered="9" left="24" laneChangedFrom="0" laneChangedTo="0"/>
        </edge>
        <edge id="2o">
            <lane id="2o_0" sampledSeconds="545.26" traveltime="48.65" density="3.72" occupancy="1.12" waitingTime="0.00" speed="10.04" departed="0" arrived="0" entered="17" left="9" laneChangedFrom="0" laneChangedTo="0"/>
        </edge>
        <edge id="2si">
            <lane id="2si_0" sampledSeconds="205.28" traveltime="31.66" density="2.89" occupancy="0.87" waitingTime="54.00" speed="7.49" departed="0" arrived="0" entered="7" left="0" laneChangedFrom="0" laneChangedTo="0"/>
            <lane id="2si_1" sampledSeconds="641.62" traveltime="40.31" density="9.02" occupancy="2.71" waitingTime="260.00" speed="5.88" departed="0" arrived="0" entered="17" left="11" laneChangedFrom="0" laneChangedTo="0"/>
            <lane id="2si_2" sampledSeconds="0.00" departed="0" arrived="0" entered="0" left="0" laneChangedFrom="0" laneChangedTo="0"/>
        </edge>
        <edge id="3fi">
            <lane id="3fi_0" sampledSeconds="1172.33" traveltime="32.10" density="15.73" occupancy="4.72" waitingTime="1.00" speed="7.74" departed="40" arrived="0" entered="0" left="34" laneChangedFrom="0" laneChangedTo="0"/>
        </edge>
        <edge id="3o">
            <lane id="3o_0" sampledSeconds="91.41" traveltime="44.70" density="0.62" occupancy="0.19" waitingTime="0.00" speed="10.93" departed="0" arrived="0" entered="6" left="0" laneChangedFrom="0" laneChangedTo="0"/>
        </edge>
        <edge id="3si">
            <lane id="3si_0" sampledSeconds="610.56" traveltime="36.85" density="8.58" occupancy="2.57" waitingTime="199.00" speed="6.44" departed="0" arrived="0" entered="17" left="16" laneChangedFrom="0" laneChangedTo="0"/>
            <lane id="3si_1" sampledSeconds="626.50" traveltime="38.87" density="8.81" occupancy="2.64" waitingTime="219.00" speed="6.10" departed="0" arrived="0" entered="17" left="15" laneChangedFrom="0" laneChangedTo="0"/>
            <lane id="3si_2" sampledSeconds="0.00" departed="0" arrived="0" entered="0" left="0" laneChangedFrom="0" laneChangedTo="0"/>
        </edge>
        <edge id="4fi">
            <lane id="4fi_0" sampledSeconds="207.36" traveltime="22.77" density="2.78" occupancy="0.83" waitingTime="0.00" speed="10.92" departed="0" arrived="0" entered="9" left="9" laneChangedFrom="0" laneChangedTo="0"/>
        </edge>
        <edge id="4o">
            <lane id="4o_0" sampledSeconds="701.02" traveltime="47.08" density="4.78" occupancy="1.43" waitingTime="0.00" speed="10.38" departed="0" arrived="0" entered="23" left="9" laneChangedFrom="0" laneChangedTo="0"/>
        </edge>
        <edge id="4si">
            <lane id="4si_0" sampledSeconds="0.00" departed="0" arrived="0" entered="0" left="0" laneChangedFrom="0" laneChangedTo="0"/>
            <lane id="4si_1" sampledSeconds="107.86" traveltime="17.75" density="1.52" occupancy="0.45" waitingTime="0.00" speed="13.36" departed="0" arrived="0" entered="6" left="6" laneChangedFrom="0" laneChangedTo="0"/>
            <lane id="4si_2" sampledSeconds="174.10" traveltime="58.05" density="2.45" occupancy="0.73" waitingTime="92.00" speed="4.09" departed="0" arrived="0" entered="3" left="2" laneChangedFrom="0" laneChangedTo="0"/>
        </edge>
    </interval>
    <interval begin="900.00" end="1000.00" id="dump_300">
        <edge id="1fi" sampledSeconds="1217.22" traveltime="42.24" density="48.98" occupancy="14.69" waitingTime="170.00" speed="5.88" departed="11" arrived="3" entered="18" left="17" laneChangedFrom="0" laneChangedTo="0"/>
        <edge id="1o" sampledSeconds="1001.42" traveltime="47.74" density="20.49" occupancy="6.15" waitingTime="0.00" speed="10.24" departed="0" arrived="0" entered="22" left="18" laneChangedFrom="0" laneChangedTo="0"/>
        <edge id="1si" sampledSeconds="5122.65" traveltime="261.32" density="216.01" occupancy="21.60" waitingTime="2981.00" speed="0.91" departed="0" arrived="0" entered="18" left="12" laneChangedFrom="0" laneChangedTo="0"/>
        <edge id="2fi" sampledSeconds="911.04" traveltime="27.74" density="36.66" occupancy="11.00" waitingTime="0.00" speed="8.96" departed="11" arrived="10" entered="21" left="22" laneChangedFrom="0" laneChangedTo="0"/>
        <edge id="2o" sampledSeconds="757.56" traveltime="52.53" density="15.50" occupancy="4.65" waitingTime="0.00" speed="9.30" departed="0" arrived="0" entered="11" left="21" laneChangedFrom="0" laneChangedTo="0"/>
        <edge id="2si" sampledSeconds="1266.06" traveltime="54.32" density="53.39" occupancy="5.34" waitingTime="536.00" speed="4.37" departed="0" arrived="0" entered="22" left="20" laneChangedFrom="0" laneChangedTo="0"/>
        <edge id="3fi" sampledSeconds="876.01" traveltime="28.42" density="35.25" occupancy="10.58" waitingTime="0.00" speed="8.74" departed="14" arrived="15" entered="17" left="16" laneChangedFrom="0" laneChangedTo="0"/>
        <edge id="3o" sampledSeconds="956.88" traveltime="47.35" density="19.58" occupancy="5.87" waitingTime="0.00" speed="10.32" departed="0" arrived="0" entered="19" left="17" laneChangedFrom="0" laneChangedTo="0"/>
        <edge id="3si" sampledSeconds="843.80" traveltime="51.03" density="35.58" occupancy="3.56" waitingTime="349.00" speed="4.65" departed="0" arrived="0" entered="16" left="21" laneChangedFrom="0" laneChangedTo="0"/>
        <edge id="4fi" sampledSeconds="369.00" traveltime="22.79" density="14.85" occupancy="4.45" waitingTime="0.00" speed="10.91" departed="0" arrived="0" entered="17" left="16" laneChangedFrom="0" laneChangedTo="0"/>
        <edge id="4o" sampledSeconds="820.34" traveltime="46.95" density="16.79" occupancy="5.04" waitingTime="0.00" speed="10.41" departed="0" arrived="0" entered="16" left="17" laneChangedFrom="0" laneChangedTo="0"/>
        <edge id="4si" sampledSeconds="813.08" traveltime="44.72" density="34.29" occupancy="3.43" waitingTime="297.00" speed="5.30" departed="0" arrived="0" entered="16" left="22" laneChangedFrom="0" laneChangedTo="0"/>
    </interval>
</netstats>
