<?xml version="1.0"?>

<!-- generated on 11/11/09 15:30:57 by SUMO sumo Version dev-SVN-r7969
<configuration>

    <input>
        <net-file value="net.net.xml"/>
        <route-files value="input_routes.rou.xml"/>
        <additional-files value="input_additional.add.xml"/>
    </input>

    <time>
        <begin value="0"/>
        <end value="1000"/>
    </time>

    <report>
        <no-duration-log value="true"/>
        <no-step-log value="true"/>
    </report>

</configuration>
-->

<netstats>
   <interval begin="0" end="60" id="dump_60">
      <edge id="1fi" sampledSeconds="0.00" departed="0" arrived="0" entered="0" left="0" laneChangedFrom="0" laneChangedTo="0"/>
      <edge id="1o" sampledSeconds="0.00" departed="0" arrived="0" entered="0" left="0" laneChangedFrom="0" laneChangedTo="0"/>
      <edge id="1si" sampledSeconds="0.00" departed="0" arrived="0" entered="0" left="0" laneChangedFrom="0" laneChangedTo="0"/>
      <edge id="2fi" sampledSeconds="0.00" departed="0" arrived="0" entered="0" left="0" laneChangedFrom="0" laneChangedTo="0"/>
      <edge id="2o" sampledSeconds="0.00" departed="0" arrived="0" entered="0" left="0" laneChangedFrom="0" laneChangedTo="0"/>
      <edge id="2si" sampledSeconds="0.00" departed="0" arrived="0" entered="0" left="0" laneChangedFrom="0" laneChangedTo="0"/>
      <edge id="3fi" sampledSeconds="0.00" departed="0" arrived="0" entered="0" left="0" laneChangedFrom="0" laneChangedTo="0"/>
      <edge id="3o" sampledSeconds="0.00" departed="0" arrived="0" entered="0" left="0" laneChangedFrom="0" laneChangedTo="0"/>
      <edge id="3si" sampledSeconds="0.00" departed="0" arrived="0" entered="0" left="0" laneChangedFrom="0" laneChangedTo="0"/>
      <edge id="4fi" sampledSeconds="0.00" departed="0" arrived="0" entered="0" left="0" laneChangedFrom="0" laneChangedTo="0"/>
      <edge id="4o" sampledSeconds="0.00" departed="0" arrived="0" entered="0" left="0" laneChangedFrom="0" laneChangedTo="0"/>
      <edge id="4si" sampledSeconds="0.00" departed="0" arrived="0" entered="0" left="0" laneChangedFrom="0" laneChangedTo="0"/>
   </interval>
   <interval begin="0" end="60" id="dump_60">
      <edge id="1fi">
         <lane id="1fi_0" sampledSeconds="0.00" departed="0" arrived="0" entered="0" left="0" laneChangedFrom="0" laneChangedTo="0"/>
      </edge>
      <edge id="1o">
         <lane id="1o_0" sampledSeconds="0.00" departed="0" arrived="0" entered="0" left="0" laneChangedFrom="0" laneChangedTo="0"/>
      </edge>
      <edge id="1si">
         <lane id="1si_0" sampledSeconds="0.00" departed="0" arrived="0" entered="0" left="0" laneChangedFrom="0" laneChangedTo="0"/>
         <lane id="1si_1" sampledSeconds="0.00" departed="0" arrived="0" entered="0" left="0" laneChangedFrom="0" laneChangedTo="0"/>
         <lane id="1si_2" sampledSeconds="0.00" departed="0" arrived="0" entered="0" left="0" laneChangedFrom="0" laneChangedTo="0"/>
      </edge>
      <edge id="2fi">
         <lane id="2fi_0" sampledSeconds="0.00" departed="0" arrived="0" entered="0" left="0" laneChangedFrom="0" laneChangedTo="0"/>
      </edge>
      <edge id="2o">
         <lane id="2o_0" sampledSeconds="0.00" departed="0" arrived="0" entered="0" left="0" laneChangedFrom="0" laneChangedTo="0"/>
      </edge>
      <edge id="2si">
         <lane id="2si_0" sampledSeconds="0.00" departed="0" arrived="0" entered="0" left="0" laneChangedFrom="0" laneChangedTo="0"/>
         <lane id="2si_1" sampledSeconds="0.00" departed="0" arrived="0" entered="0" left="0" laneChangedFrom="0" laneChangedTo="0"/>
         <lane id="2si_2" sampledSeconds="0.00" departed="0" arrived="0" entered="0" left="0" laneChangedFrom="0" laneChangedTo="0"/>
      </edge>
      <edge id="3fi">
         <lane id="3fi_0" sampledSeconds="0.00" departed="0" arrived="0" entered="0" left="0" laneChangedFrom="0" laneChangedTo="0"/>
      </edge>
      <edge id="3o">
         <lane id="3o_0" sampledSeconds="0.00" departed="0" arrived="0" entered="0" left="0" laneChangedFrom="0" laneChangedTo="0"/>
      </edge>
      <edge id="3si">
         <lane id="3si_0" sampledSeconds="0.00" departed="0" arrived="0" entered="0" left="0" laneChangedFrom="0" laneChangedTo="0"/>
         <lane id="3si_1" sampledSeconds="0.00" departed="0" arrived="0" entered="0" left="0" laneChangedFrom="0" laneChangedTo="0"/>
         <lane id="3si_2" sampledSeconds="0.00" departed="0" arrived="0" entered="0" left="0" laneChangedFrom="0" laneChangedTo="0"/>
      </edge>
      <edge id="4fi">
         <lane id="4fi_0" sampledSeconds="0.00" departed="0" arrived="0" entered="0" left="0" laneChangedFrom="0" laneChangedTo="0"/>
      </edge>
      <edge id="4o">
         <lane id="4o_0" sampledSeconds="0.00" departed="0" arrived="0" entered="0" left="0" laneChangedFrom="0" laneChangedTo="0"/>
      </edge>
      <edge id="4si">
         <lane id="4si_0" sampledSeconds="0.00" departed="0" arrived="0" entered="0" left="0" laneChangedFrom="0" laneChangedTo="0"/>
         <lane id="4si_1" sampledSeconds="0.00" departed="0" arrived="0" entered="0" left="0" laneChangedFrom="0" laneChangedTo="0"/>
         <lane id="4si_2" sampledSeconds="0.00" departed="0" arrived="0" entered="0" left="0" laneChangedFrom="0" laneChangedTo="0"/>
      </edge>
   </interval>
   <interval begin="60" end="120" id="dump_60">
      <edge id="1fi" sampledSeconds="28.00" traveltime="54.62" density="1.88" occupancy="0.94" waitingTime="0.00" speed="4.55" departed="2" arrived="0" entered="0" left="0" laneChangedFrom="0" laneChangedTo="0"/>
      <edge id="1o" sampledSeconds="0.00" departed="0" arrived="0" entered="0" left="0" laneChangedFrom="0" laneChangedTo="0"/>
      <edge id="1si" sampledSeconds="0.00" departed="0" arrived="0" entered="0" left="0" laneChangedFrom="0" laneChangedTo="0"/>
      <edge id="2fi" sampledSeconds="28.00" traveltime="49.47" density="1.88" occupancy="0.94" waitingTime="0.00" speed="5.02" departed="2" arrived="0" entered="0" left="0" laneChangedFrom="0" laneChangedTo="0"/>
      <edge id="2o" sampledSeconds="0.00" departed="0" arrived="0" entered="0" left="0" laneChangedFrom="0" laneChangedTo="0"/>
      <edge id="2si" sampledSeconds="0.00" departed="0" arrived="0" entered="0" left="0" laneChangedFrom="0" laneChangedTo="0"/>
      <edge id="3fi" sampledSeconds="48.00" traveltime="52.64" density="3.22" occupancy="1.61" waitingTime="0.00" speed="4.72" departed="4" arrived="0" entered="0" left="0" laneChangedFrom="0" laneChangedTo="0"/>
      <edge id="3o" sampledSeconds="0.00" departed="0" arrived="0" entered="0" left="0" laneChangedFrom="0" laneChangedTo="0"/>
      <edge id="3si" sampledSeconds="0.00" departed="0" arrived="0" entered="0" left="0" laneChangedFrom="0" laneChangedTo="0"/>
      <edge id="4fi" sampledSeconds="0.00" departed="0" arrived="0" entered="0" left="0" laneChangedFrom="0" laneChangedTo="0"/>
      <edge id="4o" sampledSeconds="0.00" departed="0" arrived="0" entered="0" left="0" laneChangedFrom="0" laneChangedTo="0"/>
      <edge id="4si" sampledSeconds="0.00" departed="0" arrived="0" entered="0" left="0" laneChangedFrom="0" laneChangedTo="0"/>
   </interval>
   <interval begin="60" end="120" id="dump_60">
      <edge id="1fi">
         <lane id="1fi_0" sampledSeconds="28.00" traveltime="54.62" density="1.88" occupancy="0.94" waitingTime="0.00" speed="4.55" departed="2" arrived="0" entered="0" left="0" laneChangedFrom="0" laneChangedTo="0"/>
      </edge>
      <edge id="1o">
         <lane id="1o_0" sampledSeconds="0.00" departed="0" arrived="0" entered="0" left="0" laneChangedFrom="0" laneChangedTo="0"/>
      </edge>
      <edge id="1si">
         <lane id="1si_0" sampledSeconds="0.00" departed="0" arrived="0" entered="0" left="0" laneChangedFrom="0" laneChangedTo="0"/>
         <lane id="1si_1" sampledSeconds="0.00" departed="0" arrived="0" entered="0" left="0" laneChangedFrom="0" laneChangedTo="0"/>
         <lane id="1si_2" sampledSeconds="0.00" departed="0" arrived="0" entered="0" left="0" laneChangedFrom="0" laneChangedTo="0"/>
      </edge>
      <edge id="2fi">
         <lane id="2fi_0" sampledSeconds="28.00" traveltime="49.47" density="1.88" occupancy="0.94" waitingTime="0.00" speed="5.02" departed="2" arrived="0" entered="0" left="0" laneChangedFrom="0" laneChangedTo="0"/>
      </edge>
      <edge id="2o">
         <lane id="2o_0" sampledSeconds="0.00" departed="0" arrived="0" entered="0" left="0" laneChangedFrom="0" laneChangedTo="0"/>
      </edge>
      <edge id="2si">
         <lane id="2si_0" sampledSeconds="0.00" departed="0" arrived="0" entered="0" left="0" laneChangedFrom="0" laneChangedTo="0"/>
         <lane id="2si_1" sampledSeconds="0.00" departed="0" arrived="0" entered="0" left="0" laneChangedFrom="0" laneChangedTo="0"/>
         <lane id="2si_2" sampledSeconds="0.00" departed="0" arrived="0" entered="0" left="0" laneChangedFrom="0" laneChangedTo="0"/>
      </edge>
      <edge id="3fi">
         <lane id="3fi_0" sampledSeconds="48.00" traveltime="52.64" density="3.22" occupancy="1.61" waitingTime="0.00" speed="4.72" departed="4" arrived="0" entered="0" left="0" laneChangedFrom="0" laneChangedTo="0"/>
      </edge>
      <edge id="3o">
         <lane id="3o_0" sampledSeconds="0.00" departed="0" arrived="0" entered="0" left="0" laneChangedFrom="0" laneChangedTo="0"/>
      </edge>
      <edge id="3si">
         <lane id="3si_0" sampledSeconds="0.00" departed="0" arrived="0" entered="0" left="0" laneChangedFrom="0" laneChangedTo="0"/>
         <lane id="3si_1" sampledSeconds="0.00" departed="0" arrived="0" entered="0" left="0" laneChangedFrom="0" laneChangedTo="0"/>
         <lane id="3si_2" sampledSeconds="0.00" departed="0" arrived="0" entered="0" left="0" laneChangedFrom="0" laneChangedTo="0"/>
      </edge>
      <edge id="4fi">
         <lane id="4fi_0" sampledSeconds="0.00" departed="0" arrived="0" entered="0" left="0" laneChangedFrom="0" laneChangedTo="0"/>
      </edge>
      <edge id="4o">
         <lane id="4o_0" sampledSeconds="0.00" departed="0" arrived="0" entered="0" left="0" laneChangedFrom="0" laneChangedTo="0"/>
      </edge>
      <edge id="4si">
         <lane id="4si_0" sampledSeconds="0.00" departed="0" arrived="0" entered="0" left="0" laneChangedFrom="0" laneChangedTo="0"/>
         <lane id="4si_1" sampledSeconds="0.00" departed="0" arrived="0" entered="0" left="0" laneChangedFrom="0" laneChangedTo="0"/>
         <lane id="4si_2" sampledSeconds="0.00" departed="0" arrived="0" entered="0" left="0" laneChangedFrom="0" laneChangedTo="0"/>
      </edge>
   </interval>
   <interval begin="900" end="960" id="dump_60">
      <edge id="1fi" sampledSeconds="483.99" traveltime="29.63" density="32.46" occupancy="16.23" waitingTime="0.00" speed="8.39" departed="7" arrived="2" entered="13" left="18" laneChangedFrom="0" laneChangedTo="0"/>
      <edge id="1o" sampledSeconds="584.59" traveltime="50.01" density="19.94" occupancy="9.97" waitingTime="0.00" speed="9.77" departed="0" arrived="0" entered="12" left="12" laneChangedFrom="0" laneChangedTo="0"/>
      <edge id="1si" sampledSeconds="2084.26" traveltime="121.77" density="146.48" occupancy="24.41" waitingTime="36.99" speed="1.95" departed="0" arrived="0" entered="18" left="10" laneChangedFrom="0" laneChangedTo="0"/>
      <edge id="2fi" sampledSeconds="346.94" traveltime="29.22" density="23.27" occupancy="11.63" waitingTime="0.00" speed="8.50" departed="7" arrived="9" entered="11" left="13" laneChangedFrom="0" laneChangedTo="0"/>
      <edge id="2o" sampledSeconds="636.73" traveltime="48.96" density="21.72" occupancy="10.86" waitingTime="0.00" speed="9.98" departed="0" arrived="0" entered="14" left="11" laneChangedFrom="0" laneChangedTo="0"/>
      <edge id="2si" sampledSeconds="1492.83" traveltime="94.31" density="104.91" occupancy="17.49" waitingTime="36.05" speed="2.51" departed="0" arrived="0" entered="14" left="11" laneChangedFrom="0" laneChangedTo="0"/>
      <edge id="3fi" sampledSeconds="339.43" traveltime="30.95" density="22.76" occupancy="11.38" waitingTime="0.00" speed="8.03" departed="8" arrived="10" entered="14" left="9" laneChangedFrom="0" laneChangedTo="0"/>
      <edge id="3o" sampledSeconds="580.25" traveltime="47.23" density="19.79" occupancy="9.90" waitingTime="0.00" speed="10.35" departed="0" arrived="0" entered="10" left="14" laneChangedFrom="0" laneChangedTo="0"/>
      <edge id="3si" sampledSeconds="396.70" traveltime="37.02" density="27.88" occupancy="4.65" waitingTime="16.03" speed="6.41" departed="0" arrived="0" entered="9" left="18" laneChangedFrom="0" laneChangedTo="0"/>
      <edge id="4fi" sampledSeconds="244.12" traveltime="22.74" density="16.37" occupancy="8.19" waitingTime="0.00" speed="10.93" departed="0" arrived="0" entered="13" left="8" laneChangedFrom="0" laneChangedTo="0"/>
      <edge id="4o" sampledSeconds="703.89" traveltime="46.66" density="24.01" occupancy="12.00" waitingTime="0.00" speed="10.47" departed="0" arrived="0" entered="13" left="13" laneChangedFrom="0" laneChangedTo="0"/>
      <edge id="4si" sampledSeconds="364.79" traveltime="37.56" density="25.64" occupancy="4.27" waitingTime="13.32" speed="6.31" departed="0" arrived="0" entered="7" left="17" laneChangedFrom="0" laneChangedTo="0"/>
   </interval>
   <interval begin="960" end="1000" id="dump_60">
      <edge id="1fi" sampledSeconds="321.40" traveltime="28.21" density="32.33" occupancy="16.17" waitingTime="0.00" speed="8.81" departed="4" arrived="3" entered="8" left="11" laneChangedFrom="0" laneChangedTo="0"/>
      <edge id="1o" sampledSeconds="429.87" traveltime="48.42" density="21.99" occupancy="11.00" waitingTime="0.00" speed="10.09" departed="0" arrived="0" entered="9" left="8" laneChangedFrom="0" laneChangedTo="0"/>
      <edge id="1si" sampledSeconds="1193.98" traveltime="115.48" density="125.87" occupancy="20.98" waitingTime="17.62" speed="2.05" departed="0" arrived="0" entered="11" left="15" laneChangedFrom="0" laneChangedTo="0"/>
      <edge id="2fi" sampledSeconds="348.54" traveltime="29.22" density="35.06" occupancy="17.53" waitingTime="0.00" speed="8.50" departed="4" arrived="0" entered="10" left="11" laneChangedFrom="0" laneChangedTo="0"/>
      <edge id="2o" sampledSeconds="541.70" traveltime="46.40" density="27.71" occupancy="13.86" waitingTime="0.00" speed="10.53" departed="0" arrived="0" entered="11" left="10" laneChangedFrom="0" laneChangedTo="0"/>
      <edge id="2si" sampledSeconds="736.01" traveltime="100.15" density="77.59" occupancy="12.93" waitingTime="22.17" speed="2.37" departed="0" arrived="0" entered="11" left="7" laneChangedFrom="0" laneChangedTo="0"/>
      <edge id="3fi" sampledSeconds="250.62" traveltime="31.15" density="25.21" occupancy="12.61" waitingTime="0.00" speed="7.98" departed="7" arrived="4" entered="4" left="9" laneChangedFrom="0" laneChangedTo="0"/>
      <edge id="3o" sampledSeconds="363.43" traveltime="49.41" density="18.59" occupancy="9.30" waitingTime="0.00" speed="9.89" departed="0" arrived="0" entered="7" left="4" laneChangedFrom="0" laneChangedTo="0"/>
      <edge id="3si" sampledSeconds="455.00" traveltime="49.47" density="47.97" occupancy="7.99" waitingTime="19.60" speed="4.79" departed="0" arrived="0" entered="9" left="9" laneChangedFrom="0" laneChangedTo="0"/>
      <edge id="4fi" sampledSeconds="217.32" traveltime="23.29" density="21.86" occupancy="10.93" waitingTime="0.00" speed="10.67" departed="0" arrived="0" entered="7" left="13" laneChangedFrom="0" laneChangedTo="0"/>
      <edge id="4o" sampledSeconds="374.70" traveltime="48.92" density="19.17" occupancy="9.59" waitingTime="0.00" speed="9.99" departed="0" arrived="0" entered="9" left="7" laneChangedFrom="0" laneChangedTo="0"/>
      <edge id="4si" sampledSeconds="489.24" traveltime="44.44" density="51.58" occupancy="8.60" waitingTime="17.33" speed="5.34" departed="0" arrived="0" entered="14" left="6" laneChangedFrom="0" laneChangedTo="0"/>
   </interval>
</netstats>
