<?xml version="1.0"?>

<!-- generated on 02/14/12 12:11:47 by SUMO sumo Version dev-SVN-r11888
<?xml version="1.0" encoding="UTF-8"?>

<configuration xmlns:xsi="http://www.w3.org/2001/XMLSchema-instance" xsi:noNamespaceSchemaLocation="http://sumo.sf.net/xsd/sumoConfiguration.xsd">

    <input>
        <net-file value="net.net.xml"/>
        <route-files value="input_routes.rou.xml"/>
        <additional-files value="input_additional.add.xml"/>
    </input>

    <time>
        <begin value="0"/>
        <end value="1000"/>
    </time>

    <report>
        <no-duration-log value="true"/>
        <no-step-log value="true"/>
    </report>

</configuration>
-->

<netstats>
    <interval begin="0.00" end="900.00" id="dump_900">
        <edge id="1fi" sampledSeconds="5330.65" traveltime="27.85" density="23.83" occupancy="7.15" waitingTime="0.00" speed="8.92" departed="78" arrived="0" entered="117" left="174" laneChangedFrom="0" laneChangedTo="0"/>
        <edge id="1o" sampledSeconds="5922.56" traveltime="48.30" density="13.47" occupancy="4.04" waitingTime="0.00" speed="10.12" departed="0" arrived="0" entered="126" left="117" laneChangedFrom="0" laneChangedTo="0"/>
        <edge id="1si" sampledSeconds="17071.53" traveltime="107.06" density="79.98" occupancy="8.00" waitingTime="9524.00" speed="2.22" departed="0" arrived="0" entered="174" left="137" laneChangedFrom="0" laneChangedTo="0"/>
        <edge id="2fi" sampledSeconds="6103.50" traveltime="28.31" density="27.29" occupancy="8.19" waitingTime="0.00" speed="8.78" departed="79" arrived="12" entered="140" left="158" laneChangedFrom="0" laneChangedTo="0"/>
        <edge id="2o" sampledSeconds="7098.50" traveltime="48.50" density="16.14" occupancy="4.84" waitingTime="0.00" speed="10.08" departed="0" arrived="0" entered="151" left="141" laneChangedFrom="0" laneChangedTo="0"/>
        <edge id="2si" sampledSeconds="8771.52" traveltime="56.72" density="41.10" occupancy="4.11" waitingTime="4098.00" speed="4.18" departed="0" arrived="0" entered="157" left="142" laneChangedFrom="0" laneChangedTo="0"/>
        <edge id="3fi" sampledSeconds="6244.70" traveltime="29.47" density="27.92" occupancy="8.38" waitingTime="1.00" speed="8.43" departed="126" arrived="12" entered="90" left="138" laneChangedFrom="0" laneChangedTo="0"/>
        <edge id="3o" sampledSeconds="4626.67" traveltime="48.30" density="10.52" occupancy="3.16" waitingTime="0.00" speed="10.12" departed="0" arrived="0" entered="100" left="90" laneChangedFrom="0" laneChangedTo="0"/>
        <edge id="3si" sampledSeconds="6741.62" traveltime="49.03" density="31.59" occupancy="3.16" waitingTime="2998.00" speed="4.84" departed="0" arrived="0" entered="138" left="124" laneChangedFrom="0" laneChangedTo="0"/>
        <edge id="4fi" sampledSeconds="3135.84" traveltime="22.78" density="14.02" occupancy="4.21" waitingTime="0.00" speed="10.91" departed="0" arrived="0" entered="136" left="136" laneChangedFrom="0" laneChangedTo="0"/>
        <edge id="4o" sampledSeconds="6590.21" traveltime="47.06" density="14.99" occupancy="4.50" waitingTime="0.00" speed="10.38" departed="0" arrived="0" entered="144" left="136" laneChangedFrom="0" laneChangedTo="0"/>
        <edge id="4si" sampledSeconds="5422.49" traveltime="40.78" density="25.41" occupancy="2.54" waitingTime="1974.00" speed="5.82" departed="0" arrived="0" entered="135" left="120" laneChangedFrom="0" laneChangedTo="0"/>
    </interval>
    <interval begin="0.00" end="900.00" id="dump_900">
        <edge id="1fi">
            <lane id="1fi_0" sampledSeconds="5330.65" traveltime="27.85" density="23.83" occupancy="7.15" waitingTime="0.00" speed="8.92" departed="78" arrived="0" entered="117" left="174" laneChangedFrom="0" laneChangedTo="0"/>
        </edge>
        <edge id="1o">
            <lane id="1o_0" sampledSeconds="5922.56" traveltime="48.30" density="13.47" occupancy="4.04" waitingTime="0.00" speed="10.12" departed="0" arrived="0" entered="126" left="117" laneChangedFrom="0" laneChangedTo="0"/>
        </edge>
        <edge id="1si">
            <lane id="1si_0" sampledSeconds="1821.55" traveltime="55.40" density="8.53" occupancy="2.56" waitingTime="790.00" speed="4.28" departed="0" arrived="0" entered="35" left="32" laneChangedFrom="0" laneChangedTo="0"/>
            <lane id="1si_1" sampledSeconds="1201.71" traveltime="18.55" density="5.63" occupancy="1.69" waitingTime="7.00" speed="12.79" departed="0" arrived="0" entered="64" left="63" laneChangedFrom="0" laneChangedTo="0"/>
            <lane id="1si_2" sampledSeconds="14048.27" traveltime="227.38" density="65.82" occupancy="19.75" waitingTime="8727.00" speed="1.04" departed="0" arrived="0" entered="75" left="42" laneChangedFrom="0" laneChangedTo="0"/>
        </edge>
        <edge id="2fi">
            <lane id="2fi_0" sampledSeconds="6103.50" traveltime="28.31" density="27.29" occupancy="8.19" waitingTime="0.00" speed="8.78" departed="79" arrived="12" entered="140" left="158" laneChangedFrom="0" laneChangedTo="0"/>
        </edge>
        <edge id="2o">
            <lane id="2o_0" sampledSeconds="7098.50" traveltime="48.50" density="16.14" occupancy="4.84" waitingTime="0.00" speed="10.08" departed="0" arrived="0" entered="151" left="141" laneChangedFrom="0" laneChangedTo="0"/>
        </edge>
        <edge id="2si">
            <lane id="2si_0" sampledSeconds="2745.31" traveltime="54.70" density="12.86" occupancy="3.86" waitingTime="1225.00" speed="4.34" departed="0" arrived="0" entered="52" left="49" laneChangedFrom="0" laneChangedTo="0"/>
            <lane id="2si_1" sampledSeconds="3909.65" traveltime="50.84" density="18.32" occupancy="5.50" waitingTime="1753.00" speed="4.66" departed="0" arrived="0" entered="77" left="73" laneChangedFrom="0" laneChangedTo="0"/>
            <lane id="2si_2" sampledSeconds="2116.56" traveltime="76.79" density="9.92" occupancy="2.97" waitingTime="1120.00" speed="3.09" departed="0" arrived="0" entered="28" left="20" laneChangedFrom="0" laneChangedTo="0"/>
        </edge>
        <edge id="3fi">
            <lane id="3fi_0" sampledSeconds="6244.70" traveltime="29.47" density="27.92" occupancy="8.38" waitingTime="1.00" speed="8.43" departed="126" arrived="12" entered="90" left="138" laneChangedFrom="0" laneChangedTo="0"/>
        </edge>
        <edge id="3o">
            <lane id="3o_0" sampledSeconds="4626.67" traveltime="48.30" density="10.52" occupancy="3.16" waitingTime="0.00" speed="10.12" departed="0" arrived="0" entered="100" left="90" laneChangedFrom="0" laneChangedTo="0"/>
        </edge>
        <edge id="3si">
            <lane id="3si_0" sampledSeconds="2940.74" traveltime="48.66" density="13.78" occupancy="4.13" waitingTime="1323.00" speed="4.87" departed="0" arrived="0" entered="60" left="55" laneChangedFrom="0" laneChangedTo="0"/>
            <lane id="3si_1" sampledSeconds="3023.28" traveltime="50.68" density="14.16" occupancy="4.25" waitingTime="1406.00" speed="4.68" departed="0" arrived="0" entered="60" left="54" laneChangedFrom="0" laneChangedTo="0"/>
            <lane id="3si_2" sampledSeconds="777.60" traveltime="44.64" density="3.64" occupancy="1.09" waitingTime="269.00" speed="5.31" departed="0" arrived="0" entered="18" left="15" laneChangedFrom="0" laneChangedTo="0"/>
        </edge>
        <edge id="4fi">
            <lane id="4fi_0" sampledSeconds="3135.84" traveltime="22.78" density="14.02" occupancy="4.21" waitingTime="0.00" speed="10.91" departed="0" arrived="0" entered="136" left="136" laneChangedFrom="0" laneChangedTo="0"/>
        </edge>
        <edge id="4o">
            <lane id="4o_0" sampledSeconds="6590.21" traveltime="47.06" density="14.99" occupancy="4.50" waitingTime="0.00" speed="10.38" departed="0" arrived="0" entered="144" left="136" laneChangedFrom="0" laneChangedTo="0"/>
        </edge>
        <edge id="4si">
            <lane id="4si_0" sampledSeconds="2707.53" traveltime="60.20" density="12.69" occupancy="3.81" waitingTime="1385.00" speed="3.94" departed="0" arrived="0" entered="45" left="38" laneChangedFrom="0" laneChangedTo="0"/>
            <lane id="4si_1" sampledSeconds="911.69" traveltime="17.96" density="4.27" occupancy="1.28" waitingTime="0.00" speed="13.21" departed="0" arrived="0" entered="53" left="49" laneChangedFrom="0" laneChangedTo="0"/>
            <lane id="4si_2" sampledSeconds="1803.27" traveltime="48.43" density="8.45" occupancy="2.53" waitingTime="589.00" speed="4.90" departed="0" arrived="0" entered="37" left="33" laneChangedFrom="0" laneChangedTo="0"/>
        </edge>
    </interval>
    <interval begin="900.00" end="1000.00" id="dump_900">
        <edge id="1fi" sampledSeconds="889.21" traveltime="27.88" density="35.78" occupancy="10.73" waitingTime="0.00" speed="8.91" departed="12" arrived="0" entered="19" left="29" laneChangedFrom="0" laneChangedTo="0"/>
        <edge id="1o" sampledSeconds="1023.96" traveltime="47.78" density="20.95" occupancy="6.29" waitingTime="0.00" speed="10.23" departed="0" arrived="0" entered="21" left="19" laneChangedFrom="0" laneChangedTo="0"/>
        <edge id="1si" sampledSeconds="4292.04" traveltime="166.16" density="180.98" occupancy="18.10" waitingTime="2324.00" speed="1.43" departed="0" arrived="0" entered="29" left="21" laneChangedFrom="0" laneChangedTo="0"/>
        <edge id="2fi" sampledSeconds="898.90" traveltime="28.05" density="36.17" occupancy="10.85" waitingTime="0.00" speed="8.86" departed="11" arrived="0" entered="20" left="21" laneChangedFrom="0" laneChangedTo="0"/>
        <edge id="2o" sampledSeconds="1044.69" traveltime="47.50" density="21.38" occupancy="6.41" waitingTime="0.00" speed="10.29" departed="0" arrived="0" entered="21" left="19" laneChangedFrom="0" laneChangedTo="0"/>
        <edge id="2si" sampledSeconds="1954.01" traveltime="84.21" density="82.40" occupancy="8.24" waitingTime="1102.00" speed="2.82" departed="0" arrived="0" entered="22" left="19" laneChangedFrom="0" laneChangedTo="0"/>
        <edge id="3fi" sampledSeconds="846.86" traveltime="29.04" density="34.08" occupancy="10.22" waitingTime="0.00" speed="8.56" departed="12" arrived="4" entered="16" left="13" laneChangedFrom="0" laneChangedTo="0"/>
        <edge id="3o" sampledSeconds="824.10" traveltime="48.21" density="16.86" occupancy="5.06" waitingTime="0.00" speed="10.14" departed="0" arrived="0" entered="16" left="17" laneChangedFrom="0" laneChangedTo="0"/>
        <edge id="3si" sampledSeconds="855.73" traveltime="57.27" density="36.08" occupancy="3.61" waitingTime="401.00" speed="4.14" departed="0" arrived="0" entered="13" left="21" laneChangedFrom="0" laneChangedTo="0"/>
        <edge id="4fi" sampledSeconds="345.98" traveltime="22.79" density="13.92" occupancy="4.18" waitingTime="0.00" speed="10.90" departed="0" arrived="0" entered="15" left="15" laneChangedFrom="0" laneChangedTo="0"/>
        <edge id="4o" sampledSeconds="874.54" traveltime="47.07" density="17.90" occupancy="5.37" waitingTime="0.00" speed="10.38" departed="0" arrived="0" entered="18" left="15" laneChangedFrom="0" laneChangedTo="0"/>
        <edge id="4si" sampledSeconds="740.00" traveltime="41.15" density="31.20" occupancy="3.12" waitingTime="231.00" speed="5.76" departed="0" arrived="0" entered="16" left="22" laneChangedFrom="0" laneChangedTo="0"/>
    </interval>
</netstats>
