<?xml version="1.0"?>

<!-- generated on Fri Dec  2 20:46:21 2011 by SUMO sumo Version dev-SVN-r11571
<?xml version="1.0" encoding="UTF-8"?>

<configuration xmlns:xsi="http://www.w3.org/2001/XMLSchema-instance" xsi:noNamespaceSchemaLocation="http://sumo.sf.net/xsd/sumoConfiguration.xsd">

    <input>
        <net-file value="net.net.xml"/>
        <route-files value="input_routes.rou.xml"/>
        <additional-files value="input_additional.add.xml"/>
    </input>

    <time>
        <begin value="0"/>
        <end value="1000"/>
    </time>

    <report>
        <no-duration-log value="true"/>
        <no-step-log value="true"/>
    </report>

</configuration>
-->

<netstats>
    <interval begin="0.00" end="900.00" id="dump_900">
        <edge id="1fi" sampledSeconds="5213.49" traveltime="27.98" density="23.31" occupancy="11.66" waitingTime="1.00" speed="8.88" departed="79" arrived="0" entered="114" left="173" laneChangedFrom="0" laneChangedTo="0"/>
        <edge id="1o" sampledSeconds="5749.27" traveltime="48.03" density="13.07" occupancy="6.54" waitingTime="0.00" speed="10.17" departed="0" arrived="0" entered="125" left="114" laneChangedFrom="0" laneChangedTo="0"/>
        <edge id="1si" sampledSeconds="17311.79" traveltime="110.40" density="81.11" occupancy="13.52" waitingTime="9591.00" speed="2.15" departed="0" arrived="0" entered="173" left="136" laneChangedFrom="0" laneChangedTo="0"/>
        <edge id="2fi" sampledSeconds="6021.23" traveltime="28.42" density="26.92" occupancy="13.46" waitingTime="2.00" speed="8.74" departed="79" arrived="0" entered="141" left="157" laneChangedFrom="0" laneChangedTo="0"/>
        <edge id="2o" sampledSeconds="7054.03" traveltime="48.40" density="16.04" occupancy="8.02" waitingTime="0.00" speed="10.10" departed="0" arrived="0" entered="151" left="141" laneChangedFrom="0" laneChangedTo="0"/>
        <edge id="2si" sampledSeconds="8417.86" traveltime="54.95" density="39.44" occupancy="6.57" waitingTime="3841.00" speed="4.32" departed="0" arrived="0" entered="157" left="144" laneChangedFrom="0" laneChangedTo="0"/>
        <edge id="3fi" sampledSeconds="6216.80" traveltime="29.59" density="27.80" occupancy="13.90" waitingTime="1.00" speed="8.40" departed="126" arrived="0" entered="91" left="139" laneChangedFrom="0" laneChangedTo="0"/>
        <edge id="3o" sampledSeconds="4612.84" traveltime="47.81" density="10.49" occupancy="5.24" waitingTime="0.00" speed="10.22" departed="0" arrived="0" entered="103" left="91" laneChangedFrom="0" laneChangedTo="0"/>
        <edge id="3si" sampledSeconds="6497.29" traveltime="47.50" density="30.44" occupancy="5.07" waitingTime="2910.00" speed="4.99" departed="0" arrived="0" entered="139" left="126" laneChangedFrom="0" laneChangedTo="0"/>
        <edge id="4fi" sampledSeconds="3190.65" traveltime="22.79" density="14.27" occupancy="7.13" waitingTime="0.00" speed="10.90" departed="0" arrived="0" entered="140" left="140" laneChangedFrom="0" laneChangedTo="0"/>
        <edge id="4o" sampledSeconds="6778.44" traveltime="47.22" density="15.41" occupancy="7.71" waitingTime="0.00" speed="10.35" departed="0" arrived="0" entered="148" left="140" laneChangedFrom="0" laneChangedTo="0"/>
        <edge id="4si" sampledSeconds="5325.05" traveltime="39.37" density="24.95" occupancy="4.16" waitingTime="1833.00" speed="6.02" departed="0" arrived="0" entered="139" left="122" laneChangedFrom="0" laneChangedTo="0"/>
    </interval>
    <interval begin="0.00" end="900.00" id="dump_900">
        <edge id="1fi">
            <lane id="1fi_0" sampledSeconds="5213.49" traveltime="27.98" density="23.31" occupancy="11.66" waitingTime="1.00" speed="8.88" departed="79" arrived="0" entered="114" left="173" laneChangedFrom="0" laneChangedTo="0"/>
        </edge>
        <edge id="1o">
            <lane id="1o_0" sampledSeconds="5749.27" traveltime="48.03" density="13.07" occupancy="6.54" waitingTime="0.00" speed="10.17" departed="0" arrived="0" entered="125" left="114" laneChangedFrom="0" laneChangedTo="0"/>
        </edge>
        <edge id="1si">
            <lane id="1si_0" sampledSeconds="1785.54" traveltime="54.98" density="8.37" occupancy="4.18" waitingTime="766.00" speed="4.31" departed="0" arrived="0" entered="35" left="32" laneChangedFrom="0" laneChangedTo="0"/>
            <lane id="1si_1" sampledSeconds="1572.84" traveltime="25.37" density="7.37" occupancy="3.68" waitingTime="222.00" speed="9.35" departed="0" arrived="0" entered="62" left="62" laneChangedFrom="0" laneChangedTo="0"/>
            <lane id="1si_2" sampledSeconds="13953.41" traveltime="223.83" density="65.38" occupancy="32.69" waitingTime="8603.00" speed="1.06" departed="0" arrived="0" entered="76" left="42" laneChangedFrom="0" laneChangedTo="0"/>
        </edge>
        <edge id="2fi">
            <lane id="2fi_0" sampledSeconds="6021.23" traveltime="28.42" density="26.92" occupancy="13.46" waitingTime="2.00" speed="8.74" departed="79" arrived="0" entered="141" left="157" laneChangedFrom="0" laneChangedTo="0"/>
        </edge>
        <edge id="2o">
            <lane id="2o_0" sampledSeconds="7054.03" traveltime="48.40" density="16.04" occupancy="8.02" waitingTime="0.00" speed="10.10" departed="0" arrived="0" entered="151" left="141" laneChangedFrom="0" laneChangedTo="0"/>
        </edge>
        <edge id="2si">
            <lane id="2si_0" sampledSeconds="2798.31" traveltime="54.68" density="13.11" occupancy="6.56" waitingTime="1217.00" speed="4.34" departed="0" arrived="0" entered="53" left="51" laneChangedFrom="0" laneChangedTo="0"/>
            <lane id="2si_1" sampledSeconds="3446.36" traveltime="45.61" density="16.15" occupancy="8.07" waitingTime="1439.00" speed="5.20" departed="0" arrived="0" entered="77" left="73" laneChangedFrom="0" laneChangedTo="0"/>
            <lane id="2si_2" sampledSeconds="2173.18" traveltime="82.12" density="10.18" occupancy="5.09" waitingTime="1185.00" speed="2.89" departed="0" arrived="0" entered="27" left="20" laneChangedFrom="0" laneChangedTo="0"/>
        </edge>
        <edge id="3fi">
            <lane id="3fi_0" sampledSeconds="6216.80" traveltime="29.59" density="27.80" occupancy="13.90" waitingTime="1.00" speed="8.40" departed="126" arrived="0" entered="91" left="139" laneChangedFrom="0" laneChangedTo="0"/>
        </edge>
        <edge id="3o">
            <lane id="3o_0" sampledSeconds="4612.84" traveltime="47.81" density="10.49" occupancy="5.24" waitingTime="0.00" speed="10.22" departed="0" arrived="0" entered="103" left="91" laneChangedFrom="0" laneChangedTo="0"/>
        </edge>
        <edge id="3si">
            <lane id="3si_0" sampledSeconds="2928.38" traveltime="48.19" density="13.72" occupancy="6.86" waitingTime="1342.00" speed="4.92" departed="0" arrived="0" entered="61" left="56" laneChangedFrom="0" laneChangedTo="0"/>
            <lane id="3si_1" sampledSeconds="2985.91" traveltime="49.70" density="13.99" occupancy="6.99" waitingTime="1383.00" speed="4.77" departed="0" arrived="0" entered="61" left="56" laneChangedFrom="0" laneChangedTo="0"/>
            <lane id="3si_2" sampledSeconds="583.00" traveltime="36.54" density="2.73" occupancy="1.37" waitingTime="185.00" speed="6.49" departed="0" arrived="0" entered="17" left="14" laneChangedFrom="0" laneChangedTo="0"/>
        </edge>
        <edge id="4fi">
            <lane id="4fi_0" sampledSeconds="3190.65" traveltime="22.79" density="14.27" occupancy="7.13" waitingTime="0.00" speed="10.90" departed="0" arrived="0" entered="140" left="140" laneChangedFrom="0" laneChangedTo="0"/>
        </edge>
        <edge id="4o">
            <lane id="4o_0" sampledSeconds="6778.44" traveltime="47.22" density="15.41" occupancy="7.71" waitingTime="0.00" speed="10.35" departed="0" arrived="0" entered="148" left="140" laneChangedFrom="0" laneChangedTo="0"/>
        </edge>
        <edge id="4si">
            <lane id="4si_0" sampledSeconds="2701.43" traveltime="59.49" density="12.66" occupancy="6.33" waitingTime="1365.00" speed="3.99" departed="0" arrived="0" entered="46" left="38" laneChangedFrom="0" laneChangedTo="0"/>
            <lane id="4si_1" sampledSeconds="1001.33" traveltime="19.23" density="4.69" occupancy="2.35" waitingTime="0.00" speed="12.34" departed="0" arrived="0" entered="55" left="51" laneChangedFrom="0" laneChangedTo="0"/>
            <lane id="4si_2" sampledSeconds="1622.29" traveltime="42.95" density="7.60" occupancy="3.80" waitingTime="468.00" speed="5.52" departed="0" arrived="0" entered="38" left="33" laneChangedFrom="0" laneChangedTo="0"/>
        </edge>
    </interval>
    <interval begin="900.00" end="1000.00" id="dump_900">
        <edge id="1fi" sampledSeconds="901.87" traveltime="27.17" density="36.29" occupancy="18.15" waitingTime="0.00" speed="9.15" departed="11" arrived="0" entered="22" left="31" laneChangedFrom="0" laneChangedTo="0"/>
        <edge id="1o" sampledSeconds="1119.38" traveltime="47.66" density="22.91" occupancy="11.45" waitingTime="0.00" speed="10.25" departed="0" arrived="0" entered="22" left="22" laneChangedFrom="0" laneChangedTo="0"/>
        <edge id="1si" sampledSeconds="4362.34" traveltime="161.58" density="183.95" occupancy="30.66" waitingTime="2426.00" speed="1.47" departed="0" arrived="0" entered="31" left="21" laneChangedFrom="0" laneChangedTo="0"/>
        <edge id="2fi" sampledSeconds="918.08" traveltime="28.29" density="36.94" occupancy="18.47" waitingTime="0.00" speed="8.78" departed="11" arrived="1" entered="20" left="23" laneChangedFrom="0" laneChangedTo="0"/>
        <edge id="2o" sampledSeconds="1084.94" traveltime="49.02" density="22.20" occupancy="11.10" waitingTime="0.00" speed="9.97" departed="0" arrived="0" entered="22" left="20" laneChangedFrom="0" laneChangedTo="0"/>
        <edge id="2si" sampledSeconds="1807.52" traveltime="79.03" density="76.22" occupancy="12.70" waitingTime="983.00" speed="3.00" departed="0" arrived="0" entered="23" left="17" laneChangedFrom="0" laneChangedTo="0"/>
        <edge id="3fi" sampledSeconds="862.19" traveltime="28.91" density="34.70" occupancy="17.35" waitingTime="0.00" speed="8.60" departed="13" arrived="0" entered="17" left="13" laneChangedFrom="0" laneChangedTo="0"/>
        <edge id="3o" sampledSeconds="843.30" traveltime="48.55" density="17.26" occupancy="8.63" waitingTime="0.00" speed="10.07" departed="0" arrived="0" entered="14" left="17" laneChangedFrom="0" laneChangedTo="0"/>
        <edge id="3si" sampledSeconds="712.62" traveltime="47.90" density="30.05" occupancy="5.01" waitingTime="308.00" speed="4.95" departed="0" arrived="0" entered="13" left="20" laneChangedFrom="0" laneChangedTo="0"/>
        <edge id="4fi" sampledSeconds="319.18" traveltime="22.80" density="12.84" occupancy="6.42" waitingTime="0.00" speed="10.90" departed="0" arrived="0" entered="14" left="14" laneChangedFrom="0" laneChangedTo="0"/>
        <edge id="4o" sampledSeconds="784.28" traveltime="47.42" density="16.05" occupancy="8.02" waitingTime="0.00" speed="10.31" departed="0" arrived="0" entered="17" left="15" laneChangedFrom="0" laneChangedTo="0"/>
        <edge id="4si" sampledSeconds="737.97" traveltime="42.04" density="31.12" occupancy="5.19" waitingTime="223.00" speed="5.64" departed="0" arrived="0" entered="15" left="23" laneChangedFrom="0" laneChangedTo="0"/>
    </interval>
</netstats>
