<?xml version="1.0"?>

<!-- generated on Tue Feb  5 09:45:06 2013 by SUMO sumo Version dev-SVN-r13280
<?xml version="1.0" encoding="UTF-8"?>

<configuration xmlns:xsi="http://www.w3.org/2001/XMLSchema-instance" xsi:noNamespaceSchemaLocation="http://sumo.sf.net/xsd/sumoConfiguration.xsd">

    <input>
        <net-file value="net.net.xml"/>
        <route-files value="input_routes.rou.xml"/>
        <additional-files value="input_additional.add.xml"/>
    </input>

    <time>
        <begin value="0"/>
        <end value="1000"/>
    </time>

    <report>
        <no-duration-log value="true"/>
        <no-step-log value="true"/>
    </report>

</configuration>
-->

<netstats>
    <interval begin="0.00" end="900.00" id="dump_900">
        <edge id="1fi" sampledSeconds="5268.36" traveltime="27.49" density="23.56" occupancy="7.07" waitingTime="1.00" speed="9.04" departed="80" arrived="10" entered="116" left="176" laneChangedFrom="0" laneChangedTo="0"/>
        <edge id="1o" sampledSeconds="5781.72" traveltime="47.62" density="13.15" occupancy="3.94" waitingTime="0.00" speed="10.26" departed="0" arrived="0" entered="124" left="116" laneChangedFrom="0" laneChangedTo="0"/>
        <edge id="1si" sampledSeconds="19443.91" traveltime="127.89" density="91.10" occupancy="9.11" waitingTime="11559.00" speed="1.85" departed="0" arrived="0" entered="175" left="128" laneChangedFrom="0" laneChangedTo="0"/>
        <edge id="2fi" sampledSeconds="5892.10" traveltime="27.83" density="26.35" occupancy="7.90" waitingTime="0.00" speed="8.93" departed="79" arrived="54" entered="138" left="152" laneChangedFrom="0" laneChangedTo="0"/>
        <edge id="2o" sampledSeconds="6764.15" traveltime="47.44" density="15.38" occupancy="4.61" waitingTime="0.00" speed="10.30" departed="0" arrived="0" entered="147" left="138" laneChangedFrom="0" laneChangedTo="0"/>
        <edge id="2si" sampledSeconds="7774.31" traveltime="51.71" density="36.42" occupancy="3.64" waitingTime="3438.00" speed="4.59" departed="0" arrived="0" entered="152" left="143" laneChangedFrom="0" laneChangedTo="0"/>
        <edge id="3fi" sampledSeconds="6295.15" traveltime="29.19" density="28.15" occupancy="8.44" waitingTime="5.00" speed="8.51" departed="129" arrived="74" entered="90" left="139" laneChangedFrom="0" laneChangedTo="0"/>
        <edge id="3o" sampledSeconds="4524.21" traveltime="47.34" density="10.29" occupancy="3.09" waitingTime="0.00" speed="10.32" departed="0" arrived="0" entered="100" left="90" laneChangedFrom="0" laneChangedTo="0"/>
        <edge id="3si" sampledSeconds="6658.33" traveltime="47.78" density="31.20" occupancy="3.12" waitingTime="2915.00" speed="4.96" departed="0" arrived="0" entered="139" left="126" laneChangedFrom="0" laneChangedTo="0"/>
        <edge id="4fi" sampledSeconds="3042.26" traveltime="22.77" density="13.60" occupancy="4.08" waitingTime="0.00" speed="10.91" departed="0" arrived="0" entered="132" left="132" laneChangedFrom="0" laneChangedTo="0"/>
        <edge id="4o" sampledSeconds="6416.99" traveltime="46.87" density="14.59" occupancy="4.38" waitingTime="0.00" speed="10.43" departed="0" arrived="0" entered="141" left="132" laneChangedFrom="0" laneChangedTo="0"/>
        <edge id="4si" sampledSeconds="6354.41" traveltime="49.09" density="29.77" occupancy="2.98" waitingTime="2903.00" speed="4.83" departed="0" arrived="0" entered="132" left="117" laneChangedFrom="0" laneChangedTo="0"/>
    </interval>
    <interval begin="0.00" end="900.00" id="dump_900">
        <edge id="1fi">
            <lane id="1fi_0" sampledSeconds="5268.36" traveltime="27.49" density="23.56" occupancy="7.07" waitingTime="1.00" speed="9.04" departed="80" arrived="10" entered="116" left="176" laneChangedFrom="0" laneChangedTo="0"/>
        </edge>
        <edge id="1o">
            <lane id="1o_0" sampledSeconds="5781.72" traveltime="47.62" density="13.15" occupancy="3.94" waitingTime="0.00" speed="10.26" departed="0" arrived="0" entered="124" left="116" laneChangedFrom="0" laneChangedTo="0"/>
        </edge>
        <edge id="1si">
            <lane id="1si_0" sampledSeconds="1828.40" traveltime="57.61" density="8.57" occupancy="2.57" waitingTime="835.00" speed="4.12" departed="0" arrived="0" entered="34" left="31" laneChangedFrom="0" laneChangedTo="0"/>
            <lane id="1si_1" sampledSeconds="1161.07" traveltime="17.92" density="5.44" occupancy="1.63" waitingTime="9.00" speed="13.23" departed="0" arrived="0" entered="64" left="63" laneChangedFrom="0" laneChangedTo="0"/>
            <lane id="1si_2" sampledSeconds="16454.43" traveltime="296.39" density="77.09" occupancy="23.13" waitingTime="10715.00" speed="0.80" departed="0" arrived="0" entered="77" left="34" laneChangedFrom="0" laneChangedTo="0"/>
        </edge>
        <edge id="2fi">
            <lane id="2fi_0" sampledSeconds="5892.10" traveltime="27.83" density="26.35" occupancy="7.90" waitingTime="0.00" speed="8.93" departed="79" arrived="54" entered="138" left="152" laneChangedFrom="0" laneChangedTo="0"/>
        </edge>
        <edge id="2o">
            <lane id="2o_0" sampledSeconds="6764.15" traveltime="47.44" density="15.38" occupancy="4.61" waitingTime="0.00" speed="10.30" departed="0" arrived="0" entered="147" left="138" laneChangedFrom="0" laneChangedTo="0"/>
        </edge>
        <edge id="2si">
            <lane id="2si_0" sampledSeconds="2995.50" traveltime="56.45" density="14.03" occupancy="4.21" waitingTime="1363.00" speed="4.20" departed="0" arrived="0" entered="55" left="52" laneChangedFrom="0" laneChangedTo="0"/>
            <lane id="2si_1" sampledSeconds="3937.58" traveltime="51.10" density="18.45" occupancy="5.53" waitingTime="1789.00" speed="4.64" departed="0" arrived="0" entered="77" left="72" laneChangedFrom="0" laneChangedTo="0"/>
            <lane id="2si_2" sampledSeconds="841.23" traveltime="41.58" density="3.94" occupancy="1.18" waitingTime="286.00" speed="5.70" departed="0" arrived="0" entered="20" left="19" laneChangedFrom="0" laneChangedTo="0"/>
        </edge>
        <edge id="3fi">
            <lane id="3fi_0" sampledSeconds="6295.15" traveltime="29.19" density="28.15" occupancy="8.44" waitingTime="5.00" speed="8.51" departed="129" arrived="74" entered="90" left="139" laneChangedFrom="0" laneChangedTo="0"/>
        </edge>
        <edge id="3o">
            <lane id="3o_0" sampledSeconds="4524.21" traveltime="47.34" density="10.29" occupancy="3.09" waitingTime="0.00" speed="10.32" departed="0" arrived="0" entered="100" left="90" laneChangedFrom="0" laneChangedTo="0"/>
        </edge>
        <edge id="3si">
            <lane id="3si_0" sampledSeconds="2966.29" traveltime="47.81" density="13.90" occupancy="4.17" waitingTime="1304.00" speed="4.96" departed="0" arrived="0" entered="62" left="57" laneChangedFrom="0" laneChangedTo="0"/>
            <lane id="3si_1" sampledSeconds="2994.48" traveltime="48.90" density="14.03" occupancy="4.21" waitingTime="1367.00" speed="4.85" departed="0" arrived="0" entered="61" left="56" laneChangedFrom="0" laneChangedTo="0"/>
            <lane id="3si_2" sampledSeconds="697.56" traveltime="43.39" density="3.27" occupancy="0.98" waitingTime="244.00" speed="5.47" departed="0" arrived="0" entered="16" left="13" laneChangedFrom="0" laneChangedTo="0"/>
        </edge>
        <edge id="4fi">
            <lane id="4fi_0" sampledSeconds="3042.26" traveltime="22.77" density="13.60" occupancy="4.08" waitingTime="0.00" speed="10.91" departed="0" arrived="0" entered="132" left="132" laneChangedFrom="0" laneChangedTo="0"/>
        </edge>
        <edge id="4o">
            <lane id="4o_0" sampledSeconds="6416.99" traveltime="46.87" density="14.59" occupancy="4.38" waitingTime="0.00" speed="10.43" departed="0" arrived="0" entered="141" left="132" laneChangedFrom="0" laneChangedTo="0"/>
        </edge>
        <edge id="4si">
            <lane id="4si_0" sampledSeconds="2783.94" traveltime="60.53" density="13.04" occupancy="3.91" waitingTime="1434.00" speed="3.92" departed="0" arrived="0" entered="46" left="39" laneChangedFrom="0" laneChangedTo="0"/>
            <lane id="4si_1" sampledSeconds="945.10" traveltime="17.77" density="4.43" occupancy="1.33" waitingTime="0.00" speed="13.35" departed="0" arrived="0" entered="56" left="51" laneChangedFrom="0" laneChangedTo="0"/>
            <lane id="4si_2" sampledSeconds="2625.37" traveltime="86.79" density="12.30" occupancy="3.69" waitingTime="1469.00" speed="2.73" departed="0" arrived="0" entered="30" left="27" laneChangedFrom="0" laneChangedTo="0"/>
        </edge>
    </interval>
    <interval begin="900.00" end="1000.00" id="dump_900">
        <edge id="1fi" sampledSeconds="1382.35" traveltime="48.36" density="55.63" occupancy="16.69" waitingTime="133.00" speed="5.14" departed="10" arrived="3" entered="18" left="16" laneChangedFrom="0" laneChangedTo="0"/>
        <edge id="1o" sampledSeconds="1007.60" traveltime="47.29" density="20.62" occupancy="6.19" waitingTime="0.00" speed="10.33" departed="0" arrived="0" entered="22" left="18" laneChangedFrom="0" laneChangedTo="0"/>
        <edge id="1si" sampledSeconds="5155.21" traveltime="259.70" density="217.38" occupancy="21.74" waitingTime="3007.00" speed="0.91" departed="0" arrived="0" entered="17" left="13" laneChangedFrom="0" laneChangedTo="0"/>
        <edge id="2fi" sampledSeconds="875.91" traveltime="27.22" density="35.25" occupancy="10.57" waitingTime="1.00" speed="9.13" departed="11" arrived="9" entered="18" left="24" laneChangedFrom="0" laneChangedTo="0"/>
        <edge id="2o" sampledSeconds="726.85" traveltime="47.18" density="14.87" occupancy="4.46" waitingTime="0.00" speed="10.36" departed="0" arrived="0" entered="12" left="18" laneChangedFrom="0" laneChangedTo="0"/>
        <edge id="2si" sampledSeconds="1402.23" traveltime="56.54" density="59.13" occupancy="5.91" waitingTime="633.00" speed="4.19" departed="0" arrived="0" entered="24" left="21" laneChangedFrom="0" laneChangedTo="0"/>
        <edge id="3fi" sampledSeconds="856.90" traveltime="28.60" density="34.48" occupancy="10.34" waitingTime="0.00" speed="8.69" departed="13" arrived="13" entered="17" left="16" laneChangedFrom="0" laneChangedTo="0"/>
        <edge id="3o" sampledSeconds="958.81" traveltime="48.02" density="19.62" occupancy="5.89" waitingTime="0.00" speed="10.18" departed="0" arrived="0" entered="20" left="17" laneChangedFrom="0" laneChangedTo="0"/>
        <edge id="3si" sampledSeconds="815.12" traveltime="49.79" density="34.37" occupancy="3.44" waitingTime="332.00" speed="4.76" departed="0" arrived="0" entered="16" left="23" laneChangedFrom="0" laneChangedTo="0"/>
        <edge id="4fi" sampledSeconds="369.01" traveltime="22.79" density="14.85" occupancy="4.45" waitingTime="0.00" speed="10.90" departed="0" arrived="0" entered="16" left="16" laneChangedFrom="0" laneChangedTo="0"/>
        <edge id="4o" sampledSeconds="831.38" traveltime="46.99" density="17.01" occupancy="5.10" waitingTime="0.00" speed="10.40" departed="0" arrived="0" entered="17" left="17" laneChangedFrom="0" laneChangedTo="0"/>
        <edge id="4si" sampledSeconds="772.67" traveltime="42.45" density="32.58" occupancy="3.26" waitingTime="275.00" speed="5.59" departed="0" arrived="0" entered="16" left="21" laneChangedFrom="0" laneChangedTo="0"/>
    </interval>
</netstats>
