<?xml version="1.0" encoding="UTF-8"?>

<!-- generated on 2022-04-20 14:49:49 by Eclipse SUMO netedit Version v1_12_0+2194-c34dc7fe35b
-->

<routes xmlns:xsi="http://www.w3.org/2001/XMLSchema-instance" xsi:noNamespaceSchemaLocation="http://sumo.dlr.de/xsd/routes_file.xsd">
    <!-- Vehicles, containers and containers (sorted by depart) -->
    <containerFlow id="f_0" begin="10.20" departPos="0.00" color="red" end="3600.00" containersPerHour="1200.00">
        <param key="KeyA1" value="valueA1"/>
        <param key="KeyA2" value="valueA3"/>
        <param key="KeyA3" value="valueA2"/>
        <tranship from="gneE2" to="gneE5" arrivalPos="0.00"/>
    </containerFlow>
    <containerFlow id="f_1" begin="10.20" departPos="11.00" color="blue" end="3800.00" containersPerHour="11501.60">
        <param key="KeyB1" value="valueB1"/>
        <param key="KeyB2" value="valueB3"/>
        <param key="KeyB3" value="valueB2"/>
        <tranship from="gneE4" to="gneE5" arrivalPos="0.00"/>
    </containerFlow>
</routes>
