<additional xmlns:xsi="http://www.w3.org/2001/XMLSchema-instance" xsi:noNamespaceSchemaLocation="http://sumo-sim.org/xsd/additional_file.xsd">
    <interval begin="0" end="100" id="dummy">
        <edge id="middle" traveltime="0"/>
    </interval>
    <interval begin="100" end="200" id="blocked">
        <edge id="middle" traveltime="100000"/>
    </interval>
</additional>
