<?xml version="1.0"?>

<!-- generated on 07/22/09 08:09:03 by SUMO sumo Version dev-SVN-r7459
<configuration>

    <input
        net-file="net.net.xml"
        route-files="input_routes.rou.xml"
        additional-files="input_additional.add.xml,input_additional2.add.xml"
    />

    <time
        begin="0"
        end="1000"
    />

    <report
        no-duration-log="true"
        no-step-log="true"
    />

</configuration>
-->

<netstats>
   <interval begin="0" end="25" id="dump_25">
      <edge id="beg" traveltime="37.17" sampledSeconds="136.00" density="10.91" occupancy="5.46" noStops="10" speed="13.41" entered="0" emitted="10" left="0"/>
   </interval>
   <interval begin="25" end="50" id="dump_25">
      <edge id=":beg_0" traveltime="0.46" sampledSeconds="4.16" density="26.81" occupancy="13.41" noStops="0" speed="13.43" entered="9" emitted="0" left="9"/>
      <edge id="beg" traveltime="28.36" sampledSeconds="277.00" density="22.22" occupancy="11.11" noStops="10" speed="17.58" entered="0" emitted="10" left="9"/>
      <edge id="middle" traveltime="74.12" sampledSeconds="102.84" density="4.15" occupancy="2.08" noStops="0" speed="13.36" entered="9" emitted="0" left="0"/>
   </interval>
   <interval begin="50" end="75" id="dump_25">
      <edge id=":beg_0" traveltime="2.34" sampledSeconds="14.24" density="91.84" occupancy="45.92" noStops="0" speed="2.65" entered="7" emitted="0" left="6"/>
      <edge id="beg" traveltime="32.66" sampledSeconds="318.17" density="25.53" occupancy="12.76" noStops="10" speed="15.26" entered="0" emitted="10" left="7"/>
      <edge id="middle" traveltime="405.09" sampledSeconds="296.59" density="11.98" occupancy="5.99" noStops="0" speed="2.45" entered="6" emitted="0" left="0"/>
   </interval>
   <interval begin="75" end="100" id="dump_25">
      <edge id=":beg_0" traveltime="2.95" sampledSeconds="18.29" density="118.01" occupancy="59.00" noStops="0" speed="2.10" entered="6" emitted="0" left="6"/>
      <edge id="beg" traveltime="43.65" sampledSeconds="409.90" density="32.89" occupancy="16.44" noStops="10" speed="11.42" entered="0" emitted="10" left="6"/>
      <edge id="middle" traveltime="457.19" sampledSeconds="446.81" density="18.04" occupancy="9.02" noStops="0" speed="2.17" entered="6" emitted="0" left="0"/>
   </interval>
   <interval begin="100" end="125" id="dump_25">
      <edge id=":beg_0" traveltime="2.92" sampledSeconds="19.36" density="124.88" occupancy="62.44" noStops="0" speed="2.12" entered="6" emitted="0" left="6"/>
      <edge id="beg" traveltime="52.43" sampledSeconds="503.18" density="40.37" occupancy="20.19" noStops="10" speed="9.51" entered="0" emitted="10" left="6"/>
      <edge id="middle" traveltime="471.56" sampledSeconds="606.46" density="24.49" occupancy="12.25" noStops="0" speed="2.10" entered="6" emitted="0" left="0"/>
   </interval>
   <interval begin="125" end="150" id="dump_25">
      <edge id=":beg_0" traveltime="3.62" sampledSeconds="19.53" density="126.01" occupancy="63.01" noStops="0" speed="1.71" entered="6" emitted="0" left="6"/>
      <edge id="beg" traveltime="66.58" sampledSeconds="603.84" density="48.45" occupancy="24.22" noStops="10" speed="7.49" entered="0" emitted="10" left="6"/>
      <edge id="middle" traveltime="482.04" sampledSeconds="756.63" density="30.56" occupancy="15.28" noStops="0" speed="2.05" entered="6" emitted="0" left="0"/>
   </interval>
   <interval begin="150" end="175" id="dump_25">
      <edge id=":beg_0" traveltime="2.49" sampledSeconds="18.16" density="117.15" occupancy="58.58" noStops="0" speed="2.49" entered="7" emitted="0" left="7"/>
      <edge id="beg" traveltime="78.96" sampledSeconds="701.34" density="56.27" occupancy="28.14" noStops="11" speed="6.31" entered="0" emitted="10" left="7"/>
      <edge id="middle" traveltime="89.43" sampledSeconds="912.50" density="36.85" occupancy="18.43" noStops="0" speed="11.08" entered="7" emitted="0" left="0"/>
   </interval>
   <interval begin="175" end="200" id="dump_25">
      <edge id=":beg_0" traveltime="1.22" sampledSeconds="12.65" density="81.60" occupancy="40.80" noStops="0" speed="5.09" entered="10" emitted="0" left="11"/>
      <edge id=":end_1" traveltime="1.00" sampledSeconds="9.36" density="60.37" occupancy="30.18" noStops="0" speed="6.17" entered="10" emitted="0" left="9"/>
      <edge id="beg" traveltime="82.78" sampledSeconds="743.42" density="59.65" occupancy="29.82" noStops="10" speed="6.02" entered="0" emitted="10" left="10"/>
      <edge id="end" traveltime="27.47" sampledSeconds="111.14" density="8.92" occupancy="4.46" noStops="0" speed="18.15" entered="9" emitted="0" left="0"/>
      <edge id="middle" traveltime="59.25" sampledSeconds="1004.43" density="40.56" occupancy="20.28" noStops="0" speed="16.72" entered="11" emitted="0" left="10"/>
   </interval>
   <interval begin="200" end="225" id="dump_25">
      <edge id=":absEnd_0" traveltime="0.00" sampledSeconds="0.04" density="14.58" occupancy="7.29" noStops="0" speed="27.43" entered="10" emitted="0" left="10"/>
      <edge id=":beg_0" traveltime="0.68" sampledSeconds="8.38" density="54.05" occupancy="27.02" noStops="0" speed="9.10" entered="13" emitted="0" left="12"/>
      <edge id=":end_1" traveltime="1.02" sampledSeconds="10.15" density="65.47" occupancy="32.73" noStops="0" speed="6.08" entered="10" emitted="0" left="10"/>
      <edge id="beg" traveltime="69.04" sampledSeconds="685.06" density="54.96" occupancy="27.48" noStops="9" speed="7.22" entered="0" emitted="9" left="13"/>
      <edge id="end" traveltime="22.95" sampledSeconds="226.50" density="18.17" occupancy="9.09" noStops="0" speed="21.72" entered="10" emitted="0" left="10"/>
      <edge id="middle" traveltime="68.90" sampledSeconds="1059.13" density="42.77" occupancy="21.39" noStops="0" speed="14.38" entered="12" emitted="0" left="10"/>
      <edge id="rend" traveltime="18.25" sampledSeconds="4.75" density="0.38" occupancy="0.19" noStops="0" speed="27.40" entered="10" emitted="0" left="0"/>
   </interval>
   <interval begin="225" end="250" id="dump_25">
      <edge id=":absEnd_0" traveltime="0.00" sampledSeconds="0.04" density="14.54" occupancy="7.27" noStops="0" speed="27.51" entered="10" emitted="0" left="10"/>
      <edge id=":beg_0" traveltime="0.65" sampledSeconds="8.27" density="53.34" occupancy="26.67" noStops="0" speed="9.52" entered="12" emitted="0" left="13"/>
      <edge id=":end_1" traveltime="1.02" sampledSeconds="10.24" density="66.03" occupancy="33.02" noStops="0" speed="6.08" entered="10" emitted="0" left="10"/>
      <edge id="beg" traveltime="56.41" sampledSeconds="610.28" density="48.96" occupancy="24.48" noStops="10" speed="8.84" entered="0" emitted="10" left="12"/>
      <edge id="end" traveltime="22.87" sampledSeconds="230.28" density="18.48" occupancy="9.24" noStops="0" speed="21.80" entered="10" emitted="0" left="10"/>
      <edge id="middle" traveltime="92.35" sampledSeconds="1120.78" density="45.26" occupancy="22.63" noStops="0" speed="10.73" entered="13" emitted="0" left="10"/>
      <edge id="rend" traveltime="18.15" sampledSeconds="4.12" density="0.33" occupancy="0.16" noStops="0" speed="27.54" entered="10" emitted="0" left="0"/>
   </interval>
   <interval begin="250" end="275" id="dump_25">
      <edge id=":absEnd_0" traveltime="0.00" sampledSeconds="0.04" density="14.56" occupancy="7.28" noStops="0" speed="27.46" entered="10" emitted="0" left="10"/>
      <edge id=":beg_0" traveltime="0.68" sampledSeconds="8.28" density="53.44" occupancy="26.72" noStops="0" speed="9.13" entered="13" emitted="0" left="12"/>
      <edge id=":end_1" traveltime="1.05" sampledSeconds="10.21" density="65.88" occupancy="32.94" noStops="0" speed="5.89" entered="9" emitted="0" left="10"/>
      <edge id="beg" traveltime="50.60" sampledSeconds="461.46" density="37.02" occupancy="18.51" noStops="2" speed="9.85" entered="0" emitted="2" left="13"/>
      <edge id="end" traveltime="23.51" sampledSeconds="227.75" density="18.27" occupancy="9.14" noStops="0" speed="21.20" entered="10" emitted="0" left="10"/>
      <edge id="middle" traveltime="102.18" sampledSeconds="1186.91" density="47.93" occupancy="23.97" noStops="0" speed="9.69" entered="12" emitted="0" left="9"/>
      <edge id="rend" traveltime="18.20" sampledSeconds="4.34" density="0.35" occupancy="0.17" noStops="0" speed="27.47" entered="10" emitted="0" left="0"/>
   </interval>
   <interval begin="275" end="300" id="dump_25">
      <edge id=":absEnd_0" traveltime="0.00" sampledSeconds="0.03" density="13.08" occupancy="6.54" noStops="0" speed="27.52" entered="9" emitted="0" left="9"/>
      <edge id=":beg_0" traveltime="0.64" sampledSeconds="8.21" density="52.98" occupancy="26.49" noStops="0" speed="9.66" entered="12" emitted="0" left="13"/>
      <edge id=":end_1" traveltime="0.96" sampledSeconds="9.55" density="61.62" occupancy="30.81" noStops="0" speed="6.49" entered="10" emitted="0" left="10"/>
      <edge id="beg" traveltime="74.60" sampledSeconds="153.27" density="12.30" occupancy="6.15" noStops="0" speed="6.68" entered="0" emitted="0" left="12"/>
      <edge id="end" traveltime="22.75" sampledSeconds="230.56" density="18.50" occupancy="9.25" noStops="0" speed="21.92" entered="10" emitted="0" left="9"/>
      <edge id="middle" traveltime="108.98" sampledSeconds="1253.11" density="50.61" occupancy="25.30" noStops="0" speed="9.09" entered="13" emitted="0" left="10"/>
      <edge id="rend" traveltime="18.19" sampledSeconds="5.26" density="0.42" occupancy="0.21" noStops="0" speed="27.49" entered="9" emitted="0" left="0"/>
   </interval>
   <interval begin="300" end="325" id="dump_25">
      <edge id=":absEnd_0" traveltime="0.00" sampledSeconds="0.04" density="16.08" occupancy="8.04" noStops="0" speed="27.36" entered="11" emitted="0" left="11"/>
      <edge id=":end_1" traveltime="0.98" sampledSeconds="9.77" density="63.03" occupancy="31.51" noStops="0" speed="6.35" entered="10" emitted="0" left="10"/>
      <edge id="end" traveltime="22.84" sampledSeconds="229.61" density="18.42" occupancy="9.21" noStops="0" speed="21.82" entered="10" emitted="0" left="11"/>
      <edge id="middle" traveltime="141.65" sampledSeconds="1162.28" density="46.94" occupancy="23.47" noStops="0" speed="6.99" entered="0" emitted="0" left="10"/>
      <edge id="rend" traveltime="18.27" sampledSeconds="7.30" density="0.58" occupancy="0.29" noStops="0" speed="27.37" entered="11" emitted="0" left="0"/>
   </interval>
   <interval begin="325" end="350" id="dump_25">
      <edge id=":absEnd_0" traveltime="0.00" sampledSeconds="0.04" density="14.66" occupancy="7.33" noStops="0" speed="27.29" entered="10" emitted="0" left="10"/>
      <edge id=":end_1" traveltime="1.01" sampledSeconds="10.07" density="64.95" occupancy="32.48" noStops="0" speed="6.16" entered="10" emitted="0" left="10"/>
      <edge id="end" traveltime="22.91" sampledSeconds="224.75" density="18.03" occupancy="9.02" noStops="0" speed="21.76" entered="10" emitted="0" left="10"/>
      <edge id="middle" traveltime="241.52" sampledSeconds="915.39" density="36.97" occupancy="18.48" noStops="0" speed="4.10" entered="0" emitted="0" left="10"/>
      <edge id="rend" traveltime="18.31" sampledSeconds="6.76" density="0.54" occupancy="0.27" noStops="0" speed="27.31" entered="10" emitted="0" left="0"/>
   </interval>
   <interval begin="350" end="375" id="dump_25">
      <edge id=":absEnd_0" traveltime="0.00" sampledSeconds="0.04" density="14.64" occupancy="7.32" noStops="0" speed="27.32" entered="10" emitted="0" left="10"/>
      <edge id=":end_1" traveltime="1.04" sampledSeconds="10.43" density="67.30" occupancy="33.65" noStops="0" speed="5.94" entered="10" emitted="0" left="10"/>
      <edge id="end" traveltime="22.97" sampledSeconds="226.22" density="18.15" occupancy="9.08" noStops="0" speed="21.71" entered="10" emitted="0" left="10"/>
      <edge id="middle" traveltime="238.41" sampledSeconds="668.28" density="26.99" occupancy="13.49" noStops="0" speed="4.15" entered="0" emitted="0" left="10"/>
      <edge id="rend" traveltime="18.30" sampledSeconds="4.03" density="0.32" occupancy="0.16" noStops="0" speed="27.32" entered="10" emitted="0" left="0"/>
   </interval>
   <interval begin="375" end="400" id="dump_25">
      <edge id=":absEnd_0" traveltime="0.00" sampledSeconds="0.03" density="13.15" occupancy="6.57" noStops="0" speed="27.38" entered="9" emitted="0" left="9"/>
      <edge id=":end_1" traveltime="0.98" sampledSeconds="9.79" density="63.14" occupancy="31.57" noStops="0" speed="6.33" entered="10" emitted="0" left="10"/>
      <edge id="end" traveltime="23.33" sampledSeconds="225.88" density="18.12" occupancy="9.06" noStops="0" speed="21.37" entered="10" emitted="0" left="9"/>
      <edge id="middle" traveltime="246.51" sampledSeconds="423.71" density="17.11" occupancy="8.56" noStops="0" speed="4.02" entered="0" emitted="0" left="10"/>
      <edge id="rend" traveltime="18.26" sampledSeconds="4.59" density="0.37" occupancy="0.18" noStops="0" speed="27.38" entered="9" emitted="0" left="0"/>
   </interval>
   <interval begin="400" end="425" id="dump_25">
      <edge id=":absEnd_0" traveltime="0.00" sampledSeconds="0.04" density="16.04" occupancy="8.02" noStops="0" speed="27.44" entered="11" emitted="0" left="11"/>
      <edge id=":end_1" traveltime="1.07" sampledSeconds="10.16" density="65.55" occupancy="32.78" noStops="0" speed="5.77" entered="10" emitted="0" left="9"/>
      <edge id="end" traveltime="23.00" sampledSeconds="228.06" density="18.30" occupancy="9.15" noStops="0" speed="21.68" entered="9" emitted="0" left="11"/>
      <edge id="middle" traveltime="240.84" sampledSeconds="175.38" density="7.08" occupancy="3.54" noStops="0" speed="4.11" entered="0" emitted="0" left="10"/>
      <edge id="rend" traveltime="18.22" sampledSeconds="4.35" density="0.35" occupancy="0.17" noStops="0" speed="27.44" entered="11" emitted="0" left="0"/>
   </interval>
   <interval begin="425" end="450" id="dump_25">
      <edge id=":absEnd_0" traveltime="0.00" sampledSeconds="0.03" density="13.07" occupancy="6.54" noStops="0" speed="27.53" entered="9" emitted="0" left="9"/>
      <edge id=":end_1" traveltime="0.98" sampledSeconds="2.50" density="16.15" occupancy="8.07" noStops="0" speed="6.30" entered="2" emitted="0" left="3"/>
      <edge id="end" traveltime="21.00" sampledSeconds="161.24" density="12.94" occupancy="6.47" noStops="0" speed="23.74" entered="3" emitted="0" left="9"/>
      <edge id="middle" traveltime="222.76" sampledSeconds="5.64" density="0.23" occupancy="0.11" noStops="0" speed="4.45" entered="0" emitted="0" left="2"/>
      <edge id="rend" traveltime="18.17" sampledSeconds="4.58" density="0.37" occupancy="0.18" noStops="0" speed="27.51" entered="9" emitted="0" left="0"/>
   </interval>
   <interval begin="450" end="475" id="dump_25">
      <edge id=":absEnd_0" traveltime="0.00" sampledSeconds="0.01" density="2.92" occupancy="1.46" noStops="0" speed="27.42" entered="2" emitted="0" left="2"/>
      <edge id="end" traveltime="18.22" sampledSeconds="3.68" density="0.30" occupancy="0.15" noStops="0" speed="27.36" entered="0" emitted="0" left="2"/>
      <edge id="rend" traveltime="18.17" sampledSeconds="1.31" density="0.11" occupancy="0.05" noStops="0" speed="27.52" entered="2" emitted="0" left="0"/>
   </interval>
   <interval begin="475" end="500" id="dump_25">
   </interval>
   <interval begin="500" end="525" id="dump_25">
   </interval>
   <interval begin="525" end="550" id="dump_25">
   </interval>
   <interval begin="550" end="575" id="dump_25">
   </interval>
   <interval begin="575" end="600" id="dump_25">
   </interval>
   <interval begin="600" end="625" id="dump_25">
   </interval>
   <interval begin="625" end="650" id="dump_25">
   </interval>
   <interval begin="650" end="675" id="dump_25">
   </interval>
   <interval begin="675" end="700" id="dump_25">
   </interval>
   <interval begin="700" end="725" id="dump_25">
   </interval>
   <interval begin="725" end="750" id="dump_25">
   </interval>
   <interval begin="750" end="775" id="dump_25">
   </interval>
   <interval begin="775" end="800" id="dump_25">
   </interval>
   <interval begin="800" end="825" id="dump_25">
   </interval>
   <interval begin="825" end="850" id="dump_25">
   </interval>
   <interval begin="850" end="875" id="dump_25">
   </interval>
   <interval begin="875" end="900" id="dump_25">
   </interval>
   <interval begin="900" end="925" id="dump_25">
   </interval>
   <interval begin="925" end="950" id="dump_25">
   </interval>
   <interval begin="950" end="975" id="dump_25">
   </interval>
   <interval begin="975" end="1000" id="dump_25">
   </interval>
</netstats>
