<?xml version="1.0"?>

<!-- generated on 04/02/10 15:12:57 by SUMO sumo Version dev-SVN-r8487
<configuration>

    <input>
        <net-file value="net.net.xml"/>
        <route-files value="input_routes.rou.xml"/>
        <additional-files value="input_additional.add.xml,input_additional2.add.xml"/>
    </input>

    <time>
        <begin value="0"/>
        <end value="1000"/>
    </time>

    <report>
        <no-duration-log value="true"/>
        <no-step-log value="true"/>
    </report>

</configuration>
-->

<netstats>
    <interval begin="0.00" end="25.00" id="dump_25">
        <edge id="beg" sampledSeconds="136.00" traveltime="34.16" density="10.91" occupancy="5.46" waitingTime="0.00" speed="14.60" departed="11" arrived="0" entered="0" left="0" laneChangedFrom="0" laneChangedTo="0"/>
    </interval>
    <interval begin="25.00" end="50.00" id="dump_25">
        <edge id="beg" sampledSeconds="283.46" traveltime="26.98" density="22.74" occupancy="11.37" waitingTime="0.00" speed="18.48" departed="11" arrived="0" entered="0" left="10" laneChangedFrom="0" laneChangedTo="0"/>
        <edge id="middle" sampledSeconds="111.97" traveltime="74.15" density="4.52" occupancy="2.26" waitingTime="0.00" speed="13.36" departed="0" arrived="0" entered="10" left="0" laneChangedFrom="0" laneChangedTo="0"/>
    </interval>
    <interval begin="50.00" end="75.00" id="dump_25">
        <edge id="beg" sampledSeconds="334.99" traveltime="32.17" density="26.88" occupancy="13.44" waitingTime="0.00" speed="15.50" departed="10" arrived="0" entered="0" left="6" laneChangedFrom="0" laneChangedTo="0"/>
        <edge id="middle" sampledSeconds="314.95" traveltime="462.22" density="12.72" occupancy="6.36" waitingTime="0.00" speed="2.14" departed="0" arrived="0" entered="6" left="0" laneChangedFrom="0" laneChangedTo="0"/>
    </interval>
    <interval begin="75.00" end="100.00" id="dump_25">
        <edge id="beg" sampledSeconds="443.79" traveltime="44.02" density="35.61" occupancy="17.80" waitingTime="0.00" speed="11.33" departed="10" arrived="0" entered="0" left="7" laneChangedFrom="0" laneChangedTo="0"/>
        <edge id="middle" sampledSeconds="468.04" traveltime="463.76" density="18.90" occupancy="9.45" waitingTime="0.00" speed="2.14" departed="0" arrived="0" entered="6" left="0" laneChangedFrom="0" laneChangedTo="0"/>
    </interval>
    <interval begin="100.00" end="125.00" id="dump_25">
        <edge id="beg" sampledSeconds="548.15" traveltime="58.16" density="43.98" occupancy="21.99" waitingTime="0.00" speed="8.57" departed="11" arrived="0" entered="0" left="6" laneChangedFrom="0" laneChangedTo="0"/>
        <edge id="middle" sampledSeconds="620.90" traveltime="467.66" density="25.07" occupancy="12.54" waitingTime="0.00" speed="2.12" departed="0" arrived="0" entered="6" left="0" laneChangedFrom="0" laneChangedTo="0"/>
    </interval>
    <interval begin="125.00" end="150.00" id="dump_25">
        <edge id="beg" sampledSeconds="655.03" traveltime="71.59" density="52.55" occupancy="26.28" waitingTime="0.00" speed="6.96" departed="10" arrived="0" entered="0" left="6" laneChangedFrom="0" laneChangedTo="0"/>
        <edge id="middle" sampledSeconds="769.95" traveltime="473.51" density="31.09" occupancy="15.55" waitingTime="0.00" speed="2.09" departed="0" arrived="0" entered="6" left="0" laneChangedFrom="0" laneChangedTo="0"/>
    </interval>
    <interval begin="150.00" end="175.00" id="dump_25">
        <edge id="beg" sampledSeconds="766.64" traveltime="81.75" density="61.51" occupancy="30.75" waitingTime="0.00" speed="6.10" departed="12" arrived="0" entered="0" left="7" laneChangedFrom="0" laneChangedTo="0"/>
        <edge id="middle" sampledSeconds="937.61" traveltime="94.80" density="37.86" occupancy="18.93" waitingTime="0.00" speed="10.45" departed="0" arrived="0" entered="7" left="0" laneChangedFrom="0" laneChangedTo="0"/>
    </interval>
    <interval begin="175.00" end="200.00" id="dump_25">
        <edge id="beg" sampledSeconds="850.19" traveltime="90.18" density="68.21" occupancy="34.11" waitingTime="0.00" speed="5.53" departed="10" arrived="0" entered="0" left="9" laneChangedFrom="0" laneChangedTo="0"/>
        <edge id="end" sampledSeconds="100.93" traveltime="26.66" density="8.10" occupancy="4.05" waitingTime="0.00" speed="18.70" departed="0" arrived="0" entered="9" left="0" laneChangedFrom="0" laneChangedTo="0"/>
        <edge id="middle" sampledSeconds="1023.96" traveltime="60.77" density="41.35" occupancy="20.68" waitingTime="0.00" speed="16.30" departed="0" arrived="0" entered="10" left="10" laneChangedFrom="0" laneChangedTo="0"/>
    </interval>
    <interval begin="200.00" end="225.00" id="dump_25">
        <edge id="beg" sampledSeconds="778.81" traveltime="76.68" density="62.49" occupancy="31.24" waitingTime="0.00" speed="6.50" departed="11" arrived="0" entered="0" left="16" laneChangedFrom="0" laneChangedTo="0"/>
        <edge id="end" sampledSeconds="235.39" traveltime="22.61" density="18.89" occupancy="9.44" waitingTime="0.00" speed="22.05" departed="0" arrived="0" entered="11" left="10" laneChangedFrom="0" laneChangedTo="0"/>
        <edge id="middle" sampledSeconds="1097.22" traveltime="66.22" density="44.31" occupancy="22.15" waitingTime="0.00" speed="14.96" departed="0" arrived="0" entered="16" left="10" laneChangedFrom="0" laneChangedTo="0"/>
        <edge id="rend" sampledSeconds="6.80" traveltime="18.20" density="0.54" occupancy="0.27" waitingTime="0.00" speed="27.47" departed="0" arrived="10" entered="10" left="0" laneChangedFrom="0" laneChangedTo="0"/>
    </interval>
    <interval begin="225.00" end="250.00" id="dump_25">
        <edge id="beg" sampledSeconds="605.55" traveltime="50.64" density="48.58" occupancy="24.29" waitingTime="0.00" speed="9.85" departed="5" arrived="0" entered="0" left="17" laneChangedFrom="0" laneChangedTo="0"/>
        <edge id="end" sampledSeconds="226.59" traveltime="22.87" density="18.18" occupancy="9.09" waitingTime="0.00" speed="21.80" departed="0" arrived="0" entered="10" left="10" laneChangedFrom="0" laneChangedTo="0"/>
        <edge id="middle" sampledSeconds="1255.56" traveltime="83.02" density="50.70" occupancy="25.35" waitingTime="0.00" speed="11.93" departed="0" arrived="0" entered="16" left="10" laneChangedFrom="0" laneChangedTo="0"/>
        <edge id="rend" sampledSeconds="4.37" traveltime="18.41" density="0.35" occupancy="0.17" waitingTime="0.00" speed="27.16" departed="0" arrived="10" entered="10" left="0" laneChangedFrom="0" laneChangedTo="0"/>
    </interval>
    <interval begin="250.00" end="275.00" id="dump_25">
        <edge id="beg" sampledSeconds="209.28" traveltime="32.10" density="16.79" occupancy="8.40" waitingTime="0.00" speed="15.53" departed="0" arrived="0" entered="0" left="17" laneChangedFrom="0" laneChangedTo="0"/>
        <edge id="end" sampledSeconds="240.21" traveltime="22.71" density="19.27" occupancy="9.64" waitingTime="0.00" speed="21.95" departed="0" arrived="0" entered="10" left="10" laneChangedFrom="0" laneChangedTo="0"/>
        <edge id="middle" sampledSeconds="1426.98" traveltime="100.59" density="57.63" occupancy="28.81" waitingTime="0.00" speed="9.85" departed="0" arrived="0" entered="18" left="11" laneChangedFrom="0" laneChangedTo="0"/>
        <edge id="rend" sampledSeconds="5.20" traveltime="18.21" density="0.42" occupancy="0.21" waitingTime="0.00" speed="27.46" departed="0" arrived="10" entered="10" left="0" laneChangedFrom="0" laneChangedTo="0"/>
    </interval>
    <interval begin="275.00" end="300.00" id="dump_25">
        <edge id="end" sampledSeconds="238.17" traveltime="22.89" density="19.11" occupancy="9.55" waitingTime="0.00" speed="21.78" departed="0" arrived="0" entered="11" left="12" laneChangedFrom="0" laneChangedTo="0"/>
        <edge id="middle" sampledSeconds="1377.26" traveltime="159.96" density="55.62" occupancy="27.81" waitingTime="0.00" speed="6.19" departed="0" arrived="0" entered="0" left="10" laneChangedFrom="0" laneChangedTo="0"/>
        <edge id="rend" sampledSeconds="6.48" traveltime="18.21" density="0.52" occupancy="0.26" waitingTime="0.00" speed="27.46" departed="0" arrived="12" entered="12" left="0" laneChangedFrom="0" laneChangedTo="0"/>
    </interval>
    <interval begin="300.00" end="325.00" id="dump_25">
        <edge id="end" sampledSeconds="235.76" traveltime="22.59" density="18.92" occupancy="9.46" waitingTime="0.00" speed="22.07" departed="0" arrived="0" entered="10" left="9" laneChangedFrom="0" laneChangedTo="0"/>
        <edge id="middle" sampledSeconds="1121.99" traveltime="220.34" density="45.31" occupancy="22.66" waitingTime="0.00" speed="4.50" departed="0" arrived="0" entered="0" left="10" laneChangedFrom="0" laneChangedTo="0"/>
        <edge id="rend" sampledSeconds="3.76" traveltime="18.39" density="0.30" occupancy="0.15" waitingTime="0.00" speed="27.19" departed="0" arrived="9" entered="9" left="0" laneChangedFrom="0" laneChangedTo="0"/>
    </interval>
    <interval begin="325.00" end="350.00" id="dump_25">
        <edge id="end" sampledSeconds="232.51" traveltime="22.65" density="18.65" occupancy="9.33" waitingTime="0.00" speed="22.01" departed="0" arrived="0" entered="10" left="11" laneChangedFrom="0" laneChangedTo="0"/>
        <edge id="middle" sampledSeconds="865.26" traveltime="224.97" density="34.94" occupancy="17.47" waitingTime="0.00" speed="4.40" departed="0" arrived="0" entered="0" left="10" laneChangedFrom="0" laneChangedTo="0"/>
        <edge id="rend" sampledSeconds="5.71" traveltime="18.33" density="0.46" occupancy="0.23" waitingTime="0.00" speed="27.28" departed="0" arrived="11" entered="11" left="0" laneChangedFrom="0" laneChangedTo="0"/>
    </interval>
    <interval begin="350.00" end="375.00" id="dump_25">
        <edge id="end" sampledSeconds="240.33" traveltime="22.91" density="19.28" occupancy="9.64" waitingTime="0.00" speed="21.76" departed="0" arrived="0" entered="11" left="10" laneChangedFrom="0" laneChangedTo="0"/>
        <edge id="middle" sampledSeconds="601.87" traveltime="220.35" density="24.31" occupancy="12.15" waitingTime="0.00" speed="4.50" departed="0" arrived="0" entered="0" left="11" laneChangedFrom="0" laneChangedTo="0"/>
        <edge id="rend" sampledSeconds="4.98" traveltime="18.14" density="0.40" occupancy="0.20" waitingTime="0.00" speed="27.56" departed="0" arrived="10" entered="10" left="0" laneChangedFrom="0" laneChangedTo="0"/>
    </interval>
    <interval begin="375.00" end="400.00" id="dump_25">
        <edge id="end" sampledSeconds="240.20" traveltime="22.66" density="19.27" occupancy="9.64" waitingTime="0.00" speed="22.00" departed="0" arrived="0" entered="10" left="11" laneChangedFrom="0" laneChangedTo="0"/>
        <edge id="middle" sampledSeconds="336.48" traveltime="214.03" density="13.59" occupancy="6.79" waitingTime="0.00" speed="4.63" departed="0" arrived="0" entered="0" left="11" laneChangedFrom="0" laneChangedTo="0"/>
        <edge id="rend" sampledSeconds="5.28" traveltime="18.24" density="0.42" occupancy="0.21" waitingTime="0.00" speed="27.42" departed="0" arrived="11" entered="11" left="0" laneChangedFrom="0" laneChangedTo="0"/>
    </interval>
    <interval begin="400.00" end="425.00" id="dump_25">
        <edge id="end" sampledSeconds="230.06" traveltime="22.49" density="18.46" occupancy="9.23" waitingTime="0.00" speed="22.17" departed="0" arrived="0" entered="9" left="11" laneChangedFrom="0" laneChangedTo="0"/>
        <edge id="middle" sampledSeconds="83.89" traveltime="223.96" density="3.39" occupancy="1.69" waitingTime="0.00" speed="4.42" departed="0" arrived="0" entered="0" left="8" laneChangedFrom="0" laneChangedTo="0"/>
        <edge id="rend" sampledSeconds="5.35" traveltime="18.26" density="0.43" occupancy="0.21" waitingTime="0.00" speed="27.38" departed="0" arrived="11" entered="11" left="0" laneChangedFrom="0" laneChangedTo="0"/>
    </interval>
    <interval begin="425.00" end="450.00" id="dump_25">
        <edge id="end" sampledSeconds="73.78" traveltime="18.92" density="5.92" occupancy="2.96" waitingTime="0.00" speed="26.35" departed="0" arrived="0" entered="0" left="7" laneChangedFrom="0" laneChangedTo="0"/>
        <edge id="rend" sampledSeconds="4.19" traveltime="18.27" density="0.34" occupancy="0.17" waitingTime="0.00" speed="27.36" departed="0" arrived="7" entered="7" left="0" laneChangedFrom="0" laneChangedTo="0"/>
    </interval>
    <interval begin="450.00" end="475.00" id="dump_25">
    </interval>
    <interval begin="475.00" end="500.00" id="dump_25">
    </interval>
    <interval begin="500.00" end="525.00" id="dump_25">
    </interval>
    <interval begin="525.00" end="550.00" id="dump_25">
    </interval>
    <interval begin="550.00" end="575.00" id="dump_25">
    </interval>
    <interval begin="575.00" end="600.00" id="dump_25">
    </interval>
    <interval begin="600.00" end="625.00" id="dump_25">
    </interval>
    <interval begin="625.00" end="650.00" id="dump_25">
    </interval>
    <interval begin="650.00" end="675.00" id="dump_25">
    </interval>
    <interval begin="675.00" end="700.00" id="dump_25">
    </interval>
    <interval begin="700.00" end="725.00" id="dump_25">
    </interval>
    <interval begin="725.00" end="750.00" id="dump_25">
    </interval>
    <interval begin="750.00" end="775.00" id="dump_25">
    </interval>
    <interval begin="775.00" end="800.00" id="dump_25">
    </interval>
    <interval begin="800.00" end="825.00" id="dump_25">
    </interval>
    <interval begin="825.00" end="850.00" id="dump_25">
    </interval>
    <interval begin="850.00" end="875.00" id="dump_25">
    </interval>
    <interval begin="875.00" end="900.00" id="dump_25">
    </interval>
    <interval begin="900.00" end="925.00" id="dump_25">
    </interval>
    <interval begin="925.00" end="950.00" id="dump_25">
    </interval>
    <interval begin="950.00" end="975.00" id="dump_25">
    </interval>
    <interval begin="975.00" end="1000.00" id="dump_25">
    </interval>
</netstats>
