<?xml version="1.0"?>

<!-- generated on 11/06/12 12:16:06 by SUMO sumo Version dev-SVN-rUNKNOWN
<?xml version="1.0" encoding="UTF-8"?>

<configuration xmlns:xsi="http://www.w3.org/2001/XMLSchema-instance" xsi:noNamespaceSchemaLocation="http://sumo.sf.net/xsd/sumoConfiguration.xsd">

    <input>
        <net-file value="net.net.xml"/>
        <route-files value="input_routes.rou.xml"/>
        <additional-files value="input_additional.add.xml,input_additional2.add.xml"/>
    </input>

    <time>
        <begin value="0"/>
        <end value="1000"/>
    </time>

    <report>
        <no-duration-log value="true"/>
        <no-step-log value="true"/>
    </report>

</configuration>
-->

<netstats>
    <interval begin="0.00" end="25.00" id="dump_25">
        <edge id="beg" sampledSeconds="42.00" traveltime="29.40" density="3.37" occupancy="1.01" waitingTime="0.00" speed="16.96" departed="3" arrived="0" entered="0" left="0" laneChangedFrom="0" laneChangedTo="0"/>
    </interval>
    <interval begin="25.00" end="50.00" id="dump_25">
        <edge id="beg" sampledSeconds="62.79" traveltime="25.09" density="5.04" occupancy="1.51" waitingTime="0.00" speed="19.87" departed="2" arrived="0" entered="0" left="3" laneChangedFrom="0" laneChangedTo="0"/>
        <edge id="middle" sampledSeconds="39.47" traveltime="75.03" density="1.59" occupancy="0.48" waitingTime="0.00" speed="13.20" departed="0" arrived="0" entered="3" left="0" laneChangedFrom="0" laneChangedTo="0"/>
    </interval>
    <interval begin="50.00" end="75.00" id="dump_25">
        <edge id="beg" sampledSeconds="69.47" traveltime="28.26" density="5.57" occupancy="1.67" waitingTime="0.00" speed="17.64" departed="3" arrived="0" entered="0" left="2" laneChangedFrom="0" laneChangedTo="0"/>
        <edge id="middle" sampledSeconds="94.56" traveltime="400.12" density="3.82" occupancy="1.15" waitingTime="0.00" speed="2.48" departed="0" arrived="0" entered="2" left="0" laneChangedFrom="0" laneChangedTo="0"/>
    </interval>
    <interval begin="75.00" end="100.00" id="dump_25">
        <edge id="beg" sampledSeconds="70.65" traveltime="28.06" density="5.67" occupancy="1.70" waitingTime="0.00" speed="17.76" departed="2" arrived="0" entered="0" left="3" laneChangedFrom="0" laneChangedTo="0"/>
        <edge id="middle" sampledSeconds="153.72" traveltime="462.47" density="6.21" occupancy="1.86" waitingTime="0.00" speed="2.14" departed="0" arrived="0" entered="2" left="0" laneChangedFrom="0" laneChangedTo="0"/>
    </interval>
    <interval begin="100.00" end="125.00" id="dump_25">
        <edge id="beg" sampledSeconds="70.33" traveltime="27.60" density="5.64" occupancy="1.69" waitingTime="0.00" speed="18.06" departed="3" arrived="0" entered="0" left="2" laneChangedFrom="0" laneChangedTo="0"/>
        <edge id="middle" sampledSeconds="218.91" traveltime="464.02" density="8.84" occupancy="2.65" waitingTime="0.00" speed="2.13" departed="0" arrived="0" entered="3" left="0" laneChangedFrom="0" laneChangedTo="0"/>
    </interval>
    <interval begin="125.00" end="150.00" id="dump_25">
        <edge id="beg" sampledSeconds="70.24" traveltime="28.43" density="5.64" occupancy="1.69" waitingTime="0.00" speed="17.53" departed="2" arrived="0" entered="0" left="3" laneChangedFrom="0" laneChangedTo="0"/>
        <edge id="middle" sampledSeconds="279.98" traveltime="459.73" density="11.31" occupancy="3.39" waitingTime="0.00" speed="2.15" departed="0" arrived="0" entered="2" left="0" laneChangedFrom="0" laneChangedTo="0"/>
    </interval>
    <interval begin="150.00" end="175.00" id="dump_25">
        <edge id="beg" sampledSeconds="65.25" traveltime="25.08" density="5.24" occupancy="1.57" waitingTime="0.00" speed="19.87" departed="3" arrived="0" entered="0" left="2" laneChangedFrom="0" laneChangedTo="0"/>
        <edge id="middle" sampledSeconds="351.06" traveltime="52.66" density="14.18" occupancy="4.25" waitingTime="0.00" speed="18.81" departed="0" arrived="0" entered="3" left="0" laneChangedFrom="0" laneChangedTo="0"/>
    </interval>
    <interval begin="175.00" end="200.00" id="dump_25">
        <edge id="beg" sampledSeconds="61.35" traveltime="25.82" density="4.92" occupancy="1.48" waitingTime="0.00" speed="19.31" departed="2" arrived="0" entered="0" left="3" laneChangedFrom="0" laneChangedTo="0"/>
        <edge id="end" sampledSeconds="87.95" traveltime="24.27" density="7.06" occupancy="2.12" waitingTime="0.00" speed="20.54" departed="0" arrived="0" entered="8" left="1" laneChangedFrom="0" laneChangedTo="0"/>
        <edge id="middle" sampledSeconds="323.30" traveltime="45.51" density="13.06" occupancy="3.92" waitingTime="0.00" speed="21.76" departed="0" arrived="0" entered="3" left="8" laneChangedFrom="0" laneChangedTo="0"/>
        <edge id="rend" sampledSeconds="1.84" traveltime="18.73" density="0.15" occupancy="0.04" waitingTime="0.00" speed="26.69" departed="0" arrived="0" entered="1" left="0" laneChangedFrom="0" laneChangedTo="0"/>
    </interval>
    <interval begin="200.00" end="225.00" id="dump_25">
        <edge id="beg" sampledSeconds="65.90" traveltime="25.15" density="5.29" occupancy="1.59" waitingTime="0.00" speed="19.82" departed="3" arrived="0" entered="0" left="2" laneChangedFrom="0" laneChangedTo="0"/>
        <edge id="end" sampledSeconds="179.36" traveltime="21.94" density="14.39" occupancy="4.32" waitingTime="0.00" speed="22.73" departed="0" arrived="0" entered="8" left="8" laneChangedFrom="0" laneChangedTo="0"/>
        <edge id="middle" sampledSeconds="178.67" traveltime="60.83" density="7.22" occupancy="2.16" waitingTime="0.00" speed="16.28" departed="0" arrived="0" entered="2" left="8" laneChangedFrom="0" laneChangedTo="0"/>
        <edge id="rend" sampledSeconds="101.64" traveltime="18.40" density="8.13" occupancy="2.44" waitingTime="0.00" speed="27.17" departed="0" arrived="3" entered="8" left="0" laneChangedFrom="0" laneChangedTo="0"/>
    </interval>
    <interval begin="225.00" end="250.00" id="dump_25">
        <edge id="beg" sampledSeconds="62.33" traveltime="25.07" density="5.00" occupancy="1.50" waitingTime="0.00" speed="19.88" departed="2" arrived="0" entered="0" left="3" laneChangedFrom="0" laneChangedTo="0"/>
        <edge id="end" sampledSeconds="135.48" traveltime="20.76" density="10.87" occupancy="3.26" waitingTime="0.00" speed="24.01" departed="0" arrived="0" entered="4" left="8" laneChangedFrom="0" laneChangedTo="0"/>
        <edge id="middle" sampledSeconds="85.06" traveltime="32.68" density="3.43" occupancy="1.03" waitingTime="0.00" speed="30.31" departed="0" arrived="0" entered="3" left="4" laneChangedFrom="0" laneChangedTo="0"/>
        <edge id="rend" sampledSeconds="152.83" traveltime="18.40" density="12.23" occupancy="3.67" waitingTime="0.00" speed="27.17" departed="0" arrived="8" entered="8" left="0" laneChangedFrom="0" laneChangedTo="0"/>
    </interval>
    <interval begin="250.00" end="275.00" id="dump_25">
        <edge id="beg" sampledSeconds="64.14" traveltime="25.01" density="5.15" occupancy="1.54" waitingTime="0.00" speed="19.93" departed="3" arrived="0" entered="0" left="2" laneChangedFrom="0" laneChangedTo="0"/>
        <edge id="end" sampledSeconds="58.45" traveltime="21.58" density="4.69" occupancy="1.41" waitingTime="0.00" speed="23.10" departed="0" arrived="0" entered="2" left="3" laneChangedFrom="0" laneChangedTo="0"/>
        <edge id="middle" sampledSeconds="78.97" traveltime="31.46" density="3.19" occupancy="0.96" waitingTime="0.00" speed="31.49" departed="0" arrived="0" entered="2" left="2" laneChangedFrom="0" laneChangedTo="0"/>
        <edge id="rend" sampledSeconds="94.74" traveltime="18.43" density="7.58" occupancy="2.27" waitingTime="0.00" speed="27.13" departed="0" arrived="7" entered="3" left="0" laneChangedFrom="0" laneChangedTo="0"/>
    </interval>
    <interval begin="275.00" end="300.00" id="dump_25">
        <edge id="beg" sampledSeconds="61.64" traveltime="25.00" density="4.95" occupancy="1.48" waitingTime="0.00" speed="19.94" departed="2" arrived="0" entered="0" left="3" laneChangedFrom="0" laneChangedTo="0"/>
        <edge id="end" sampledSeconds="52.13" traveltime="22.13" density="4.18" occupancy="1.25" waitingTime="0.00" speed="22.53" departed="0" arrived="0" entered="3" left="2" laneChangedFrom="0" laneChangedTo="0"/>
        <edge id="middle" sampledSeconds="82.77" traveltime="33.15" density="3.34" occupancy="1.00" waitingTime="0.00" speed="29.88" departed="0" arrived="0" entered="3" left="3" laneChangedFrom="0" laneChangedTo="0"/>
        <edge id="rend" sampledSeconds="47.97" traveltime="18.42" density="3.84" occupancy="1.15" waitingTime="0.00" speed="27.15" departed="0" arrived="3" entered="2" left="0" laneChangedFrom="0" laneChangedTo="0"/>
    </interval>
    <interval begin="300.00" end="325.00" id="dump_25">
        <edge id="beg" sampledSeconds="22.49" traveltime="19.70" density="1.80" occupancy="0.54" waitingTime="0.00" speed="25.31" departed="0" arrived="0" entered="0" left="2" laneChangedFrom="0" laneChangedTo="0"/>
        <edge id="end" sampledSeconds="56.47" traveltime="21.65" density="4.53" occupancy="1.36" waitingTime="0.00" speed="23.03" departed="0" arrived="0" entered="2" left="3" laneChangedFrom="0" laneChangedTo="0"/>
        <edge id="middle" sampledSeconds="79.79" traveltime="32.02" density="3.22" occupancy="0.97" waitingTime="0.00" speed="30.93" departed="0" arrived="0" entered="2" left="2" laneChangedFrom="0" laneChangedTo="0"/>
        <edge id="rend" sampledSeconds="44.59" traveltime="18.41" density="3.57" occupancy="1.07" waitingTime="0.00" speed="27.16" departed="0" arrived="2" entered="3" left="0" laneChangedFrom="0" laneChangedTo="0"/>
    </interval>
    <interval begin="325.00" end="350.00" id="dump_25">
        <edge id="end" sampledSeconds="54.16" traveltime="21.98" density="4.35" occupancy="1.30" waitingTime="0.00" speed="22.68" departed="0" arrived="0" entered="3" left="2" laneChangedFrom="0" laneChangedTo="0"/>
        <edge id="middle" sampledSeconds="41.73" traveltime="37.74" density="1.69" occupancy="0.51" waitingTime="0.00" speed="26.24" departed="0" arrived="0" entered="0" left="3" laneChangedFrom="0" laneChangedTo="0"/>
        <edge id="rend" sampledSeconds="46.16" traveltime="18.39" density="3.69" occupancy="1.11" waitingTime="0.00" speed="27.20" departed="0" arrived="3" entered="2" left="0" laneChangedFrom="0" laneChangedTo="0"/>
    </interval>
    <interval begin="350.00" end="375.00" id="dump_25">
        <edge id="end" sampledSeconds="33.82" traveltime="19.67" density="2.71" occupancy="0.81" waitingTime="0.00" speed="25.34" departed="0" arrived="0" entered="0" left="3" laneChangedFrom="0" laneChangedTo="0"/>
        <edge id="rend" sampledSeconds="47.22" traveltime="18.43" density="3.78" occupancy="1.13" waitingTime="0.00" speed="27.13" departed="0" arrived="2" entered="3" left="0" laneChangedFrom="0" laneChangedTo="0"/>
    </interval>
    <interval begin="375.00" end="400.00" id="dump_25">
        <edge id="rend" sampledSeconds="18.70" traveltime="18.45" density="1.50" occupancy="0.45" waitingTime="0.00" speed="27.10" departed="0" arrived="2" entered="0" left="0" laneChangedFrom="0" laneChangedTo="0"/>
    </interval>
    <interval begin="400.00" end="425.00" id="dump_25">
    </interval>
    <interval begin="425.00" end="450.00" id="dump_25">
    </interval>
    <interval begin="450.00" end="475.00" id="dump_25">
    </interval>
    <interval begin="475.00" end="500.00" id="dump_25">
    </interval>
    <interval begin="500.00" end="525.00" id="dump_25">
    </interval>
    <interval begin="525.00" end="550.00" id="dump_25">
    </interval>
    <interval begin="550.00" end="575.00" id="dump_25">
    </interval>
    <interval begin="575.00" end="600.00" id="dump_25">
    </interval>
    <interval begin="600.00" end="625.00" id="dump_25">
    </interval>
    <interval begin="625.00" end="650.00" id="dump_25">
    </interval>
    <interval begin="650.00" end="675.00" id="dump_25">
    </interval>
    <interval begin="675.00" end="700.00" id="dump_25">
    </interval>
    <interval begin="700.00" end="725.00" id="dump_25">
    </interval>
    <interval begin="725.00" end="750.00" id="dump_25">
    </interval>
    <interval begin="750.00" end="775.00" id="dump_25">
    </interval>
    <interval begin="775.00" end="800.00" id="dump_25">
    </interval>
    <interval begin="800.00" end="825.00" id="dump_25">
    </interval>
    <interval begin="825.00" end="850.00" id="dump_25">
    </interval>
    <interval begin="850.00" end="875.00" id="dump_25">
    </interval>
    <interval begin="875.00" end="900.00" id="dump_25">
    </interval>
    <interval begin="900.00" end="925.00" id="dump_25">
    </interval>
    <interval begin="925.00" end="950.00" id="dump_25">
    </interval>
    <interval begin="950.00" end="975.00" id="dump_25">
    </interval>
    <interval begin="975.00" end="1000.00" id="dump_25">
    </interval>
</netstats>
