<?xml version="1.0"?>

<!-- generated on 07/07/11 07:10:16 by SUMO sumo Version dev-SVN-r10879
<?xml version="1.0" encoding="iso-8859-1"?>

<configuration xmlns:xsi="http://www.w3.org/2001/XMLSchema-instance" xsi:noNamespaceSchemaLocation="http://sumo.sf.net/xsd/sumoConfiguration.xsd">

    <input>
        <net-file value="net.net.xml"/>
        <route-files value="input_routes.rou.xml"/>
        <additional-files value="input_additional.add.xml,input_additional2.add.xml"/>
    </input>

    <time>
        <begin value="0"/>
        <end value="1000"/>
    </time>

    <report>
        <no-duration-log value="true"/>
        <no-step-log value="true"/>
    </report>

</configuration>
-->

<netstats>
    <interval begin="0.00" end="25.00" id="dump_25">
        <edge id="beg" sampledSeconds="125.00" traveltime="35.48" density="10.03" occupancy="5.01" waitingTime="0.00" speed="14.05" departed="10" arrived="0" entered="0" left="0" laneChangedFrom="0" laneChangedTo="0"/>
    </interval>
    <interval begin="25.00" end="50.00" id="dump_25">
        <edge id="beg" sampledSeconds="297.12" traveltime="29.69" density="23.84" occupancy="11.92" waitingTime="0.00" speed="16.79" departed="10" arrived="0" entered="0" left="8" laneChangedFrom="0" laneChangedTo="0"/>
        <edge id="middle" sampledSeconds="74.09" traveltime="74.74" density="2.99" occupancy="1.50" waitingTime="0.00" speed="13.25" departed="0" arrived="0" entered="8" left="0" laneChangedFrom="0" laneChangedTo="0"/>
    </interval>
    <interval begin="50.00" end="75.00" id="dump_25">
        <edge id="beg" sampledSeconds="339.46" traveltime="36.36" density="27.24" occupancy="13.62" waitingTime="0.00" speed="13.71" departed="9" arrived="0" entered="0" left="6" laneChangedFrom="0" laneChangedTo="0"/>
        <edge id="middle" sampledSeconds="261.28" traveltime="412.37" density="10.55" occupancy="5.28" waitingTime="0.00" speed="2.40" departed="0" arrived="0" entered="5" left="0" laneChangedFrom="0" laneChangedTo="0"/>
    </interval>
    <interval begin="75.00" end="100.00" id="dump_25">
        <edge id="beg" sampledSeconds="426.63" traveltime="48.65" density="34.23" occupancy="17.11" waitingTime="0.00" speed="10.25" departed="10" arrived="0" entered="0" left="6" laneChangedFrom="0" laneChangedTo="0"/>
        <edge id="middle" sampledSeconds="399.78" traveltime="466.58" density="16.14" occupancy="8.07" waitingTime="0.00" speed="2.12" departed="0" arrived="0" entered="6" left="0" laneChangedFrom="0" laneChangedTo="0"/>
    </interval>
    <interval begin="100.00" end="125.00" id="dump_25">
        <edge id="beg" sampledSeconds="510.94" traveltime="61.15" density="40.99" occupancy="20.50" waitingTime="2.00" speed="8.15" departed="9" arrived="0" entered="0" left="6" laneChangedFrom="0" laneChangedTo="0"/>
        <edge id="middle" sampledSeconds="542.17" traveltime="469.66" density="21.89" occupancy="10.95" waitingTime="0.00" speed="2.11" departed="0" arrived="0" entered="6" left="0" laneChangedFrom="0" laneChangedTo="0"/>
    </interval>
    <interval begin="125.00" end="150.00" id="dump_25">
        <edge id="beg" sampledSeconds="604.10" traveltime="69.72" density="48.47" occupancy="24.23" waitingTime="0.00" speed="7.15" departed="10" arrived="0" entered="0" left="5" laneChangedFrom="0" laneChangedTo="0"/>
        <edge id="middle" sampledSeconds="689.63" traveltime="472.32" density="27.85" occupancy="13.92" waitingTime="0.00" speed="2.10" departed="0" arrived="0" entered="5" left="0" laneChangedFrom="0" laneChangedTo="0"/>
    </interval>
    <interval begin="150.00" end="175.00" id="dump_25">
        <edge id="beg" sampledSeconds="697.78" traveltime="83.37" density="55.98" occupancy="27.99" waitingTime="0.00" speed="5.98" departed="9" arrived="0" entered="0" left="7" laneChangedFrom="0" laneChangedTo="0"/>
        <edge id="middle" sampledSeconds="840.73" traveltime="118.48" density="33.95" occupancy="16.98" waitingTime="0.00" speed="8.36" departed="0" arrived="0" entered="7" left="0" laneChangedFrom="0" laneChangedTo="0"/>
    </interval>
    <interval begin="175.00" end="200.00" id="dump_25">
        <edge id="beg" sampledSeconds="775.39" traveltime="95.75" density="62.21" occupancy="31.11" waitingTime="0.00" speed="5.21" departed="10" arrived="0" entered="0" left="6" laneChangedFrom="0" laneChangedTo="0"/>
        <edge id="end" sampledSeconds="48.26" traveltime="27.45" density="3.87" occupancy="1.94" waitingTime="0.00" speed="18.16" departed="0" arrived="0" entered="6" left="0" laneChangedFrom="0" laneChangedTo="0"/>
        <edge id="middle" sampledSeconds="946.71" traveltime="78.39" density="38.23" occupancy="19.12" waitingTime="0.00" speed="12.64" departed="0" arrived="0" entered="7" left="6" laneChangedFrom="0" laneChangedTo="0"/>
    </interval>
    <interval begin="200.00" end="225.00" id="dump_25">
        <edge id="beg" sampledSeconds="798.07" traveltime="97.21" density="64.03" occupancy="32.02" waitingTime="0.00" speed="5.13" departed="9" arrived="0" entered="0" left="11" laneChangedFrom="0" laneChangedTo="0"/>
        <edge id="end" sampledSeconds="179.10" traveltime="22.32" density="14.37" occupancy="7.18" waitingTime="0.00" speed="22.33" departed="0" arrived="0" entered="8" left="7" laneChangedFrom="0" laneChangedTo="0"/>
        <edge id="middle" sampledSeconds="967.31" traveltime="80.40" density="39.06" occupancy="19.53" waitingTime="0.00" speed="12.32" departed="0" arrived="0" entered="10" left="8" laneChangedFrom="0" laneChangedTo="0"/>
        <edge id="rend" sampledSeconds="4.76" traveltime="18.45" density="0.38" occupancy="0.19" waitingTime="0.00" speed="27.10" departed="0" arrived="7" entered="7" left="0" laneChangedFrom="0" laneChangedTo="0"/>
    </interval>
    <interval begin="225.00" end="250.00" id="dump_25">
        <edge id="beg" sampledSeconds="756.47" traveltime="84.33" density="60.69" occupancy="30.35" waitingTime="0.00" speed="5.91" departed="10" arrived="0" entered="0" left="12" laneChangedFrom="0" laneChangedTo="0"/>
        <edge id="end" sampledSeconds="183.32" traveltime="22.33" density="14.71" occupancy="7.35" waitingTime="0.00" speed="22.32" departed="0" arrived="0" entered="8" left="8" laneChangedFrom="0" laneChangedTo="0"/>
        <edge id="middle" sampledSeconds="1041.85" traveltime="88.69" density="42.07" occupancy="21.04" waitingTime="0.00" speed="11.17" departed="0" arrived="0" entered="12" left="9" laneChangedFrom="0" laneChangedTo="0"/>
        <edge id="rend" sampledSeconds="3.78" traveltime="18.54" density="0.30" occupancy="0.15" waitingTime="0.00" speed="26.98" departed="0" arrived="8" entered="8" left="0" laneChangedFrom="0" laneChangedTo="0"/>
    </interval>
    <interval begin="250.00" end="275.00" id="dump_25">
        <edge id="beg" sampledSeconds="669.37" traveltime="70.71" density="53.71" occupancy="26.85" waitingTime="0.00" speed="7.05" departed="5" arrived="0" entered="0" left="12" laneChangedFrom="0" laneChangedTo="0"/>
        <edge id="end" sampledSeconds="189.17" traveltime="22.39" density="15.18" occupancy="7.59" waitingTime="0.00" speed="22.27" departed="0" arrived="0" entered="9" left="8" laneChangedFrom="0" laneChangedTo="0"/>
        <edge id="middle" sampledSeconds="1137.62" traveltime="100.04" density="45.94" occupancy="22.97" waitingTime="0.00" speed="9.90" departed="0" arrived="0" entered="13" left="8" laneChangedFrom="0" laneChangedTo="0"/>
        <edge id="rend" sampledSeconds="4.79" traveltime="18.51" density="0.38" occupancy="0.19" waitingTime="0.00" speed="27.02" departed="0" arrived="8" entered="8" left="0" laneChangedFrom="0" laneChangedTo="0"/>
    </interval>
    <interval begin="275.00" end="300.00" id="dump_25">
        <edge id="beg" sampledSeconds="397.96" traveltime="57.72" density="31.93" occupancy="15.96" waitingTime="0.00" speed="8.64" departed="0" arrived="0" entered="0" left="12" laneChangedFrom="0" laneChangedTo="0"/>
        <edge id="end" sampledSeconds="196.44" traveltime="21.74" density="15.76" occupancy="7.88" waitingTime="0.00" speed="22.94" departed="0" arrived="0" entered="9" left="9" laneChangedFrom="0" laneChangedTo="0"/>
        <edge id="middle" sampledSeconds="1227.48" traveltime="111.28" density="49.57" occupancy="24.79" waitingTime="0.00" speed="8.90" departed="0" arrived="0" entered="12" left="9" laneChangedFrom="0" laneChangedTo="0"/>
        <edge id="rend" sampledSeconds="5.95" traveltime="18.19" density="0.48" occupancy="0.24" waitingTime="0.00" speed="27.49" departed="0" arrived="9" entered="9" left="0" laneChangedFrom="0" laneChangedTo="0"/>
    </interval>
    <interval begin="300.00" end="325.00" id="dump_25">
        <edge id="beg" sampledSeconds="94.11" traveltime="40.28" density="7.55" occupancy="3.78" waitingTime="0.00" speed="12.38" departed="0" arrived="0" entered="0" left="10" laneChangedFrom="0" laneChangedTo="0"/>
        <edge id="end" sampledSeconds="191.55" traveltime="22.20" density="15.37" occupancy="7.68" waitingTime="0.00" speed="22.46" departed="0" arrived="0" entered="8" left="9" laneChangedFrom="0" laneChangedTo="0"/>
        <edge id="middle" sampledSeconds="1314.94" traveltime="124.32" density="53.10" occupancy="26.55" waitingTime="0.00" speed="7.97" departed="0" arrived="0" entered="10" left="9" laneChangedFrom="0" laneChangedTo="0"/>
        <edge id="rend" sampledSeconds="2.49" traveltime="18.41" density="0.20" occupancy="0.10" waitingTime="0.00" speed="27.16" departed="0" arrived="9" entered="9" left="0" laneChangedFrom="0" laneChangedTo="0"/>
    </interval>
    <interval begin="325.00" end="350.00" id="dump_25">
        <edge id="end" sampledSeconds="190.18" traveltime="22.21" density="15.26" occupancy="7.63" waitingTime="0.00" speed="22.45" departed="0" arrived="0" entered="9" left="8" laneChangedFrom="0" laneChangedTo="0"/>
        <edge id="middle" sampledSeconds="1199.09" traveltime="159.29" density="48.42" occupancy="24.21" waitingTime="0.00" speed="6.22" departed="0" arrived="0" entered="0" left="9" laneChangedFrom="0" laneChangedTo="0"/>
        <edge id="rend" sampledSeconds="4.00" traveltime="18.33" density="0.32" occupancy="0.16" waitingTime="0.00" speed="27.27" departed="0" arrived="8" entered="8" left="0" laneChangedFrom="0" laneChangedTo="0"/>
    </interval>
    <interval begin="350.00" end="375.00" id="dump_25">
        <edge id="end" sampledSeconds="198.22" traveltime="22.03" density="15.90" occupancy="7.95" waitingTime="0.00" speed="22.63" departed="0" arrived="0" entered="9" left="10" laneChangedFrom="0" laneChangedTo="0"/>
        <edge id="middle" sampledSeconds="973.47" traveltime="208.92" density="39.31" occupancy="19.66" waitingTime="0.00" speed="4.74" departed="0" arrived="0" entered="0" left="8" laneChangedFrom="0" laneChangedTo="0"/>
        <edge id="rend" sampledSeconds="5.10" traveltime="18.47" density="0.41" occupancy="0.20" waitingTime="0.00" speed="27.07" departed="0" arrived="10" entered="10" left="0" laneChangedFrom="0" laneChangedTo="0"/>
    </interval>
    <interval begin="375.00" end="400.00" id="dump_25">
        <edge id="end" sampledSeconds="190.70" traveltime="22.37" density="15.30" occupancy="7.65" waitingTime="0.00" speed="22.29" departed="0" arrived="0" entered="9" left="8" laneChangedFrom="0" laneChangedTo="0"/>
        <edge id="middle" sampledSeconds="758.60" traveltime="221.99" density="30.64" occupancy="15.32" waitingTime="0.00" speed="4.46" departed="0" arrived="0" entered="0" left="9" laneChangedFrom="0" laneChangedTo="0"/>
        <edge id="rend" sampledSeconds="4.70" traveltime="18.42" density="0.38" occupancy="0.19" waitingTime="0.00" speed="27.14" departed="0" arrived="8" entered="8" left="0" laneChangedFrom="0" laneChangedTo="0"/>
    </interval>
    <interval begin="400.00" end="425.00" id="dump_25">
        <edge id="end" sampledSeconds="196.33" traveltime="22.16" density="15.75" occupancy="7.88" waitingTime="0.00" speed="22.49" departed="0" arrived="0" entered="8" left="9" laneChangedFrom="0" laneChangedTo="0"/>
        <edge id="middle" sampledSeconds="539.64" traveltime="221.78" density="21.79" occupancy="10.90" waitingTime="0.00" speed="4.47" departed="0" arrived="0" entered="0" left="9" laneChangedFrom="0" laneChangedTo="0"/>
        <edge id="rend" sampledSeconds="3.43" traveltime="18.49" density="0.27" occupancy="0.14" waitingTime="0.00" speed="27.04" departed="0" arrived="9" entered="9" left="0" laneChangedFrom="0" laneChangedTo="0"/>
    </interval>
    <interval begin="425.00" end="450.00" id="dump_25">
        <edge id="end" sampledSeconds="193.64" traveltime="22.15" density="15.54" occupancy="7.77" waitingTime="0.00" speed="22.51" departed="0" arrived="0" entered="9" left="8" laneChangedFrom="0" laneChangedTo="0"/>
        <edge id="middle" sampledSeconds="321.66" traveltime="218.68" density="12.99" occupancy="6.49" waitingTime="0.00" speed="4.53" departed="0" arrived="0" entered="0" left="8" laneChangedFrom="0" laneChangedTo="0"/>
        <edge id="rend" sampledSeconds="3.56" traveltime="18.47" density="0.28" occupancy="0.14" waitingTime="0.00" speed="27.06" departed="0" arrived="8" entered="8" left="0" laneChangedFrom="0" laneChangedTo="0"/>
    </interval>
    <interval begin="450.00" end="475.00" id="dump_25">
        <edge id="end" sampledSeconds="193.70" traveltime="22.27" density="15.54" occupancy="7.77" waitingTime="0.00" speed="22.38" departed="0" arrived="0" entered="9" left="9" laneChangedFrom="0" laneChangedTo="0"/>
        <edge id="middle" sampledSeconds="103.19" traveltime="221.85" density="4.17" occupancy="2.08" waitingTime="0.00" speed="4.46" departed="0" arrived="0" entered="0" left="9" laneChangedFrom="0" laneChangedTo="0"/>
        <edge id="rend" sampledSeconds="4.39" traveltime="18.53" density="0.35" occupancy="0.18" waitingTime="0.00" speed="26.99" departed="0" arrived="9" entered="9" left="0" laneChangedFrom="0" laneChangedTo="0"/>
    </interval>
    <interval begin="475.00" end="500.00" id="dump_25">
        <edge id="end" sampledSeconds="86.27" traveltime="19.13" density="6.92" occupancy="3.46" waitingTime="0.00" speed="26.06" departed="0" arrived="0" entered="0" left="8" laneChangedFrom="0" laneChangedTo="0"/>
        <edge id="rend" sampledSeconds="5.70" traveltime="18.66" density="0.46" occupancy="0.23" waitingTime="0.00" speed="26.79" departed="0" arrived="8" entered="8" left="0" laneChangedFrom="0" laneChangedTo="0"/>
    </interval>
    <interval begin="500.00" end="525.00" id="dump_25">
    </interval>
    <interval begin="525.00" end="550.00" id="dump_25">
    </interval>
    <interval begin="550.00" end="575.00" id="dump_25">
    </interval>
    <interval begin="575.00" end="600.00" id="dump_25">
    </interval>
    <interval begin="600.00" end="625.00" id="dump_25">
    </interval>
    <interval begin="625.00" end="650.00" id="dump_25">
    </interval>
    <interval begin="650.00" end="675.00" id="dump_25">
    </interval>
    <interval begin="675.00" end="700.00" id="dump_25">
    </interval>
    <interval begin="700.00" end="725.00" id="dump_25">
    </interval>
    <interval begin="725.00" end="750.00" id="dump_25">
    </interval>
    <interval begin="750.00" end="775.00" id="dump_25">
    </interval>
    <interval begin="775.00" end="800.00" id="dump_25">
    </interval>
    <interval begin="800.00" end="825.00" id="dump_25">
    </interval>
    <interval begin="825.00" end="850.00" id="dump_25">
    </interval>
    <interval begin="850.00" end="875.00" id="dump_25">
    </interval>
    <interval begin="875.00" end="900.00" id="dump_25">
    </interval>
    <interval begin="900.00" end="925.00" id="dump_25">
    </interval>
    <interval begin="925.00" end="950.00" id="dump_25">
    </interval>
    <interval begin="950.00" end="975.00" id="dump_25">
    </interval>
    <interval begin="975.00" end="1000.00" id="dump_25">
    </interval>
</netstats>
