<?xml version="1.0" encoding="UTF-8"?>

<!-- generated on 2021-11-09 16:20:12 by Eclipse SUMO netedit Version v1_10_0+2068-59100c6849e
-->

<routes xmlns:xsi="http://www.w3.org/2001/XMLSchema-instance" xsi:noNamespaceSchemaLocation="http://sumo.dlr.de/xsd/routes_file.xsd">
    <vType id="vType1" carFollowModel="CC" lanesCount="-3"/>
    <vType id="vType3" carFollowModel="CC" lanesCount="12"/>
    <vType id="vType4" carFollowModel="CC" lanesCount="4.5"/>
</routes>
