<?xml version="1.0" encoding="UTF-8"?>

<!-- generated on 2022-08-17 14:24:06.891908 by generateRailSignalConstraints.py v1_14_1+0366-a0e354d
<configuration>
    <abort-unordered value="True"/>
    <additional-file value="input_additional.add.xml"/>
    <comment.time value="True"/>
    <net-file value="net.net.xml"/>
    <output-file value="out.add.xml"/>
    <route-file value="input_routes.rou.xml"/>
    <verbose value="True"/>
    <write-inactive value="True"/>
</configuration>
-->

<additional xmlns:xsi="http://www.w3.org/2001/XMLSchema-instance" xsi:noNamespaceSchemaLocation="http://sumo.dlr.de/xsd/additional_file.xsd">
    <railSignalConstraints id="A">
        <insertionPredecessor tripId="t0" tl="A" foes="t1" active="false"/>   <!-- until=00:02:10 foeUntil=00:01:20  -->
    </railSignalConstraints>
</additional>
