<?xml version="1.0" encoding="UTF-8"?>

<!-- generated on 2021-12-09 13:13:21 by Eclipse SUMO sumo Version v1_11_0+0442-5301ddd
This data file and the accompanying materials
are made available under the terms of the Eclipse Public License v2.0
which accompanies this distribution, and is available at
http://www.eclipse.org/legal/epl-v20.html
SPDX-License-Identifier: EPL-2.0
<configuration xmlns:xsi="http://www.w3.org/2001/XMLSchema-instance" xsi:noNamespaceSchemaLocation="http://sumo.dlr.de/xsd/sumoConfiguration.xsd">

    <input>
        <net-file value="net.net.xml"/>
        <route-files value="input_routes.rou.xml"/>
        <additional-files value="input_additional.add.xml,input_additional2.add.xml"/>
    </input>

    <output>
        <write-license value="true"/>
    </output>

    <processing>
        <max-depart-delay value="60"/>
        <default.speeddev value="0"/>
    </processing>

    <report>
        <verbose value="true"/>
        <xml-validation value="never"/>
        <xml-validation.routes value="never"/>
        <duration-log.statistics value="true"/>
        <no-step-log value="true"/>
    </report>

</configuration>
-->

<tlsStates xmlns:xsi="http://www.w3.org/2001/XMLSchema-instance" xsi:noNamespaceSchemaLocation="http://sumo.dlr.de/xsd/tlsstates_file.xsd">
    <tlsState time="0.00" id="C0" programID="custom" phase="0" state="GGggrrrrGGggrrrr"/>
    <tlsState time="0.00" id="B0" programID="custom" phase="0" state="GGggrrrrGGggrrrr"/>
    <tlsState time="5.00" id="C0" programID="custom" phase="1" state="yyyyrrrryyyyrrrr"/>
    <tlsState time="5.00" id="B0" programID="custom" phase="1" state="yyyyrrrryyyyrrrr"/>
    <tlsState time="8.00" id="C0" programID="custom" phase="2" state="rrrrGGggrrrrGGgg"/>
    <tlsState time="8.00" id="B0" programID="custom" phase="2" state="rrrrGGggrrrrGGgg"/>
    <tlsState time="30.00" id="C0" programID="custom" phase="3" state="rrrryyyyrrrryyyy"/>
    <tlsState time="33.00" id="C0" programID="custom" phase="0" state="GGggrrrrGGggrrrr"/>
    <tlsState time="38.00" id="C0" programID="custom" phase="1" state="yyyyrrrryyyyrrrr"/>
    <tlsState time="41.00" id="C0" programID="custom" phase="2" state="rrrrGGggrrrrGGgg"/>
    <tlsState time="98.00" id="B0" programID="custom" phase="3" state="rrrryyyyrrrryyyy"/>
    <tlsState time="101.00" id="B0" programID="custom" phase="0" state="GGggrrrrGGggrrrr"/>
    <tlsState time="116.00" id="C0" programID="custom" phase="3" state="rrrryyyyrrrryyyy"/>
    <tlsState time="119.00" id="C0" programID="custom" phase="0" state="GGggrrrrGGggrrrr"/>
    <tlsState time="146.00" id="B0" programID="custom" phase="1" state="yyyyrrrryyyyrrrr"/>
    <tlsState time="149.00" id="B0" programID="custom" phase="2" state="rrrrGGggrrrrGGgg"/>
    <tlsState time="150.00" id="C0" programID="custom" phase="1" state="yyyyrrrryyyyrrrr"/>
    <tlsState time="153.00" id="C0" programID="custom" phase="2" state="rrrrGGggrrrrGGgg"/>
    <tlsState time="158.00" id="C0" programID="custom" phase="3" state="rrrryyyyrrrryyyy"/>
    <tlsState time="161.00" id="C0" programID="custom" phase="0" state="GGggrrrrGGggrrrr"/>
    <tlsState time="166.00" id="C0" programID="custom" phase="1" state="yyyyrrrryyyyrrrr"/>
    <tlsState time="169.00" id="C0" programID="custom" phase="2" state="rrrrGGggrrrrGGgg"/>
    <tlsState time="211.00" id="B0" programID="custom" phase="3" state="rrrryyyyrrrryyyy"/>
    <tlsState time="214.00" id="B0" programID="custom" phase="0" state="GGggrrrrGGggrrrr"/>
    <tlsState time="227.00" id="C0" programID="custom" phase="3" state="rrrryyyyrrrryyyy"/>
    <tlsState time="230.00" id="C0" programID="custom" phase="0" state="GGggrrrrGGggrrrr"/>
    <tlsState time="249.00" id="B0" programID="custom" phase="1" state="yyyyrrrryyyyrrrr"/>
    <tlsState time="252.00" id="B0" programID="custom" phase="2" state="rrrrGGggrrrrGGgg"/>
    <tlsState time="254.00" id="C0" programID="custom" phase="1" state="yyyyrrrryyyyrrrr"/>
    <tlsState time="257.00" id="C0" programID="custom" phase="2" state="rrrrGGggrrrrGGgg"/>
    <tlsState time="262.00" id="C0" programID="custom" phase="3" state="rrrryyyyrrrryyyy"/>
    <tlsState time="265.00" id="C0" programID="custom" phase="0" state="GGggrrrrGGggrrrr"/>
    <tlsState time="270.00" id="C0" programID="custom" phase="1" state="yyyyrrrryyyyrrrr"/>
    <tlsState time="273.00" id="C0" programID="custom" phase="2" state="rrrrGGggrrrrGGgg"/>
    <tlsState time="336.00" id="B0" programID="custom" phase="3" state="rrrryyyyrrrryyyy"/>
    <tlsState time="339.00" id="B0" programID="custom" phase="0" state="GGggrrrrGGggrrrr"/>
    <tlsState time="351.00" id="C0" programID="custom" phase="3" state="rrrryyyyrrrryyyy"/>
    <tlsState time="354.00" id="C0" programID="custom" phase="0" state="GGggrrrrGGggrrrr"/>
    <tlsState time="383.00" id="C0" programID="custom" phase="1" state="yyyyrrrryyyyrrrr"/>
    <tlsState time="386.00" id="C0" programID="custom" phase="2" state="rrrrGGggrrrrGGgg"/>
    <tlsState time="386.00" id="B0" programID="custom" phase="1" state="yyyyrrrryyyyrrrr"/>
    <tlsState time="389.00" id="B0" programID="custom" phase="2" state="rrrrGGggrrrrGGgg"/>
    <tlsState time="391.00" id="C0" programID="custom" phase="3" state="rrrryyyyrrrryyyy"/>
    <tlsState time="394.00" id="C0" programID="custom" phase="0" state="GGggrrrrGGggrrrr"/>
    <tlsState time="399.00" id="C0" programID="custom" phase="1" state="yyyyrrrryyyyrrrr"/>
    <tlsState time="402.00" id="C0" programID="custom" phase="2" state="rrrrGGggrrrrGGgg"/>
    <tlsState time="473.00" id="C0" programID="custom" phase="3" state="rrrryyyyrrrryyyy"/>
    <tlsState time="476.00" id="C0" programID="custom" phase="0" state="GGggrrrrGGggrrrr"/>
    <tlsState time="479.00" id="B0" programID="custom" phase="3" state="rrrryyyyrrrryyyy"/>
    <tlsState time="482.00" id="B0" programID="custom" phase="0" state="GGggrrrrGGggrrrr"/>
    <tlsState time="503.00" id="C0" programID="custom" phase="1" state="yyyyrrrryyyyrrrr"/>
    <tlsState time="506.00" id="C0" programID="custom" phase="2" state="rrrrGGggrrrrGGgg"/>
    <tlsState time="522.00" id="C0" programID="custom" phase="3" state="rrrryyyyrrrryyyy"/>
    <tlsState time="525.00" id="C0" programID="custom" phase="0" state="GGggrrrrGGggrrrr"/>
    <tlsState time="530.00" id="B0" programID="custom" phase="1" state="yyyyrrrryyyyrrrr"/>
    <tlsState time="533.00" id="B0" programID="custom" phase="2" state="rrrrGGggrrrrGGgg"/>
    <tlsState time="534.00" id="C0" programID="custom" phase="1" state="yyyyrrrryyyyrrrr"/>
    <tlsState time="537.00" id="C0" programID="custom" phase="2" state="rrrrGGggrrrrGGgg"/>
    <tlsState time="542.00" id="C0" programID="custom" phase="3" state="rrrryyyyrrrryyyy"/>
    <tlsState time="545.00" id="C0" programID="custom" phase="0" state="GGggrrrrGGggrrrr"/>
    <tlsState time="550.00" id="C0" programID="custom" phase="1" state="yyyyrrrryyyyrrrr"/>
    <tlsState time="553.00" id="C0" programID="custom" phase="2" state="rrrrGGggrrrrGGgg"/>
    <tlsState time="606.00" id="B0" programID="custom" phase="3" state="rrrryyyyrrrryyyy"/>
    <tlsState time="609.00" id="B0" programID="custom" phase="0" state="GGggrrrrGGggrrrr"/>
    <tlsState time="621.00" id="C0" programID="custom" phase="3" state="rrrryyyyrrrryyyy"/>
    <tlsState time="624.00" id="C0" programID="custom" phase="0" state="GGggrrrrGGggrrrr"/>
    <tlsState time="650.00" id="B0" programID="custom" phase="1" state="yyyyrrrryyyyrrrr"/>
    <tlsState time="652.00" id="C0" programID="custom" phase="1" state="yyyyrrrryyyyrrrr"/>
    <tlsState time="653.00" id="B0" programID="custom" phase="2" state="rrrrGGggrrrrGGgg"/>
    <tlsState time="655.00" id="C0" programID="custom" phase="2" state="rrrrGGggrrrrGGgg"/>
    <tlsState time="660.00" id="C0" programID="custom" phase="3" state="rrrryyyyrrrryyyy"/>
    <tlsState time="663.00" id="C0" programID="custom" phase="0" state="GGggrrrrGGggrrrr"/>
    <tlsState time="668.00" id="C0" programID="custom" phase="1" state="yyyyrrrryyyyrrrr"/>
    <tlsState time="671.00" id="C0" programID="custom" phase="2" state="rrrrGGggrrrrGGgg"/>
    <tlsState time="739.00" id="B0" programID="custom" phase="3" state="rrrryyyyrrrryyyy"/>
    <tlsState time="742.00" id="B0" programID="custom" phase="0" state="GGggrrrrGGggrrrr"/>
    <tlsState time="755.00" id="C0" programID="custom" phase="3" state="rrrryyyyrrrryyyy"/>
    <tlsState time="758.00" id="C0" programID="custom" phase="0" state="GGggrrrrGGggrrrr"/>
    <tlsState time="788.00" id="B0" programID="custom" phase="1" state="yyyyrrrryyyyrrrr"/>
    <tlsState time="790.00" id="C0" programID="custom" phase="1" state="yyyyrrrryyyyrrrr"/>
    <tlsState time="791.00" id="B0" programID="custom" phase="2" state="rrrrGGggrrrrGGgg"/>
    <tlsState time="793.00" id="C0" programID="custom" phase="2" state="rrrrGGggrrrrGGgg"/>
    <tlsState time="798.00" id="C0" programID="custom" phase="3" state="rrrryyyyrrrryyyy"/>
    <tlsState time="801.00" id="C0" programID="custom" phase="0" state="GGggrrrrGGggrrrr"/>
    <tlsState time="806.00" id="C0" programID="custom" phase="1" state="yyyyrrrryyyyrrrr"/>
    <tlsState time="809.00" id="C0" programID="custom" phase="2" state="rrrrGGggrrrrGGgg"/>
    <tlsState time="878.00" id="B0" programID="custom" phase="3" state="rrrryyyyrrrryyyy"/>
    <tlsState time="881.00" id="B0" programID="custom" phase="0" state="GGggrrrrGGggrrrr"/>
    <tlsState time="893.00" id="C0" programID="custom" phase="3" state="rrrryyyyrrrryyyy"/>
    <tlsState time="896.00" id="C0" programID="custom" phase="0" state="GGggrrrrGGggrrrr"/>
    <tlsState time="926.00" id="B0" programID="custom" phase="1" state="yyyyrrrryyyyrrrr"/>
    <tlsState time="927.00" id="C0" programID="custom" phase="1" state="yyyyrrrryyyyrrrr"/>
    <tlsState time="929.00" id="B0" programID="custom" phase="2" state="rrrrGGggrrrrGGgg"/>
    <tlsState time="930.00" id="C0" programID="custom" phase="2" state="rrrrGGggrrrrGGgg"/>
    <tlsState time="935.00" id="C0" programID="custom" phase="3" state="rrrryyyyrrrryyyy"/>
    <tlsState time="938.00" id="C0" programID="custom" phase="0" state="GGggrrrrGGggrrrr"/>
    <tlsState time="943.00" id="C0" programID="custom" phase="1" state="yyyyrrrryyyyrrrr"/>
    <tlsState time="946.00" id="C0" programID="custom" phase="2" state="rrrrGGggrrrrGGgg"/>
    <tlsState time="1019.00" id="B0" programID="custom" phase="3" state="rrrryyyyrrrryyyy"/>
    <tlsState time="1022.00" id="B0" programID="custom" phase="0" state="GGggrrrrGGggrrrr"/>
    <tlsState time="1034.00" id="C0" programID="custom" phase="3" state="rrrryyyyrrrryyyy"/>
    <tlsState time="1037.00" id="C0" programID="custom" phase="0" state="GGggrrrrGGggrrrr"/>
    <tlsState time="1069.00" id="B0" programID="custom" phase="1" state="yyyyrrrryyyyrrrr"/>
    <tlsState time="1070.00" id="C0" programID="custom" phase="1" state="yyyyrrrryyyyrrrr"/>
    <tlsState time="1072.00" id="B0" programID="custom" phase="2" state="rrrrGGggrrrrGGgg"/>
    <tlsState time="1073.00" id="C0" programID="custom" phase="2" state="rrrrGGggrrrrGGgg"/>
    <tlsState time="1078.00" id="C0" programID="custom" phase="3" state="rrrryyyyrrrryyyy"/>
    <tlsState time="1081.00" id="C0" programID="custom" phase="0" state="GGggrrrrGGggrrrr"/>
    <tlsState time="1086.00" id="C0" programID="custom" phase="1" state="yyyyrrrryyyyrrrr"/>
    <tlsState time="1089.00" id="C0" programID="custom" phase="2" state="rrrrGGggrrrrGGgg"/>
    <tlsState time="1162.00" id="B0" programID="custom" phase="3" state="rrrryyyyrrrryyyy"/>
    <tlsState time="1165.00" id="B0" programID="custom" phase="0" state="GGggrrrrGGggrrrr"/>
    <tlsState time="1177.00" id="C0" programID="custom" phase="3" state="rrrryyyyrrrryyyy"/>
    <tlsState time="1180.00" id="C0" programID="custom" phase="0" state="GGggrrrrGGggrrrr"/>
    <tlsState time="1213.00" id="C0" programID="custom" phase="1" state="yyyyrrrryyyyrrrr"/>
    <tlsState time="1213.00" id="B0" programID="custom" phase="1" state="yyyyrrrryyyyrrrr"/>
    <tlsState time="1216.00" id="C0" programID="custom" phase="2" state="rrrrGGggrrrrGGgg"/>
    <tlsState time="1216.00" id="B0" programID="custom" phase="2" state="rrrrGGggrrrrGGgg"/>
    <tlsState time="1221.00" id="C0" programID="custom" phase="3" state="rrrryyyyrrrryyyy"/>
    <tlsState time="1224.00" id="C0" programID="custom" phase="0" state="GGggrrrrGGggrrrr"/>
    <tlsState time="1229.00" id="C0" programID="custom" phase="1" state="yyyyrrrryyyyrrrr"/>
    <tlsState time="1232.00" id="C0" programID="custom" phase="2" state="rrrrGGggrrrrGGgg"/>
    <tlsState time="1306.00" id="B0" programID="custom" phase="3" state="rrrryyyyrrrryyyy"/>
    <tlsState time="1309.00" id="B0" programID="custom" phase="0" state="GGggrrrrGGggrrrr"/>
    <tlsState time="1322.00" id="C0" programID="custom" phase="3" state="rrrryyyyrrrryyyy"/>
    <tlsState time="1325.00" id="C0" programID="custom" phase="0" state="GGggrrrrGGggrrrr"/>
    <tlsState time="1357.00" id="B0" programID="custom" phase="1" state="yyyyrrrryyyyrrrr"/>
    <tlsState time="1358.00" id="C0" programID="custom" phase="1" state="yyyyrrrryyyyrrrr"/>
    <tlsState time="1360.00" id="B0" programID="custom" phase="2" state="rrrrGGggrrrrGGgg"/>
    <tlsState time="1361.00" id="C0" programID="custom" phase="2" state="rrrrGGggrrrrGGgg"/>
    <tlsState time="1421.00" id="B0" programID="custom" phase="3" state="rrrryyyyrrrryyyy"/>
    <tlsState time="1424.00" id="B0" programID="custom" phase="0" state="GGggrrrrGGggrrrr"/>
    <tlsState time="1436.00" id="C0" programID="custom" phase="3" state="rrrryyyyrrrryyyy"/>
    <tlsState time="1439.00" id="C0" programID="custom" phase="0" state="GGggrrrrGGggrrrr"/>
    <tlsState time="1460.00" id="B0" programID="custom" phase="1" state="yyyyrrrryyyyrrrr"/>
    <tlsState time="1463.00" id="B0" programID="custom" phase="2" state="rrrrGGggrrrrGGgg"/>
    <tlsState time="1469.00" id="C0" programID="custom" phase="1" state="yyyyrrrryyyyrrrr"/>
    <tlsState time="1472.00" id="C0" programID="custom" phase="2" state="rrrrGGggrrrrGGgg"/>
    <tlsState time="1477.00" id="C0" programID="custom" phase="3" state="rrrryyyyrrrryyyy"/>
    <tlsState time="1480.00" id="C0" programID="custom" phase="0" state="GGggrrrrGGggrrrr"/>
    <tlsState time="1485.00" id="C0" programID="custom" phase="1" state="yyyyrrrryyyyrrrr"/>
    <tlsState time="1488.00" id="C0" programID="custom" phase="2" state="rrrrGGggrrrrGGgg"/>
    <tlsState time="1549.00" id="B0" programID="custom" phase="3" state="rrrryyyyrrrryyyy"/>
    <tlsState time="1552.00" id="B0" programID="custom" phase="0" state="GGggrrrrGGggrrrr"/>
    <tlsState time="1564.00" id="C0" programID="custom" phase="3" state="rrrryyyyrrrryyyy"/>
    <tlsState time="1567.00" id="C0" programID="custom" phase="0" state="GGggrrrrGGggrrrr"/>
    <tlsState time="1597.00" id="C0" programID="custom" phase="1" state="yyyyrrrryyyyrrrr"/>
    <tlsState time="1598.00" id="B0" programID="custom" phase="1" state="yyyyrrrryyyyrrrr"/>
    <tlsState time="1600.00" id="C0" programID="custom" phase="2" state="rrrrGGggrrrrGGgg"/>
    <tlsState time="1601.00" id="B0" programID="custom" phase="2" state="rrrrGGggrrrrGGgg"/>
    <tlsState time="1605.00" id="C0" programID="custom" phase="3" state="rrrryyyyrrrryyyy"/>
    <tlsState time="1608.00" id="C0" programID="custom" phase="0" state="GGggrrrrGGggrrrr"/>
    <tlsState time="1613.00" id="C0" programID="custom" phase="1" state="yyyyrrrryyyyrrrr"/>
    <tlsState time="1616.00" id="C0" programID="custom" phase="2" state="rrrrGGggrrrrGGgg"/>
    <tlsState time="1664.00" id="B0" programID="custom" phase="3" state="rrrryyyyrrrryyyy"/>
    <tlsState time="1667.00" id="B0" programID="custom" phase="0" state="GGggrrrrGGggrrrr"/>
    <tlsState time="1679.00" id="C0" programID="custom" phase="3" state="rrrryyyyrrrryyyy"/>
    <tlsState time="1682.00" id="C0" programID="custom" phase="0" state="GGggrrrrGGggrrrr"/>
    <tlsState time="1701.00" id="B0" programID="custom" phase="1" state="yyyyrrrryyyyrrrr"/>
    <tlsState time="1704.00" id="B0" programID="custom" phase="2" state="rrrrGGggrrrrGGgg"/>
    <tlsState time="1707.00" id="C0" programID="custom" phase="1" state="yyyyrrrryyyyrrrr"/>
    <tlsState time="1710.00" id="C0" programID="custom" phase="2" state="rrrrGGggrrrrGGgg"/>
    <tlsState time="1767.00" id="B0" programID="custom" phase="3" state="rrrryyyyrrrryyyy"/>
    <tlsState time="1770.00" id="B0" programID="custom" phase="0" state="GGggrrrrGGggrrrr"/>
    <tlsState time="1782.00" id="C0" programID="custom" phase="3" state="rrrryyyyrrrryyyy"/>
    <tlsState time="1785.00" id="C0" programID="custom" phase="0" state="GGggrrrrGGggrrrr"/>
    <tlsState time="1807.00" id="B0" programID="custom" phase="1" state="yyyyrrrryyyyrrrr"/>
    <tlsState time="1810.00" id="B0" programID="custom" phase="2" state="rrrrGGggrrrrGGgg"/>
    <tlsState time="1812.00" id="C0" programID="custom" phase="1" state="yyyyrrrryyyyrrrr"/>
    <tlsState time="1815.00" id="C0" programID="custom" phase="2" state="rrrrGGggrrrrGGgg"/>
    <tlsState time="1863.00" id="B0" programID="custom" phase="3" state="rrrryyyyrrrryyyy"/>
    <tlsState time="1866.00" id="B0" programID="custom" phase="0" state="GGggrrrrGGggrrrr"/>
    <tlsState time="1879.00" id="C0" programID="custom" phase="3" state="rrrryyyyrrrryyyy"/>
    <tlsState time="1882.00" id="C0" programID="custom" phase="0" state="GGggrrrrGGggrrrr"/>
    <tlsState time="1898.00" id="B0" programID="custom" phase="1" state="yyyyrrrryyyyrrrr"/>
    <tlsState time="1901.00" id="B0" programID="custom" phase="2" state="rrrrGGggrrrrGGgg"/>
    <tlsState time="1908.00" id="C0" programID="custom" phase="1" state="yyyyrrrryyyyrrrr"/>
    <tlsState time="1911.00" id="C0" programID="custom" phase="2" state="rrrrGGggrrrrGGgg"/>
    <tlsState time="1951.00" id="B0" programID="custom" phase="3" state="rrrryyyyrrrryyyy"/>
    <tlsState time="1954.00" id="B0" programID="custom" phase="0" state="GGggrrrrGGggrrrr"/>
    <tlsState time="1966.00" id="C0" programID="custom" phase="3" state="rrrryyyyrrrryyyy"/>
    <tlsState time="1969.00" id="C0" programID="custom" phase="0" state="GGggrrrrGGggrrrr"/>
    <tlsState time="1983.00" id="B0" programID="custom" phase="1" state="yyyyrrrryyyyrrrr"/>
    <tlsState time="1986.00" id="B0" programID="custom" phase="2" state="rrrrGGggrrrrGGgg"/>
    <tlsState time="1991.00" id="C0" programID="custom" phase="1" state="yyyyrrrryyyyrrrr"/>
    <tlsState time="1994.00" id="C0" programID="custom" phase="2" state="rrrrGGggrrrrGGgg"/>
    <tlsState time="2049.00" id="B0" programID="custom" phase="3" state="rrrryyyyrrrryyyy"/>
    <tlsState time="2052.00" id="B0" programID="custom" phase="0" state="GGggrrrrGGggrrrr"/>
    <tlsState time="2065.00" id="C0" programID="custom" phase="3" state="rrrryyyyrrrryyyy"/>
    <tlsState time="2068.00" id="C0" programID="custom" phase="0" state="GGggrrrrGGggrrrr"/>
    <tlsState time="2090.00" id="B0" programID="custom" phase="1" state="yyyyrrrryyyyrrrr"/>
    <tlsState time="2093.00" id="B0" programID="custom" phase="2" state="rrrrGGggrrrrGGgg"/>
    <tlsState time="2099.00" id="C0" programID="custom" phase="1" state="yyyyrrrryyyyrrrr"/>
    <tlsState time="2102.00" id="C0" programID="custom" phase="2" state="rrrrGGggrrrrGGgg"/>
    <tlsState time="2107.00" id="C0" programID="custom" phase="3" state="rrrryyyyrrrryyyy"/>
    <tlsState time="2110.00" id="C0" programID="custom" phase="0" state="GGggrrrrGGggrrrr"/>
    <tlsState time="2116.00" id="C0" programID="custom" phase="1" state="yyyyrrrryyyyrrrr"/>
    <tlsState time="2119.00" id="C0" programID="custom" phase="2" state="rrrrGGggrrrrGGgg"/>
    <tlsState time="2183.00" id="B0" programID="custom" phase="3" state="rrrryyyyrrrryyyy"/>
    <tlsState time="2186.00" id="B0" programID="custom" phase="0" state="GGggrrrrGGggrrrr"/>
    <tlsState time="2201.00" id="C0" programID="custom" phase="3" state="rrrryyyyrrrryyyy"/>
    <tlsState time="2204.00" id="C0" programID="custom" phase="0" state="GGggrrrrGGggrrrr"/>
    <tlsState time="2234.00" id="B0" programID="custom" phase="1" state="yyyyrrrryyyyrrrr"/>
    <tlsState time="2236.00" id="C0" programID="custom" phase="1" state="yyyyrrrryyyyrrrr"/>
    <tlsState time="2237.00" id="B0" programID="custom" phase="2" state="rrrrGGggrrrrGGgg"/>
    <tlsState time="2239.00" id="C0" programID="custom" phase="2" state="rrrrGGggrrrrGGgg"/>
    <tlsState time="2244.00" id="C0" programID="custom" phase="3" state="rrrryyyyrrrryyyy"/>
    <tlsState time="2247.00" id="C0" programID="custom" phase="0" state="GGggrrrrGGggrrrr"/>
    <tlsState time="2252.00" id="C0" programID="custom" phase="1" state="yyyyrrrryyyyrrrr"/>
    <tlsState time="2255.00" id="C0" programID="custom" phase="2" state="rrrrGGggrrrrGGgg"/>
    <tlsState time="2314.00" id="C0" programID="custom" phase="3" state="rrrryyyyrrrryyyy"/>
    <tlsState time="2317.00" id="C0" programID="custom" phase="0" state="GGggrrrrGGggrrrr"/>
    <tlsState time="2327.00" id="B0" programID="custom" phase="3" state="rrrryyyyrrrryyyy"/>
    <tlsState time="2330.00" id="B0" programID="custom" phase="0" state="GGggrrrrGGggrrrr"/>
    <tlsState time="2341.00" id="C0" programID="custom" phase="1" state="yyyyrrrryyyyrrrr"/>
    <tlsState time="2344.00" id="C0" programID="custom" phase="2" state="rrrrGGggrrrrGGgg"/>
    <tlsState time="2370.00" id="C0" programID="custom" phase="3" state="rrrryyyyrrrryyyy"/>
    <tlsState time="2373.00" id="C0" programID="custom" phase="0" state="GGggrrrrGGggrrrr"/>
    <tlsState time="2378.00" id="B0" programID="custom" phase="1" state="yyyyrrrryyyyrrrr"/>
    <tlsState time="2381.00" id="B0" programID="custom" phase="2" state="rrrrGGggrrrrGGgg"/>
    <tlsState time="2388.00" id="C0" programID="custom" phase="1" state="yyyyrrrryyyyrrrr"/>
    <tlsState time="2391.00" id="C0" programID="custom" phase="2" state="rrrrGGggrrrrGGgg"/>
    <tlsState time="2396.00" id="C0" programID="custom" phase="3" state="rrrryyyyrrrryyyy"/>
    <tlsState time="2399.00" id="C0" programID="custom" phase="0" state="GGggrrrrGGggrrrr"/>
    <tlsState time="2404.00" id="C0" programID="custom" phase="1" state="yyyyrrrryyyyrrrr"/>
    <tlsState time="2407.00" id="C0" programID="custom" phase="2" state="rrrrGGggrrrrGGgg"/>
    <tlsState time="2461.00" id="B0" programID="custom" phase="3" state="rrrryyyyrrrryyyy"/>
    <tlsState time="2464.00" id="B0" programID="custom" phase="0" state="GGggrrrrGGggrrrr"/>
    <tlsState time="2476.00" id="C0" programID="custom" phase="3" state="rrrryyyyrrrryyyy"/>
    <tlsState time="2479.00" id="C0" programID="custom" phase="0" state="GGggrrrrGGggrrrr"/>
    <tlsState time="2505.00" id="B0" programID="custom" phase="1" state="yyyyrrrryyyyrrrr"/>
    <tlsState time="2507.00" id="C0" programID="custom" phase="1" state="yyyyrrrryyyyrrrr"/>
    <tlsState time="2508.00" id="B0" programID="custom" phase="2" state="rrrrGGggrrrrGGgg"/>
    <tlsState time="2510.00" id="C0" programID="custom" phase="2" state="rrrrGGggrrrrGGgg"/>
    <tlsState time="2515.00" id="C0" programID="custom" phase="3" state="rrrryyyyrrrryyyy"/>
    <tlsState time="2518.00" id="C0" programID="custom" phase="0" state="GGggrrrrGGggrrrr"/>
    <tlsState time="2524.00" id="C0" programID="custom" phase="1" state="yyyyrrrryyyyrrrr"/>
    <tlsState time="2527.00" id="C0" programID="custom" phase="2" state="rrrrGGggrrrrGGgg"/>
    <tlsState time="2590.00" id="C0" programID="custom" phase="3" state="rrrryyyyrrrryyyy"/>
    <tlsState time="2593.00" id="C0" programID="custom" phase="0" state="GGggrrrrGGggrrrr"/>
    <tlsState time="2598.00" id="B0" programID="custom" phase="3" state="rrrryyyyrrrryyyy"/>
    <tlsState time="2601.00" id="B0" programID="custom" phase="0" state="GGggrrrrGGggrrrr"/>
    <tlsState time="2620.00" id="C0" programID="custom" phase="1" state="yyyyrrrryyyyrrrr"/>
    <tlsState time="2623.00" id="C0" programID="custom" phase="2" state="rrrrGGggrrrrGGgg"/>
    <tlsState time="2641.00" id="C0" programID="custom" phase="3" state="rrrryyyyrrrryyyy"/>
    <tlsState time="2644.00" id="C0" programID="custom" phase="0" state="GGggrrrrGGggrrrr"/>
    <tlsState time="2648.00" id="B0" programID="custom" phase="1" state="yyyyrrrryyyyrrrr"/>
    <tlsState time="2651.00" id="B0" programID="custom" phase="2" state="rrrrGGggrrrrGGgg"/>
    <tlsState time="2653.00" id="C0" programID="custom" phase="1" state="yyyyrrrryyyyrrrr"/>
    <tlsState time="2656.00" id="C0" programID="custom" phase="2" state="rrrrGGggrrrrGGgg"/>
    <tlsState time="2661.00" id="C0" programID="custom" phase="3" state="rrrryyyyrrrryyyy"/>
    <tlsState time="2664.00" id="C0" programID="custom" phase="0" state="GGggrrrrGGggrrrr"/>
    <tlsState time="2669.00" id="C0" programID="custom" phase="1" state="yyyyrrrryyyyrrrr"/>
    <tlsState time="2672.00" id="C0" programID="custom" phase="2" state="rrrrGGggrrrrGGgg"/>
    <tlsState time="2719.00" id="B0" programID="custom" phase="3" state="rrrryyyyrrrryyyy"/>
    <tlsState time="2722.00" id="B0" programID="custom" phase="0" state="GGggrrrrGGggrrrr"/>
    <tlsState time="2734.00" id="C0" programID="custom" phase="3" state="rrrryyyyrrrryyyy"/>
    <tlsState time="2737.00" id="C0" programID="custom" phase="0" state="GGggrrrrGGggrrrr"/>
    <tlsState time="2761.00" id="B0" programID="custom" phase="1" state="yyyyrrrryyyyrrrr"/>
    <tlsState time="2763.00" id="C0" programID="custom" phase="1" state="yyyyrrrryyyyrrrr"/>
    <tlsState time="2764.00" id="B0" programID="custom" phase="2" state="rrrrGGggrrrrGGgg"/>
    <tlsState time="2766.00" id="C0" programID="custom" phase="2" state="rrrrGGggrrrrGGgg"/>
    <tlsState time="2771.00" id="C0" programID="custom" phase="3" state="rrrryyyyrrrryyyy"/>
    <tlsState time="2774.00" id="C0" programID="custom" phase="0" state="GGggrrrrGGggrrrr"/>
    <tlsState time="2779.00" id="C0" programID="custom" phase="1" state="yyyyrrrryyyyrrrr"/>
    <tlsState time="2782.00" id="C0" programID="custom" phase="2" state="rrrrGGggrrrrGGgg"/>
    <tlsState time="2853.00" id="B0" programID="custom" phase="3" state="rrrryyyyrrrryyyy"/>
    <tlsState time="2856.00" id="B0" programID="custom" phase="0" state="GGggrrrrGGggrrrr"/>
    <tlsState time="2869.00" id="C0" programID="custom" phase="3" state="rrrryyyyrrrryyyy"/>
    <tlsState time="2872.00" id="C0" programID="custom" phase="0" state="GGggrrrrGGggrrrr"/>
    <tlsState time="2906.00" id="B0" programID="custom" phase="1" state="yyyyrrrryyyyrrrr"/>
    <tlsState time="2907.00" id="C0" programID="custom" phase="1" state="yyyyrrrryyyyrrrr"/>
    <tlsState time="2909.00" id="B0" programID="custom" phase="2" state="rrrrGGggrrrrGGgg"/>
    <tlsState time="2910.00" id="C0" programID="custom" phase="2" state="rrrrGGggrrrrGGgg"/>
    <tlsState time="2915.00" id="C0" programID="custom" phase="3" state="rrrryyyyrrrryyyy"/>
    <tlsState time="2918.00" id="C0" programID="custom" phase="0" state="GGggrrrrGGggrrrr"/>
    <tlsState time="2924.00" id="C0" programID="custom" phase="1" state="yyyyrrrryyyyrrrr"/>
    <tlsState time="2927.00" id="C0" programID="custom" phase="2" state="rrrrGGggrrrrGGgg"/>
    <tlsState time="2972.00" id="B0" programID="custom" phase="3" state="rrrryyyyrrrryyyy"/>
    <tlsState time="2975.00" id="B0" programID="custom" phase="0" state="GGggrrrrGGggrrrr"/>
    <tlsState time="2988.00" id="C0" programID="custom" phase="3" state="rrrryyyyrrrryyyy"/>
    <tlsState time="2991.00" id="C0" programID="custom" phase="0" state="GGggrrrrGGggrrrr"/>
    <tlsState time="3009.00" id="B0" programID="custom" phase="1" state="yyyyrrrryyyyrrrr"/>
    <tlsState time="3012.00" id="B0" programID="custom" phase="2" state="rrrrGGggrrrrGGgg"/>
    <tlsState time="3014.00" id="C0" programID="custom" phase="1" state="yyyyrrrryyyyrrrr"/>
    <tlsState time="3017.00" id="C0" programID="custom" phase="2" state="rrrrGGggrrrrGGgg"/>
    <tlsState time="3022.00" id="C0" programID="custom" phase="3" state="rrrryyyyrrrryyyy"/>
    <tlsState time="3025.00" id="C0" programID="custom" phase="0" state="GGggrrrrGGggrrrr"/>
    <tlsState time="3030.00" id="C0" programID="custom" phase="1" state="yyyyrrrryyyyrrrr"/>
    <tlsState time="3033.00" id="C0" programID="custom" phase="2" state="rrrrGGggrrrrGGgg"/>
    <tlsState time="3072.00" id="B0" programID="custom" phase="3" state="rrrryyyyrrrryyyy"/>
    <tlsState time="3075.00" id="B0" programID="custom" phase="0" state="GGggrrrrGGggrrrr"/>
    <tlsState time="3088.00" id="C0" programID="custom" phase="3" state="rrrryyyyrrrryyyy"/>
    <tlsState time="3091.00" id="C0" programID="custom" phase="0" state="GGggrrrrGGggrrrr"/>
    <tlsState time="3110.00" id="B0" programID="custom" phase="1" state="yyyyrrrryyyyrrrr"/>
    <tlsState time="3113.00" id="B0" programID="custom" phase="2" state="rrrrGGggrrrrGGgg"/>
    <tlsState time="3115.00" id="C0" programID="custom" phase="1" state="yyyyrrrryyyyrrrr"/>
    <tlsState time="3118.00" id="C0" programID="custom" phase="2" state="rrrrGGggrrrrGGgg"/>
    <tlsState time="3123.00" id="C0" programID="custom" phase="3" state="rrrryyyyrrrryyyy"/>
    <tlsState time="3126.00" id="C0" programID="custom" phase="0" state="GGggrrrrGGggrrrr"/>
    <tlsState time="3132.00" id="C0" programID="custom" phase="1" state="yyyyrrrryyyyrrrr"/>
    <tlsState time="3135.00" id="C0" programID="custom" phase="2" state="rrrrGGggrrrrGGgg"/>
    <tlsState time="3191.00" id="B0" programID="custom" phase="3" state="rrrryyyyrrrryyyy"/>
    <tlsState time="3194.00" id="B0" programID="custom" phase="0" state="GGggrrrrGGggrrrr"/>
    <tlsState time="3207.00" id="C0" programID="custom" phase="3" state="rrrryyyyrrrryyyy"/>
    <tlsState time="3210.00" id="C0" programID="custom" phase="0" state="GGggrrrrGGggrrrr"/>
    <tlsState time="3236.00" id="B0" programID="custom" phase="1" state="yyyyrrrryyyyrrrr"/>
    <tlsState time="3238.00" id="C0" programID="custom" phase="1" state="yyyyrrrryyyyrrrr"/>
    <tlsState time="3239.00" id="B0" programID="custom" phase="2" state="rrrrGGggrrrrGGgg"/>