<?xml version="1.0" encoding="UTF-8"?>

<!-- generated on Thu Feb 13 16:55:09 2014 by SUMO netconvert Version dev-SVN-r15563
<?xml version="1.0" encoding="UTF-8"?>

<configuration xmlns:xsi="http://www.w3.org/2001/XMLSchema-instance" xsi:noNamespaceSchemaLocation="http://sumo-sim.org/xsd/netconvertConfiguration.xsd">

    <input>
        <node-files value="input_plain.nod.xml"/>
        <edge-files value="input_plain.edg.xml"/>
    </input>

    <output>
        <plain-output-prefix value="plain"/>
    </output>

    <processing>
        <no-turnarounds value="true"/>
        <crossings.guess value="true"/>
    </processing>

    <report>
        <xml-validation value="never"/>
    </report>

</configuration>
-->

<nodes version="0.13" xmlns:xsi="http://www.w3.org/2001/XMLSchema-instance" xsi:noNamespaceSchemaLocation="http://sumo-sim.org/xsd/nodes_file.xsd">
    <location netOffset="100.00,100.00" convBoundary="0.00,0.00,200.00,200.00" origBoundary="-10000000000.00,-10000000000.00,10000000000.00,10000000000.00" projParameter="!"/>

    <node id="C" x="100.00" y="100.00" type="traffic_light" tl="C"/>
    <node id="E" x="200.00" y="100.00" type="dead_end"/>
    <node id="N" x="150.00" y="200.00" type="dead_end"/>
    <node id="S" x="50.00" y="0.00" type="dead_end"/>
    <node id="W" x="0.00" y="100.00" type="dead_end"/>
</nodes>
