<?xml version="1.0" encoding="UTF-8"?>

<!-- generated on 05/02/13 14:03:40 by SUMO duarouter Version 0.17.0
<?xml version="1.0" encoding="UTF-8"?>

<configuration xmlns:xsi="http://www.w3.org/2001/XMLSchema-instance" xsi:noNamespaceSchemaLocation="http://sumo-sim.org/xsd/duarouterConfiguration.xsd">

    <input>
        <net-file value="input_net.net.xml"/>
        <weight-files value="input_weights.dump.xml"/>
        <trip-files value="input_trips.trips.xml"/>
    </input>

    <output>
        <output-file value="routes.rou.xml"/>
        <exit-times value="true"/>
    </output>

    <time>
        <begin value="0"/>
        <end value="86400"/>
    </time>

    <report>
        <no-step-log value="true"/>
    </report>

</configuration>
-->

<routes xmlns:xsi="http://www.w3.org/2001/XMLSchema-instance" xsi:noNamespaceSchemaLocation="http://sumo-sim.org/xsd/routes_file.xsd">
    <vehicle id="0" type="0" depart="888.00">
        <route edges="beg middle end rend" exitTimes="898.00 973.00 990.93 1008.92"/>
    </vehicle>
    <vehicle id="1" type="0" depart="892.00">
        <route edges="beg beg2left left left2end end rend" exitTimes="902.00 912.00 952.00 972.00 989.93 1007.92"/>
    </vehicle>
</routes>
