<?xml version="1.0" encoding="UTF-8"?>

<!-- generated on 04/01/14 15:40:41 by SUMO duarouter Version dev-SVN-r16088
<?xml version="1.0" encoding="UTF-8"?>

<configuration xmlns:xsi="http://www.w3.org/2001/XMLSchema-instance" xsi:noNamespaceSchemaLocation="http://sumo-sim.org/xsd/duarouterConfiguration.xsd">

    <input>
        <net-file value="input_net.net.xml"/>
        <weight-files value="input_weights.dump.xml"/>
        <trip-files value="input_trips.trips.xml"/>
    </input>

    <output>
        <output-file value="routes.rou.xml"/>
        <exit-times value="true"/>
    </output>

    <time>
        <begin value="0"/>
        <end value="86400"/>
    </time>

    <report>
        <xml-validation value="never"/>
        <no-step-log value="true"/>
    </report>

</configuration>
-->

<routes xmlns:xsi="http://www.w3.org/2001/XMLSchema-instance" xsi:noNamespaceSchemaLocation="http://sumo-sim.org/xsd/routes_file.xsd">
    <vehicle id="0" type="0" depart="780.00">
        <route edges="beg middle end rend" exitTimes="880.00 1630.00 1647.99 1665.97"/>
    </vehicle>
    <vehicle id="1" type="0" depart="810.00">
        <route edges="beg beg2left left left2end end rend" exitTimes="910.00 1010.00 1410.00 1610.00 1627.99 1645.97"/>
    </vehicle>
</routes>
