<?xml version="1.0" encoding="UTF-8"?>

<!-- generated on 2022-02-18 09:49:57 by Eclipse SUMO netedit Version v1_12_0+0661-365011a671f
-->

<routes xmlns:xsi="http://www.w3.org/2001/XMLSchema-instance" xsi:noNamespaceSchemaLocation="http://sumo.dlr.de/xsd/routes_file.xsd">
    <route id="r_0" edges="gneE2 gneE4 gneE5"/>
    <flow id="f_0" begin="0.00" route="r_0" end="3600.00" vehsPerHour="26.00"/>
</routes>
