<routes xmlns:xsi="http://www.w3.org/2001/XMLSchema-instance" xsi:noNamespaceSchemaLocation="http://sumo-sim.org/xsd/routes_file.xsd">
   <vType id="DEFAULT_VEHTYPE" sigma="0"/>
    <route id="r0" edges="beg end"/>
    <vehicle id="blocker" depart="0" route="r0" departSpeed="max">
        <stop lane="end_0" endPos="6" duration="400"/>
    </vehicle>
    <vehicle id="blocked" depart="0" route="r0" departSpeed="max"/>
</routes>
