<?xml version="1.0" encoding="UTF-8"?>

<!-- generated on 2022-10-25 10:56:11 by Eclipse SUMO netedit Version v1_14_1+1914-f1c7c144c82
-->

<routes xmlns:xsi="http://www.w3.org/2001/XMLSchema-instance" xsi:noNamespaceSchemaLocation="http://sumo.dlr.de/xsd/routes_file.xsd">
    <!-- Routes -->
    <route id="routeA" edges="gneE2 gneE4 gneE5" color="yellow"/>
    <route id="routeB" edges="gneE6 gneE3 gneE7" color="yellow"/>
    <!-- Vehicles, persons and containers (sorted by depart) -->
    <flow id="flowA" begin="0.00" departPos="2.00" departPosLat="2.00" departSpeed="12.00" arrivalLane="0" arrivalPos="3.00" arrivalPosLat="3.00" arrivalSpeed="12.00" color="red" line="line A" personNumber="1" containerNumber="5" insertionChecks="speedLimit pedestrian all" route="routeA" end="2600.00" number="13">
        <param key="KeyA1" value="valueA1"/>
        <param key="KeyA2" value="valueA3"/>
        <param key="KeyA3" value="valueA2"/>
    </flow>
    <flow id="flowB" begin="10.00" departPos="random" departPosLat="random_free" departSpeed="speedLimit" arrivalLane="current" arrivalPos="random" arrivalPosLat="right" arrivalSpeed="current" color="blue" line="line B" personNumber="2" containerNumber="10" insertionChecks="leaderGap junction speedLimit pedestrian all" route="routeB" end="3600.00" number="18">
        <param key="KeyB1" value="valueB1"/>
        <param key="KeyB2" value="valueB3"/>
        <param key="KeyB3" value="valueB2"/>
    </flow>
</routes>
