<additional xmlns:xsi="http://www.w3.org/2001/XMLSchema-instance" xsi:noNamespaceSchemaLocation="http://sumo.dlr.de/xsd/additional_file.xsd">
    
	<!-- cont is deprecated -->
    <e2Detector id="E2_01" lane="gneE0_0" pos="1" length="10.00" freq="100.00" file="fileA.txt" cont="0" timeThreshold="1.00" speedThreshold="1.39" jamThreshold="10.00" friendlyPos="0"/>

</additional>
