<?xml version="1.0" encoding="UTF-8"?>


<additional xmlns:xsi="http://www.w3.org/2001/XMLSchema-instance" xsi:noNamespaceSchemaLocation="http://sumo.dlr.de/xsd/additional_file.xsd">
    <poly id="poly_0" color="green" fill="1" layer="0.00" shape="10.000000,20.000000 0.000000,20.000000 0.000000,10.000000 10.000000,10.000000 10.000000,20.000000"/>
    <poly id="poly_1" color="green" fill="1" layer="0.00" shape="40.000000,20.000000 40.000000,10.000000 50.000000,10.000000 50.000000,20.000000 40.000000,20.000000"/>
    <poi id="POI_2" color="red" layer="3.00" x="10.00" y="-10.00" width="0.00" height="0.00"/>
    <poi id="POI_3" color="red" layer="3.00" x="40.00" y="-10.00" width="0.00" height="0.00"/>
</additional>
