<?xml version="1.0" encoding="UTF-8"?>

<configuration>

    <input>
        <net-file value="net.netedit"/>
    </input>
	
</configuration>