<?xml version="1.0" encoding="UTF-8"?>

<!-- generated on 2024-06-13 07:15:09 by Eclipse SUMO netgenerate Version v1_20_0+0443-233e48e5c88
-->

<netgenerateConfiguration xmlns:xsi="http://www.w3.org/2001/XMLSchema-instance" xsi:noNamespaceSchemaLocation="http://sumo.dlr.de/xsd/netgenerateConfiguration.xsd">

    <grid_network>
        <grid value="true"/>
        <grid.x-number value="6"/>
        <grid.y-number value="3"/>
        <grid.x-length value="300"/>
        <grid.y-length value="100"/>
    </grid_network>

    <pedestrian>
        <sidewalks.guess value="true"/>
        <walkingareas value="true"/>
    </pedestrian>

</netgenerateConfiguration>
