<?xml version="1.0" encoding="UTF-8"?>

<!-- generated on 22.11.2018 10:48:17 by Eclipse SUMO netedit Version v1_0_0+1004-1c7613c4e7
-->

<additional xmlns:xsi="http://www.w3.org/2001/XMLSchema-instance" xsi:noNamespaceSchemaLocation="http://sumo.dlr.de/xsd/additional_file.xsd">
    <e3Detector id="e3Detector_0" pos="0.00,0.00" freq="100.00" file="fileA.txt">
        <detEntry lane="gneE1_0" pos="2.00"/>
        <detExit lane="gneE0_0" pos="2.00"/>
    </e3Detector>
</additional>
