<additional xmlns:xsi="http://www.w3.org/2001/XMLSchema-instance" xsi:noNamespaceSchemaLocation="https://sumo.dlr.de/xsd/additional_file.xsd">
	<!-- Without errors -->
	<e3Detector id="e3Detector_0" freq="100.00" file="fileA.txt">
		<detEntry lane="gneE1_0" pos="2" friendlyPos="0"/>
		<detExit lane="gneE0_0" pos="2" friendlyPos="0"/>
	</e3Detector>
</additional>
