<?xml version="1.0" encoding="UTF-8"?>

<!-- generated on 2025-02-03 14:47:47 by Eclipse SUMO netconvert Version v1_21_0+2283-8c24bb7ce10
<netconvertConfiguration xmlns:xsi="http://www.w3.org/2001/XMLSchema-instance" xsi:noNamespaceSchemaLocation="http://sumo.dlr.de/xsd/netconvertConfiguration.xsd">

    <input>
        <sumo-net-file value="D:/SUMO/tests/netedit\network\crossings\without_tls\inspect/net.net.xml"/>
    </input>

    <output>
        <plain-output-prefix value="D:/SUMO/tests/netedit\network\crossings\without_tls\inspect/net"/>
    </output>

    <processing>
        <geometry.min-radius.fix.railways value="false"/>
        <geometry.max-grade.fix value="false"/>
        <offset.disable-normalization value="true"/>
        <lefthand value="0"/>
    </processing>

    <junctions>
        <no-turnarounds value="true"/>
        <junctions.corner-detail value="5"/>
        <junctions.limit-turn-speed value="5.50"/>
        <rectangular-lane-cut value="0"/>
    </junctions>

    <pedestrian>
        <walkingareas value="0"/>
    </pedestrian>

</netconvertConfiguration>
-->

<connections version="1.20" xmlns:xsi="http://www.w3.org/2001/XMLSchema-instance" xsi:noNamespaceSchemaLocation="http://sumo.dlr.de/xsd/connections_file.xsd">
    <connection from="-E0" to="E1" fromLane="1" toLane="1"/>
    <connection from="-E0" to="E3" fromLane="1" toLane="1"/>
    <connection from="-E0" to="E1" fromLane="2" toLane="2"/>
    <connection from="-E0" to="E3" fromLane="2" toLane="2"/>

    <connection from="-E1" to="E3" fromLane="1" toLane="1"/>
    <connection from="-E1" to="E2" fromLane="1" toLane="1"/>
    <connection from="-E1" to="E3" fromLane="2" toLane="2"/>
    <connection from="-E1" to="E2" fromLane="2" toLane="2"/>

    <connection from="-E2" to="E0" fromLane="1" toLane="1"/>
    <connection from="-E2" to="E1" fromLane="1" toLane="1"/>
    <connection from="-E2" to="E0" fromLane="2" toLane="2"/>
    <connection from="-E2" to="E1" fromLane="2" toLane="2"/>

    <connection from="-E3" to="E2" fromLane="1" toLane="1"/>
    <connection from="-E3" to="E0" fromLane="1" toLane="1"/>
    <connection from="-E3" to="E2" fromLane="2" toLane="2"/>
    <connection from="-E3" to="E0" fromLane="2" toLane="2"/>

    <connection from="E0"/>

    <connection from="E1"/>

    <connection from="E2"/>

    <connection from="E3"/>

    <connection from="EdgeExternBot" to="EdgeExternTop" fromLane="0" toLane="0"/>

    <connection from="EdgeExternTop" to="EdgeExternBot" fromLane="0" toLane="0"/>

    <crossing node="Junction5" edges="E2 -E2" priority="0" width="4.00" outlineShape="7.50,-4.10 7.50,4.10 6.43,4.10 5.56,4.39 4.87,4.88 4.39,5.56 4.17,6.22 3.50,4.00 3.50,-4.00 4.17,-6.22 4.39,-5.56 4.87,-4.88 5.56,-4.39 6.43,-4.10"/>
</connections>
