<routes>
    <vTypeDistribution id="testDist">
        <vType id="type0" sigma="0"/>
        <vType id="type1" sigma="0"/>
    </vTypeDistribution>
    <vType id="type2" sigma="0">
        <param key="has.rerouting.device" value="false"/>
    </vType>

    <route id="r0" edges="beg middle end"/>

    <vehicle id="v0" type="testDist" route="r0" depart="0" line="line1">
        <stop lane="middle_0" duration="0"/>
        <param key="has.rerouting.device" value="false"/>
    </vehicle>

    <vehicle id="v1" type="type2" route="r0" depart="0"/>
</routes>
