<?xml version="1.0" encoding="UTF-8"?>

<!-- generated on Mon Feb 17 15:30:53 2020 by Eclipse SUMO netconvert Version v1_5_0+0130-ceb0a01
This data file and the accompanying materials
are made available under the terms of the Eclipse Public License v2.0
which accompanies this distribution, and is available at
http://www.eclipse.org/legal/epl-v20.html
SPDX-License-Identifier: EPL-2.0
<configuration xmlns:xsi="http://www.w3.org/2001/XMLSchema-instance" xsi:noNamespaceSchemaLocation="http://sumo.dlr.de/xsd/netconvertConfiguration.xsd">

    <input>
        <node-files value="input_plain.nod.xml"/>
        <edge-files value="input_plain.edg.xml"/>
    </input>

    <output>
        <write-license value="true"/>
        <output-file value="net.net.xml"/>
    </output>

    <junctions>
        <no-internal-links value="true"/>
        <no-turnarounds value="true"/>
    </junctions>

    <report>
        <xml-validation value="never"/>
        <aggregate-warnings value="5"/>
    </report>

</configuration>
-->

<net version="1.6" junctionCornerDetail="5" limitTurnSpeed="5.50" xmlns:xsi="http://www.w3.org/2001/XMLSchema-instance" xsi:noNamespaceSchemaLocation="http://sumo.dlr.de/xsd/net_file.xsd">

    <location netOffset="100.00,100.00" convBoundary="0.00,0.00,200.00,200.00" origBoundary="-10000000000.00,-10000000000.00,10000000000.00,10000000000.00" projParameter="!"/>

    <edge id="CE" from="C" to="E" priority="1">
        <lane id="CE_0" index="0" speed="13.89" length="100.00" shape="110.40,95.20 200.00,95.20"/>
        <lane id="CE_1" index="1" speed="13.89" length="100.00" shape="110.40,98.40 200.00,98.40"/>
    </edge>
    <edge id="CN" from="C" to="N" priority="2">
        <lane id="CN_0" index="0" speed="13.89" length="100.00" shape="104.80,110.40 104.80,200.00"/>
        <lane id="CN_1" index="1" speed="13.89" length="100.00" shape="101.60,110.40 101.60,200.00"/>
    </edge>
    <edge id="CS" from="C" to="S" priority="2">
        <lane id="CS_0" index="0" speed="13.89" length="100.00" shape="95.20,89.60 95.20,0.00"/>
        <lane id="CS_1" index="1" speed="13.89" length="100.00" shape="98.40,89.60 98.40,0.00"/>
    </edge>
    <edge id="CW" from="C" to="W" priority="1">
        <lane id="CW_0" index="0" speed="13.89" length="100.00" shape="89.60,104.80 0.00,104.80"/>
        <lane id="CW_1" index="1" speed="13.89" length="100.00" shape="89.60,101.60 0.00,101.60"/>
    </edge>
    <edge id="EC" from="E" to="C" priority="1">
        <lane id="EC_0" index="0" speed="13.89" length="100.00" shape="200.00,104.80 110.40,104.80"/>
        <lane id="EC_1" index="1" speed="13.89" length="100.00" shape="200.00,101.60 110.40,101.60"/>
    </edge>
    <edge id="NC" from="N" to="C" priority="2">
        <lane id="NC_0" index="0" speed="13.89" length="100.00" shape="95.20,200.00 95.20,110.40"/>
        <lane id="NC_1" index="1" speed="13.89" length="100.00" shape="98.40,200.00 98.40,110.40"/>
    </edge>
    <edge id="SC" from="S" to="C" priority="2">
        <lane id="SC_0" index="0" speed="13.89" length="100.00" shape="104.80,0.00 104.80,89.60"/>
        <lane id="SC_1" index="1" speed="13.89" length="100.00" shape="101.60,0.00 101.60,89.60"/>
    </edge>
    <edge id="WC" from="W" to="C" priority="1">
        <lane id="WC_0" index="0" speed="13.89" length="100.00" shape="0.00,95.20 89.60,95.20"/>
        <lane id="WC_1" index="1" speed="13.89" length="100.00" shape="0.00,98.40 89.60,98.40"/>
    </edge>

    <junction id="C" type="priority" x="100.00" y="100.00" incLanes="NC_0 NC_1 EC_0 EC_1 SC_0 SC_1 WC_0 WC_1" intLanes="" shape="93.60,110.40 106.40,110.40 106.84,108.18 107.40,107.40 108.18,106.84 109.18,106.51 110.40,106.40 110.40,93.60 108.18,93.16 107.40,92.60 106.84,91.82 106.51,90.82 106.40,89.60 93.60,89.60 93.16,91.82 92.60,92.60 91.82,93.16 90.82,93.49 89.60,93.60 89.60,106.40 91.82,106.84 92.60,107.40 93.16,108.18 93.49,109.18">
        <request index="0"  response="0000000000000000" foes="0000000001100000"/>
        <request index="1"  response="0000000000000000" foes="1111100011100000"/>
        <request index="2"  response="0000000000000000" foes="1111100011100000"/>
        <request index="3"  response="0000011000000000" foes="1110011011100000"/>
        <request index="4"  response="0000011000000000" foes="0000011000000000"/>
        <request index="5"  response="0000111000001111" foes="1000111000001111"/>
        <request index="6"  response="0000111000001111" foes="1000111000001111"/>
        <request index="7"  response="0110111000001110" foes="0110111000001110"/>
        <request index="8"  response="0000000000000000" foes="0110000000000000"/>
        <request index="9"  response="0000000000000000" foes="1110000011111000"/>
        <request index="10" response="0000000000000000" foes="1110000011111000"/>
        <request index="11" response="0000000000000110" foes="1110000011100110"/>
        <request index="12" response="0000000000000110" foes="0000000000000110"/>
        <request index="13" response="0000111100001110" foes="0000111110001110"/>
        <request index="14" response="0000111100001110" foes="0000111110001110"/>
        <request index="15" response="0000111001101110" foes="0000111001101110"/>
    </junction>
    <junction id="E" type="dead_end" x="200.00" y="100.00" incLanes="CE_0 CE_1" intLanes="" shape="200.00,100.00 200.00,93.60 200.00,100.00"/>
    <junction id="N" type="dead_end" x="100.00" y="200.00" incLanes="CN_0 CN_1" intLanes="" shape="100.00,200.00 106.40,200.00 100.00,200.00"/>
    <junction id="S" type="dead_end" x="100.00" y="0.00" incLanes="CS_0 CS_1" intLanes="" shape="100.00,0.00 93.60,0.00 100.00,0.00"/>
    <junction id="W" type="dead_end" x="0.00" y="100.00" incLanes="CW_0 CW_1" intLanes="" shape="0.00,100.00 0.00,106.40 0.00,100.00"/>

    <connection from="EC" to="CN" fromLane="0" toLane="0" dir="r" state="m"/>
    <connection from="EC" to="CW" fromLane="0" toLane="0" dir="s" state="m"/>
    <connection from="EC" to="CW" fromLane="1" toLane="1" dir="s" state="m"/>
    <connection from="EC" to="CS" fromLane="1" toLane="1" dir="l" state="m"/>
    <connection from="NC" to="CW" fromLane="0" toLane="0" dir="r" state="M"/>
    <connection from="NC" to="CS" fromLane="0" toLane="0" dir="s" state="M"/>
    <connection from="NC" to="CS" fromLane="1" toLane="1" dir="s" state="M"/>
    <connection from="NC" to="CE" fromLane="1" toLane="1" dir="l" state="m"/>
    <connection from="SC" to="CE" fromLane="0" toLane="0" dir="r" state="M"/>
    <connection from="SC" to="CN" fromLane="0" toLane="0" dir="s" state="M"/>
    <connection from="SC" to="CN" fromLane="1" toLane="1" dir="s" state="M"/>
    <connection from="SC" to="CW" fromLane="1" toLane="1" dir="l" state="m"/>
    <connection from="WC" to="CS" fromLane="0" toLane="0" dir="r" state="m"/>
    <connection from="WC" to="CE" fromLane="0" toLane="0" dir="s" state="m"/>
    <connection from="WC" to="CE" fromLane="1" toLane="1" dir="s" state="m"/>
    <connection from="WC" to="CN" fromLane="1" toLane="1" dir="l" state="m"/>

</net>
