<routes>
    <route id="r1" edges="beg end"/>
    <route id="r2" edges="beg end"/>
    <vehicle id="1" depart="0">
        <routeDistribution>
            <route refid="x" probability="0.5"/>
            <route refid="r2" probability="0.5"/>
        </routeDistribution>
    </vehicle>
</routes>
