<?xml version="1.0" encoding="UTF-8"?>

<!-- generated on 2022-06-29 10:07:29 by Eclipse SUMO netconvert Version v1_13_0+1291-82ac0ee5f81
<configuration xmlns:xsi="http://www.w3.org/2001/XMLSchema-instance" xsi:noNamespaceSchemaLocation="http://sumo.dlr.de/xsd/netconvertConfiguration.xsd">

    <input>
        <sumo-net-file value="D:/SUMO/tests/netedit\additionalelements\access\load/input_net.net.xml"/>
    </input>

    <output>
        <plain-output-prefix value="D:/SUMO/tests/netedit\additionalelements\access\load/input_net"/>
    </output>

    <processing>
        <geometry.min-radius.fix.railways value="false"/>
        <geometry.max-grade.fix value="false"/>
        <offset.disable-normalization value="true"/>
        <lefthand value="false"/>
    </processing>

    <junctions>
        <no-turnarounds value="true"/>
        <junctions.corner-detail value="5"/>
        <junctions.limit-turn-speed value="5.5"/>
        <rectangular-lane-cut value="false"/>
    </junctions>

    <pedestrian>
        <walkingareas value="false"/>
    </pedestrian>

</configuration>
-->

<edges version="1.9" xmlns:xsi="http://www.w3.org/2001/XMLSchema-instance" xsi:noNamespaceSchemaLocation="http://sumo.dlr.de/xsd/edges_file.xsd">
    <edge id="1" from="gneJ11" to="gneJ10" priority="1" numLanes="1" speed="13.89" allow="pedestrian"/>
    <edge id="10" from="gneJ4" to="gneJ5" priority="1" numLanes="1" speed="13.89" allow="pedestrian"/>
    <edge id="11" from="gneJ7" to="gneJ6" priority="1" numLanes="1" speed="13.89" allow="pedestrian"/>
    <edge id="12" from="gneJ6" to="gneJ7" priority="1" numLanes="1" speed="13.89" allow="pedestrian"/>
    <edge id="13" from="gneJ13" to="gneJ12" priority="1" numLanes="1" speed="13.89" allow="pedestrian"/>
    <edge id="14" from="gneJ12" to="gneJ13" priority="1" numLanes="1" speed="13.89" allow="pedestrian"/>
    <edge id="2" from="gneJ10" to="gneJ11" priority="1" numLanes="1" speed="13.89" allow="pedestrian"/>
    <edge id="3" from="gneJ9" to="gneJ8" priority="1" numLanes="1" speed="13.89" allow="pedestrian"/>
    <edge id="4" from="gneJ8" to="gneJ9" priority="1" numLanes="1" speed="13.89" allow="pedestrian"/>
    <edge id="5" from="gneJ3" to="gneJ2" priority="1" numLanes="1" speed="13.89" allow="pedestrian"/>
    <edge id="6" from="gneJ2" to="gneJ3" priority="1" numLanes="1" speed="13.89" allow="pedestrian"/>
    <edge id="7" from="gneJ1" to="gneJ0" priority="1" numLanes="1" speed="13.89" allow="pedestrian"/>
    <edge id="8" from="gneJ0" to="gneJ1" priority="1" numLanes="1" speed="13.89" allow="pedestrian"/>
    <edge id="9" from="gneJ5" to="gneJ4" priority="1" numLanes="1" speed="13.89" allow="pedestrian"/>
</edges>
