<additional xmlns:xsi="http://www.w3.org/2001/XMLSchema-instance" xsi:noNamespaceSchemaLocation="http://sumo.dlr.de/xsd/additional_file.xsd">
	<!-- access with non valid busStop parent  (Without ID) -->
    <busStop lane="1_0" startPos="23.00" endPos="33.00">
		<access lane="1_0" pos="10" length="10" friendlyPos="0"/>
	</busStop>
	
	<!-- Valid parent -->
    <busStop id="busStop_0" lane="1_0" startPos="23.00" endPos="33.00">
		
		<!-- non valid lane (missing) -->
		<access pos="5" length="10" friendlyPos="0"/>		
		
		<!-- non valid Lane (dummy) -->
		<access lane="dummyLane" pos="10" length="10" friendlyPos="0"/>	
		
		<!-- Valid Lane -->
        <access lane="1_0" pos="15" length="10" friendlyPos="0"/>
		
		<!-- valid Position (missing) -->
		<access lane="2_0" length="10" friendlyPos="0"/>
		
		<!-- non valid Position (dummy) -->
		<access lane="3_0" pos="dummyPosition" length="10" friendlyPos="0"/>
		
		<!-- non valid Position (empty) -->
        <access lane="3_0" pos="" length="10" friendlyPos="0"/>
		
		<!-- non valid Position (negative) -->
        <access lane="3_0" pos="-10" length="10" friendlyPos="0"/>
		
		<!-- non valid Position (overpassing lane) -->
        <access lane="3_0" pos="2000" length="10" friendlyPos="0"/>
		
		<!-- valid Position -->
        <access lane="3_0" pos="10" length="10" friendlyPos="0"/>	
		
		<!-- non valid length (missing) -->
        <access lane="4_0" pos="10" friendlyPos="0"/>
		
		<!-- non valid length (dummy) -->
        <access lane="5_0" pos="10" length="dummyLenght" friendlyPos="0"/>

		<!-- non valid length (negative) -->
        <access lane="6_0" pos="10" length="-30" friendlyPos="0"/>
		
		<!-- valid length -->
        <access lane="7_0" pos="10" length="40" friendlyPos="0"/>

		<!-- non valid friendly position (missing) -->
        <access lane="8_0" pos="10"/>
		
		<!-- non valid friendly position (invalid) -->
        <access lane="9_0" pos="10" length="10" friendlyPos="dummyFriendlyPos"/>
		
		<!-- valid friendly position, invalid position-->
        <access lane="10_0" pos="4000" length="10" friendlyPos="1"/>
		
		<!-- valid friendly position, invalid position-->
        <access lane="11_0" pos="-200" length="10" friendlyPos="1"/>

		<!-- Valid friendly position, invalid position -->
        <access lane="12_0" pos="10" length="10" friendlyPos="1"/>
    </busStop>
	
	<!-- access without busStop parent -->
	<access lane="13_0" pos="10"/>
</additional>
