<?xml version="1.0" encoding="UTF-8"?>

<!-- generated on 2023-10-25 09:03:09 by Eclipse SUMO netedit Version v1_18_0+2219-fcba03e877e
<configuration xmlns:xsi="http://www.w3.org/2001/XMLSchema-instance" xsi:noNamespaceSchemaLocation="http://sumo.dlr.de/xsd/neteditConfiguration.xsd">

    <input>
        <additional-files value="/home/palcraft/.texttest/tmp/netedit.gui.25Oct090222.4364/netedit.gui/netelements/connections/delete/click/additionals.add.xml"/>
        <route-files value="/home/palcraft/.texttest/tmp/netedit.gui.25Oct090222.4364/netedit.gui/netelements/connections/delete/click/routes.rou.xml"/>
        <data-files value="/home/palcraft/.texttest/tmp/netedit.gui.25Oct090222.4364/netedit.gui/netelements/connections/delete/click/datas.dat.xml"/>
        <sumo-net-file value="/home/palcraft/.texttest/tmp/netedit.gui.25Oct090222.4364/netedit.gui/netelements/connections/delete/click/net.net.xml"/>
    </input>

    <output>
        <output-file value="/home/palcraft/.texttest/tmp/netedit.gui.25Oct090222.4364/netedit.gui/netelements/connections/delete/click/net.net.xml"/>
    </output>

    <processing>
        <geometry.min-radius.fix.railways value="false"/>
        <geometry.max-grade.fix value="false"/>
        <offset.disable-normalization value="true"/>
        <lefthand value="0"/>
    </processing>

    <junctions>
        <no-internal-links value="true"/>
        <no-turnarounds value="true"/>
        <junctions.corner-detail value="5"/>
        <junctions.limit-turn-speed value="5.50"/>
        <rectangular-lane-cut value="0"/>
    </junctions>

    <pedestrian>
        <walkingareas value="0"/>
    </pedestrian>

    <netedit>
        <ignore-supermode-question value="true"/>
    </netedit>

    <visualisation>
        <gui-settings-file value="/home/palcraft/.texttest/tmp/netedit.gui.25Oct090222.4364/netedit.gui/netelements/connections/delete/click/gui-settings.xml"/>
        <window-size value="1280, 720"/>
        <window-pos value="50,50"/>
        <gui-testing value="true"/>
        <gui-testing.setting-output value="/home/palcraft/.texttest/tmp/netedit.gui.25Oct090222.4364/netedit.gui/netelements/connections/delete/click/guisettingsoutput.xml"/>
    </visualisation>

    <report>
        <no-warnings value="true"/>
        <error-log value="/home/palcraft/.texttest/tmp/netedit.gui.25Oct090222.4364/netedit.gui/netelements/connections/delete/click/log.txt"/>
    </report>

</configuration>
-->

<net version="1.16" junctionCornerDetail="5" limitTurnSpeed="5.50" xmlns:xsi="http://www.w3.org/2001/XMLSchema-instance" xsi:noNamespaceSchemaLocation="http://sumo.dlr.de/xsd/net_file.xsd">

    <location netOffset="50.00,50.00" convBoundary="0.00,0.00,100.00,100.00" origBoundary="-50.00,-50.00,50.00,50.00" projParameter="!"/>

    <edge id="1" from="Center" to="A" priority="-1">
        <lane id="1_0" index="0" disallow="pedestrian" speed="13.90" length="50.00" shape="45.20,39.60 45.20,0.00"/>
        <lane id="1_1" index="1" disallow="pedestrian" speed="13.90" length="50.00" shape="48.40,39.60 48.40,0.00"/>
    </edge>
    <edge id="2" from="Center" to="B" priority="-1">
        <lane id="2_0" index="0" disallow="pedestrian" speed="13.90" length="50.00" shape="54.80,60.40 54.80,100.00"/>
        <lane id="2_1" index="1" disallow="pedestrian" speed="13.90" length="50.00" shape="51.60,60.40 51.60,100.00"/>
    </edge>
    <edge id="4" from="Center" to="D" priority="-1">
        <lane id="4_0" index="0" disallow="pedestrian" speed="13.90" length="50.00" shape="60.40,45.20 100.00,45.20"/>
        <lane id="4_1" index="1" disallow="pedestrian" speed="13.90" length="50.00" shape="60.40,48.40 100.00,48.40"/>
    </edge>
    <edge id="5" from="A" to="Center" priority="-1">
        <lane id="5_0" index="0" disallow="pedestrian" speed="13.90" length="50.00" shape="54.80,0.00 54.80,39.60"/>
        <lane id="5_1" index="1" disallow="pedestrian" speed="13.90" length="50.00" shape="51.60,0.00 51.60,39.60"/>
    </edge>
    <edge id="6" from="B" to="Center" priority="-1">
        <lane id="6_0" index="0" disallow="pedestrian" speed="13.90" length="50.00" shape="45.20,100.00 45.20,60.40"/>
        <lane id="6_1" index="1" disallow="pedestrian" speed="13.90" length="50.00" shape="48.40,100.00 48.40,60.40"/>
    </edge>
    <edge id="7" from="C" to="Center" priority="-1">
        <lane id="7_0" index="0" disallow="pedestrian" speed="13.90" length="50.00" shape="0.00,45.20 39.60,45.20"/>
        <lane id="7_1" index="1" disallow="pedestrian" speed="13.90" length="50.00" shape="0.00,48.40 39.60,48.40"/>
    </edge>
    <edge id="8" from="D" to="Center" priority="-1">
        <lane id="8_0" index="0" disallow="pedestrian" speed="13.90" length="50.00" shape="100.00,54.80 60.40,54.80"/>
        <lane id="8_1" index="1" disallow="pedestrian" speed="13.90" length="50.00" shape="100.00,51.60 60.40,51.60"/>
    </edge>

    <junction id="A" type="dead_end" x="50.00" y="0.00" incLanes="1_0 1_1" intLanes="" shape="50.00,0.00 43.60,0.00 50.00,0.00"/>
    <junction id="B" type="dead_end" x="50.00" y="100.00" incLanes="2_0 2_1" intLanes="" shape="50.00,100.00 56.40,100.00 50.00,100.00"/>
    <junction id="C" type="dead_end" x="0.00" y="50.00" incLanes="" intLanes="" shape="0.00,50.00 0.00,43.60"/>
    <junction id="Center" type="priority" x="50.00" y="50.00" incLanes="6_0 6_1 8_0 8_1 5_0 5_1 7_0 7_1" intLanes="" shape="43.60,60.40 56.40,60.40 56.84,58.18 57.40,57.40 58.18,56.84 59.18,56.51 60.40,56.40 60.40,43.60 58.18,43.16 57.40,42.60 56.84,41.82 56.51,40.82 56.40,39.60 43.60,39.60 43.16,41.82 42.60,42.60 41.82,43.16 40.82,43.49 39.60,43.60 39.60,50.00 41.82,51.16 42.60,52.60 43.16,54.62 43.49,57.22">
        <request index="0"  response="000000000000" foes="111100010000"/>
        <request index="1"  response="000000000000" foes="111100010000"/>
        <request index="2"  response="000011000000" foes="111011010000"/>
        <request index="3"  response="000011000000" foes="000011000000"/>
        <request index="4"  response="011011000111" foes="011011000111"/>
        <request index="5"  response="000000000000" foes="011000000000"/>
        <request index="6"  response="000000000000" foes="111000011100"/>
        <request index="7"  response="000000000000" foes="111000011100"/>
        <request index="8"  response="000000000011" foes="000000000011"/>
        <request index="9"  response="000011100111" foes="000011110111"/>
        <request index="10" response="000011100111" foes="000011110111"/>
        <request index="11" response="000011000111" foes="000011000111"/>
    </junction>
    <junction id="D" type="dead_end" x="100.00" y="50.00" incLanes="4_0 4_1" intLanes="" shape="100.00,50.00 100.00,43.60 100.00,50.00"/>

    <connection from="5" to="4" fromLane="0" toLane="0" dir="r" state="M"/>
    <connection from="5" to="2" fromLane="0" toLane="0" dir="s" state="M"/>
    <connection from="5" to="2" fromLane="1" toLane="1" dir="s" state="M"/>
    <connection from="6" to="1" fromLane="0" toLane="0" dir="s" state="M"/>
    <connection from="6" to="1" fromLane="1" toLane="1" dir="s" state="M"/>
    <connection from="6" to="4" fromLane="1" toLane="1" dir="l" state="m"/>
    <connection from="7" to="1" fromLane="0" toLane="0" dir="r" state="m"/>
    <connection from="7" to="4" fromLane="0" toLane="0" dir="s" state="m"/>
    <connection from="7" to="4" fromLane="1" toLane="1" dir="s" state="m"/>
    <connection from="7" to="2" fromLane="1" toLane="1" dir="l" state="m"/>
    <connection from="8" to="2" fromLane="0" toLane="0" dir="r" state="m"/>
    <connection from="8" to="1" fromLane="1" toLane="1" dir="l" state="m"/>

</net>
