<routes xmlns:xsi="http://www.w3.org/2001/XMLSchema-instance" xsi:noNamespaceSchemaLocation="http://sumo.dlr.de/xsd/routes_file.xsd">
    <variableSpeedSign id="vss0" lanes="end_1">
        <step time="0" speed="10"/>
    </variableSpeedSign>

</routes>
