<?xml version="1.0" encoding="UTF-8"?>

<!-- generated on 10.12.2020 12:29:13 by Eclipse SUMO netedit Version v1_8_0+0139-95c751cbe7
<configuration xmlns:xsi="http://www.w3.org/2001/XMLSchema-instance" xsi:noNamespaceSchemaLocation="http://sumo.dlr.de/xsd/netconvertConfiguration.xsd">

    <output>
        <output-file value="C:\Users\behr_mi\Projekte\sumo\repos\sumo\tests\sumo\meso\bugs\ticket1475\net.net.xml"/>
    </output>

    <processing>
        <offset.disable-normalization value="true"/>
    </processing>

    <junctions>
        <no-turnarounds value="true"/>
    </junctions>

    <report>
        <aggregate-warnings value="5"/>
    </report>

</configuration>
-->

<net version="1.6" junctionCornerDetail="5" limitTurnSpeed="5.50" xmlns:xsi="http://www.w3.org/2001/XMLSchema-instance" xsi:noNamespaceSchemaLocation="http://sumo.dlr.de/xsd/net_file.xsd">

    <location netOffset="0.00,0.00" convBoundary="-300.00,100.00,300.00,100.00" origBoundary="10000000000.00,10000000000.00,-10000000000.00,-10000000000.00" projParameter="!"/>

    <edge id=":gneJ1_0" function="internal">
        <lane id=":gneJ1_0_0" index="0" speed="13.89" length="8.40" shape="-4.00,98.40 -1.54,97.90 -0.00,96.80 1.54,95.70 4.00,95.20"/>
        <lane id=":gneJ1_0_1" index="1" speed="13.89" length="8.40" shape="-4.00,98.40 4.00,98.40"/>
    </edge>

    <edge id="gneE0" from="gneJ0" to="gneJ1" priority="-1">
        <lane id="gneE0_0" index="0" speed="13.89" length="296.00" shape="-300.00,98.40 -4.00,98.40"/>
    </edge>
    <edge id="gneE1" from="gneJ1" to="gneJ2" priority="-1">
        <lane id="gneE1_0" index="0" speed="13.89" length="296.00" shape="4.00,95.20 300.00,95.20"/>
        <lane id="gneE1_1" index="1" speed="13.89" length="296.00" shape="4.00,98.40 300.00,98.40"/>
    </edge>

    <junction id="gneJ0" type="dead_end" x="-300.00" y="100.00" incLanes="" intLanes="" shape="-300.00,100.00 -300.00,96.80"/>
    <junction id="gneJ1" type="priority" x="0.00" y="100.00" incLanes="gneE0_0" intLanes=":gneJ1_0_0 :gneJ1_0_1" shape="4.00,100.00 4.00,93.60 0.97,94.43 -0.97,95.97 -2.21,96.56 -4.00,96.80 -4.00,100.00">
        <request index="0" response="00" foes="00" cont="0"/>
        <request index="1" response="00" foes="00" cont="0"/>
    </junction>
    <junction id="gneJ2" type="dead_end" x="300.00" y="100.00" incLanes="gneE1_0 gneE1_1" intLanes="" shape="300.00,93.60 300.00,100.00"/>

    <connection from="gneE0" to="gneE1" fromLane="0" toLane="0" via=":gneJ1_0_0" dir="s" state="M"/>
    <connection from="gneE0" to="gneE1" fromLane="0" toLane="1" via=":gneJ1_0_1" dir="s" state="M"/>

    <connection from=":gneJ1_0" to="gneE1" fromLane="0" toLane="0" dir="s" state="M"/>
    <connection from=":gneJ1_0" to="gneE1" fromLane="1" toLane="1" dir="s" state="M"/>

</net>
