<?xml version="1.0" encoding="UTF-8"?>

<!-- generated on 02.07.2018 11:25:22 by Eclipse SUMO netedit Version 88bb7b0b92
<configuration xmlns:xsi="http://www.w3.org/2001/XMLSchema-instance" xsi:noNamespaceSchemaLocation="http://sumo.dlr.de/xsd/netconvertConfiguration.xsd">

    <input>
        <sumo-additionals-file value="C:/Users/SUMO-Test/.texttest/tmp/netedit.gui.02Jul093841.3832/netedit.gui/netElements/edges/inspectB\input_additionals.add.xml"/>
        <sumo-net-file value="C:/Users/SUMO-Test/.texttest/tmp/netedit.gui.02Jul093841.3832/netedit.gui/netElements/edges/inspectB\input_net.net.xml"/>
    </input>

    <output>
        <additionals-output value="C:/Users/SUMO-Test/.texttest/tmp/netedit.gui.02Jul093841.3832/netedit.gui/netElements/edges/inspectB\additionals.xml"/>
        <shapes-output value="C:/Users/SUMO-Test/.texttest/tmp/netedit.gui.02Jul093841.3832/netedit.gui/netElements/edges/inspectB\shapes.xml"/>
        <output-file value="C:/Users/SUMO-Test/.texttest/tmp/netedit.gui.02Jul093841.3832/netedit.gui/netElements/edges/inspectB\net.net.xml"/>
        <output.street-names value="true"/>
    </output>

    <processing>
        <no-turnarounds value="true"/>
        <offset.disable-normalization value="true"/>
        <lefthand value="false"/>
        <junctions.corner-detail value="5"/>
        <rectangular-lane-cut value="false"/>
        <walkingareas value="false"/>
    </processing>

    <visualisation>
        <gui-settings-file value="C:/Users/SUMO-Test/.texttest/tmp/netedit.gui.02Jul093841.3832/netedit.gui/netElements/edges/inspectB\gui-settings.xml"/>
        <window-size value="700,500"/>
        <window-pos value="50,50"/>
        <gui-testing value="true"/>
        <gui-testing-debug value="true"/>
    </visualisation>

    <report>
        <no-warnings value="true"/>
        <error-log value="C:/Users/SUMO-Test/.texttest/tmp/netedit.gui.02Jul093841.3832/netedit.gui/netElements/edges/inspectB\log.txt"/>
    </report>

</configuration>
-->

<net version="0.27" junctionCornerDetail="5" xmlns:xsi="http://www.w3.org/2001/XMLSchema-instance" xsi:noNamespaceSchemaLocation="http://sumo.dlr.de/xsd/net_file.xsd">

    <location netOffset="25.00,0.00" convBoundary="0.00,0.00,50.00,20.00" origBoundary="-10000000000.00,-10000000000.00,10000000000.00,10000000000.00" projParameter="!"/>

    <edge id=":gneJ0_0" function="internal">
        <lane id=":gneJ0_0_0" index="0" speed="13.89" length="7.74" shape="-1.60,3.20 -1.30,1.10 -0.40,-0.40 1.10,-1.30 3.20,-1.60"/>
    </edge>
    <edge id=":gneJ0_1" function="internal">
        <lane id=":gneJ0_1_0" index="0" speed="13.89" length="2.58" shape="3.20,1.60 2.50,1.70 2.00,2.00 1.70,2.50 1.60,3.20"/>
    </edge>
    <edge id=":gneJ0_2" function="internal">
        <lane id=":gneJ0_2_0" index="0" speed="13.89" length="2.08" shape="3.20,1.60 2.00,0.80 1.71,0.23"/>
    </edge>
    <edge id=":gneJ0_3" function="internal">
        <lane id=":gneJ0_3_0" index="0" speed="13.89" length="2.59" shape="1.71,0.23 1.60,-0.00 2.00,-0.80 3.20,-1.60"/>
    </edge>
    <edge id=":gneJ1_0" function="internal">
        <lane id=":gneJ1_0_0" index="0" speed="13.89" length="2.58" shape="48.40,3.20 48.30,2.50 48.00,2.00 47.50,1.70 46.80,1.60"/>
    </edge>
    <edge id=":gneJ1_1" function="internal">
        <lane id=":gneJ1_1_0" index="0" speed="13.89" length="6.87" shape="46.80,-1.60 48.90,-1.37 50.40,-0.68 51.30,0.47 51.60,2.09"/>
    </edge>
    <edge id=":gneJ1_2" function="internal">
        <lane id=":gneJ1_2_0" index="0" speed="13.89" length="2.66" shape="46.80,-1.60 48.00,-0.80 48.40,0.00 48.26,0.29"/>
    </edge>
    <edge id=":gneJ1_3" function="internal">
        <lane id=":gneJ1_3_0" index="0" speed="13.89" length="2.01" shape="48.26,0.29 48.00,0.80 46.80,1.60"/>
    </edge>
    <edge id=":gneJ2_0" function="internal">
        <lane id=":gneJ2_0_0" index="0" speed="13.89" length="6.06" shape="3.60,24.80 1.32,24.67 -0.30,24.29 -1.28,23.65 -1.60,22.76"/>
    </edge>
    <edge id=":gneJ2_1" function="internal">
        <lane id=":gneJ2_1_0" index="0" allow="private taxi delivery truck trailer bicycle evehicle ship custom2" speed="13.89" length="13.04" width="4.00" shape="3.60,21.60 16.19,18.20"/>
    </edge>
    <edge id=":gneJ2_2" function="internal">
        <lane id=":gneJ2_2_0" index="0" allow="private taxi delivery truck trailer bicycle evehicle ship custom2" speed="13.89" length="16.87" width="4.00" shape="1.60,22.76 2.45,24.41 5.01,24.02 9.28,21.56 15.26,17.05"/>
    </edge>
    <edge id=":gneJ2_3" function="internal">
        <lane id=":gneJ2_3_0" index="0" allow="private taxi delivery truck trailer bicycle evehicle ship custom2" speed="13.89" length="16.28" width="4.00" shape="1.60,22.76 2.51,20.79 5.25,19.38 9.81,18.52 16.19,18.20"/>
    </edge>
    <edge id=":gneJ3_0" function="internal">
        <lane id=":gneJ3_0_0" index="0" speed="13.89" length="60.93" shape="33.54,20.74 34.28,23.13 40.46,39.01 44.87,41.32 47.52,30.06 48.40,5.23"/>
    </edge>
    <edge id=":gneJ3_1" function="internal">
        <lane id=":gneJ3_1_0" index="0" speed="13.89" length="45.32" shape="35.69,18.10 36.90,18.10 37.28,19.32 40.21,20.32 48.29,21.03 61.52,21.46 79.90,21.60"/>
    </edge>
    <edge id=":gneJ3_2" function="internal">
        <lane id=":gneJ3_2_0" index="0" speed="13.89" length="37.44" shape="51.60,2.29 57.43,10.02 69.50,17.29 79.70,22.69 79.90,24.80"/>
    </edge>
    <edge id=":gneJ3_3" function="internal">
        <lane id=":gneJ3_3_0" index="0" speed="13.89" length="35.54" shape="51.60,2.29 57.43,9.52 69.50,15.69 79.70,19.99 79.90,21.60"/>
    </edge>

    <edge id="gneE0" from="gneJ0" to="gneJ1" priority="1">
        <lane id="gneE0_0" index="0" speed="13.89" length="43.60" shape="3.20,-1.60 46.80,-1.60"/>
    </edge>
    <edge id="gneE1" from="gneJ1" to="gneJ0" priority="1">
        <lane id="gneE1_0" index="0" speed="13.89" length="43.60" shape="46.80,1.60 3.20,1.60"/>
    </edge>
    <edge id="gneE2" from="gneJ2" to="gneJ3" name="my own name" priority="1" spreadType="center" length="40.00" shape="14.00,15.50 13.11,16.22 34.19,16.11 34.00,15.50">
        <lane id="gneE2_0" index="0" allow="private taxi delivery truck trailer bicycle evehicle ship custom2" speed="13.89" length="37.50" endOffset="2.50" width="4.00" shape="15.26,17.05 18.79,14.19 31.48,14.12 33.54,20.74"/>
        <lane id="gneE2_1" index="1" allow="private taxi delivery truck trailer bicycle evehicle ship custom2" speed="13.89" length="37.50" endOffset="2.50" width="4.00" shape="16.19,18.20 35.69,18.10"/>
    </edge>
    <edge id="gneE3" from="gneJ3" to="gneJ2" priority="1">
        <lane id="gneE3_0" index="0" speed="13.89" length="76.30" shape="79.90,24.80 3.60,24.80"/>
        <lane id="gneE3_1" index="1" speed="13.89" length="76.30" shape="79.90,21.60 3.60,21.60"/>
    </edge>
    <edge id="gneE4" from="gneJ3" to="gneJ1" priority="1">
        <lane id="gneE4_0" index="0" speed="13.89" length="2.03" shape="48.40,5.23 48.40,3.20"/>
    </edge>
    <edge id="gneE5" from="gneJ1" to="gneJ3" priority="1">
        <lane id="gneE5_0" index="0" speed="13.89" length="0.20" shape="51.60,2.09 51.60,2.29"/>
    </edge>
    <edge id="gneE8" from="gneJ2" to="gneJ0" priority="1">
        <lane id="gneE8_0" index="0" speed="13.89" length="19.56" shape="-1.60,22.76 -1.60,3.20"/>
    </edge>
    <edge id="gneE9" from="gneJ0" to="gneJ2" priority="1">
        <lane id="gneE9_0" index="0" speed="13.89" length="19.56" shape="1.60,3.20 1.60,22.76"/>
    </edge>

    <junction id="gneJ0" type="priority" x="0.00" y="0.00" incLanes="gneE8_0 gneE1_0" intLanes=":gneJ0_0_0 :gneJ0_1_0 :gneJ0_3_0" shape="-3.20,3.20 3.20,3.20 3.20,-3.20 -0.36,-2.49 -1.60,-1.60 -2.49,-0.36 -3.02,1.24">
        <request index="0" response="000" foes="100" cont="0"/>
        <request index="1" response="000" foes="000" cont="0"/>
        <request index="2" response="001" foes="001" cont="1"/>
    </junction>
    <junction id="gneJ1" type="priority" x="50.00" y="0.00" incLanes="gneE4_0 gneE0_0" intLanes=":gneJ1_0_0 :gneJ1_1_0 :gneJ1_3_0" shape="46.80,3.20 53.20,3.20 52.49,-0.36 51.60,-1.60 50.36,-2.49 48.76,-3.02 46.80,-3.20">
        <request index="0" response="000" foes="100" cont="0"/>
        <request index="1" response="000" foes="000" cont="0"/>
        <request index="2" response="001" foes="001" cont="1"/>
    </junction>
    <junction id="gneJ2" type="priority" x="0.00" y="20.00" incLanes="gneE3_0 gneE3_1 gneE9_0" intLanes=":gneJ2_0_0 :gneJ2_1_0 :gneJ2_2_0 :gneJ2_3_0" shape="3.60,26.40 3.60,20.00 11.48,12.39 14.00,15.50 10.70,18.13 8.00,20.20 5.90,21.69 4.40,22.62 3.50,22.97 3.20,22.76 -3.20,22.76 -2.44,24.78 -1.50,25.49 -0.18,26.00 1.52,26.30">
        <request index="0" response="0100" foes="0100" cont="0"/>
        <request index="1" response="0000" foes="1100" cont="0"/>
        <request index="2" response="0010" foes="0011" cont="0"/>
        <request index="3" response="0010" foes="0010" cont="0"/>
    </junction>
    <junction id="gneJ3" type="priority" x="50.00" y="20.00" incLanes="gneE2_0 gneE2_1 gneE5_0" intLanes=":gneJ3_0_0 :gneJ3_1_0 :gneJ3_2_0 :gneJ3_3_0" shape="50.00,3.20 36.67,20.10 43.04,20.07 49.75,20.04 56.78,20.02 64.15,20.01 71.86,20.00 79.90,20.00 79.90,26.40">
        <request index="0" response="1100" foes="1100" cont="0"/>
        <request index="1" response="1100" foes="1100" cont="0"/>
        <request index="2" response="0000" foes="0011" cont="0"/>
        <request index="3" response="0000" foes="0011" cont="0"/>
    </junction>

    <junction id=":gneJ0_3_0" type="internal" x="1.71" y="0.23" incLanes=":gneJ0_2_0 gneE8_0" intLanes=":gneJ0_0_0"/>
    <junction id=":gneJ1_3_0" type="internal" x="48.26" y="0.29" incLanes=":gneJ1_2_0 gneE4_0" intLanes=":gneJ1_0_0"/>

    <connection from="gneE0" to="gneE5" fromLane="0" toLane="0" via=":gneJ1_1_0" dir="l" state="M"/>
    <connection from="gneE0" to="gneE1" fromLane="0" toLane="0" via=":gneJ1_2_0" dir="t" state="m"/>
    <connection from="gneE1" to="gneE9" fromLane="0" toLane="0" via=":gneJ0_1_0" dir="r" state="M"/>
    <connection from="gneE1" to="gneE0" fromLane="0" toLane="0" via=":gneJ0_2_0" dir="t" state="m"/>
    <connection from="gneE2" to="gneE4" fromLane="0" toLane="0" via=":gneJ3_0_0" dir="s" state="m"/>
    <connection from="gneE2" to="gneE3" fromLane="1" toLane="1" via=":gneJ3_1_0" dir="R" state="m"/>
    <connection from="gneE3" to="gneE8" fromLane="0" toLane="0" via=":gneJ2_0_0" dir="L" state="M"/>
    <connection from="gneE3" to="gneE2" fromLane="1" toLane="1" via=":gneJ2_1_0" dir="s" state="M"/>
    <connection from="gneE4" to="gneE1" fromLane="0" toLane="0" via=":gneJ1_0_0" dir="r" state="M"/>
    <connection from="gneE5" to="gneE3" fromLane="0" toLane="0" via=":gneJ3_2_0" dir="l" state="M"/>
    <connection from="gneE5" to="gneE3" fromLane="0" toLane="1" via=":gneJ3_3_0" dir="l" state="M"/>
    <connection from="gneE8" to="gneE0" fromLane="0" toLane="0" via=":gneJ0_0_0" dir="l" state="M"/>
    <connection from="gneE9" to="gneE2" fromLane="0" toLane="0" via=":gneJ2_2_0" dir="l" state="m"/>
    <connection from="gneE9" to="gneE2" fromLane="0" toLane="1" via=":gneJ2_3_0" dir="l" state="m"/>

    <connection from=":gneJ0_0" to="gneE0" fromLane="0" toLane="0" dir="l" state="M"/>
    <connection from=":gneJ0_1" to="gneE9" fromLane="0" toLane="0" dir="r" state="M"/>
    <connection from=":gneJ0_2" to="gneE0" fromLane="0" toLane="0" via=":gneJ0_3_0" dir="t" state="m"/>
    <connection from=":gneJ0_3" to="gneE0" fromLane="0" toLane="0" dir="t" state="M"/>
    <connection from=":gneJ1_0" to="gneE1" fromLane="0" toLane="0" dir="r" state="M"/>
    <connection from=":gneJ1_1" to="gneE5" fromLane="0" toLane="0" dir="l" state="M"/>
    <connection from=":gneJ1_2" to="gneE1" fromLane="0" toLane="0" via=":gneJ1_3_0" dir="t" state="m"/>
    <connection from=":gneJ1_3" to="gneE1" fromLane="0" toLane="0" dir="t" state="M"/>
    <connection from=":gneJ2_0" to="gneE8" fromLane="0" toLane="0" dir="L" state="M"/>
    <connection from=":gneJ2_1" to="gneE2" fromLane="0" toLane="1" dir="s" state="M"/>
    <connection from=":gneJ2_2" to="gneE2" fromLane="0" toLane="0" dir="l" state="M"/>
    <connection from=":gneJ2_3" to="gneE2" fromLane="0" toLane="1" dir="l" state="M"/>
    <connection from=":gneJ3_0" to="gneE4" fromLane="0" toLane="0" dir="s" state="M"/>
    <connection from=":gneJ3_1" to="gneE3" fromLane="0" toLane="1" dir="R" state="M"/>
    <connection from=":gneJ3_2" to="gneE3" fromLane="0" toLane="0" dir="l" state="M"/>
    <connection from=":gneJ3_3" to="gneE3" fromLane="0" toLane="1" dir="l" state="M"/>

</net>
