<?xml version="1.0" encoding="UTF-8"?>

<!-- generated on 2023-04-22 16:10:27 by Eclipse SUMO netedit Version v1_16_0+2293-eb50ca0
-->

<routes xmlns:xsi="http://www.w3.org/2001/XMLSchema-instance" xsi:noNamespaceSchemaLocation="http://sumo.dlr.de/xsd/routes_file.xsd">
    <!-- Vehicles, persons and containers (sorted by depart) -->
    <flow id="f_0" type="DEFAULT_BIKETYPE" begin="0.00" departPosLat="random" end="500.00" period="exp(0.50)">
        <route edges="EC CW"/>
    </flow>
</routes>
