<?xml version="1.0" encoding="UTF-8"?>

<!-- generated on 07.10.2019 09:54:42 by Eclipse SUMO netedit Version v1_3_1+0559-0683dc7ddf
-->

<additional xmlns:xsi="http://www.w3.org/2001/XMLSchema-instance" xsi:noNamespaceSchemaLocation="http://sumo.dlr.de/xsd/additional_file.xsd">
    <vaporizer id="gneE1" begin="0.00" end="3600.00"/>
</additional>
