<?xml version="1.0" encoding="UTF-8"?>

<!-- generated on Thu Apr 12 00:04:46 2018 by SUMO netconvert Version c8481b0
This data file and the accompanying materials
are made available under the terms of the Eclipse Public License v2.0
which accompanies this distribution, and is available at
http://www.eclipse.org/legal/epl-v20.html
SPDX-License-Identifier: EPL-2.0
<configuration xmlns:xsi="http://www.w3.org/2001/XMLSchema-instance" xsi:noNamespaceSchemaLocation="http://sumo.dlr.de/xsd/netconvertConfiguration.xsd">

    <input>
        <node-files value="input_nodes.nod.xml"/>
        <edge-files value="input_edges.edg.xml"/>
    </input>

    <output>
        <write-license value="true"/>
        <output-file value="net.net.xml"/>
    </output>

    <ramp_guessing>
        <ramps.guess value="true"/>
    </ramp_guessing>

    <edge_removal>
        <keep-edges.explicit value="s1,s2,s3,s4,on,off"/>
    </edge_removal>

    <processing>
        <no-internal-links value="true"/>
    </processing>

    <report>
        <xml-validation value="never"/>
    </report>

</configuration>
-->

<net version="0.27" xmlns:xsi="http://www.w3.org/2001/XMLSchema-instance" xsi:noNamespaceSchemaLocation="http://sumo.dlr.de/xsd/net_file.xsd">

    <location netOffset="1000.00,0.00" convBoundary="0.00,0.00,2000.00,200.00" origBoundary="-1000.00,0.00,1000.00,200.00" projParameter="!"/>

    <edge id="off" from="2" to="2a" priority="-1" shape="500.00,11.20 200.00,200.00">
        <lane id="off_0" index="0" speed="30.00" length="358.47" shape="500.85,12.55 200.85,201.35"/>
    </edge>
    <edge id="on" from="4a" to="4" priority="-1" shape="1800.00,200.00 1500.00,11.20">
        <lane id="on_0" index="0" speed="30.00" length="358.47" shape="1799.15,201.35 1499.15,12.55"/>
    </edge>
    <edge id="s1" from="5" to="4" priority="-1">
        <lane id="s1_0" index="0" speed="30.00" length="509.06" shape="2000.00,8.00 1498.96,8.00"/>
        <lane id="s1_1" index="1" speed="30.00" length="509.06" shape="2000.00,4.80 1498.96,4.80"/>
        <lane id="s1_2" index="2" speed="30.00" length="509.06" shape="2000.00,1.60 1498.96,1.60"/>
    </edge>
    <edge id="s2" from="s2-AddedOnRampNode" to="3" priority="-1">
        <lane id="s2_0" index="0" speed="30.00" length="400.00" shape="1398.50,8.00 1000.00,8.00"/>
        <lane id="s2_1" index="1" speed="30.00" length="400.00" shape="1398.50,4.80 1000.00,4.80"/>
        <lane id="s2_2" index="2" speed="30.00" length="400.00" shape="1398.50,1.60 1000.00,1.60"/>
    </edge>
    <edge id="s2-AddedOnRampEdge" from="4" to="s2-AddedOnRampNode" priority="-1">
        <lane id="s2-AddedOnRampEdge_0" index="0" speed="30.00" length="103.39" acceleration="1" shape="1495.03,11.20 1401.50,11.20"/>
        <lane id="s2-AddedOnRampEdge_1" index="1" speed="30.00" length="103.39" shape="1495.03,8.00 1401.50,8.00"/>
        <lane id="s2-AddedOnRampEdge_2" index="2" speed="30.00" length="103.39" shape="1495.03,4.80 1401.50,4.80"/>
        <lane id="s2-AddedOnRampEdge_3" index="3" speed="30.00" length="103.39" shape="1495.03,1.60 1401.50,1.60"/>
    </edge>
    <edge id="s3" from="3" to="s3-AddedOffRampNode" priority="-1">
        <lane id="s3_0" index="0" speed="30.00" length="400.00" shape="1000.00,8.00 601.50,8.00"/>
        <lane id="s3_1" index="1" speed="30.00" length="400.00" shape="1000.00,4.80 601.50,4.80"/>
        <lane id="s3_2" index="2" speed="30.00" length="400.00" shape="1000.00,1.60 601.50,1.60"/>
    </edge>
    <edge id="s3-AddedOffRampEdge" from="s3-AddedOffRampNode" to="2" priority="-1">
        <lane id="s3-AddedOffRampEdge_0" index="0" speed="30.00" length="103.39" shape="598.50,11.20 504.97,11.20"/>
        <lane id="s3-AddedOffRampEdge_1" index="1" speed="30.00" length="103.39" shape="598.50,8.00 504.97,8.00"/>
        <lane id="s3-AddedOffRampEdge_2" index="2" speed="30.00" length="103.39" shape="598.50,4.80 504.97,4.80"/>
        <lane id="s3-AddedOffRampEdge_3" index="3" speed="30.00" length="103.39" shape="598.50,1.60 504.97,1.60"/>
    </edge>
    <edge id="s4" from="2" to="1" priority="-1">
        <lane id="s4_0" index="0" speed="30.00" length="509.06" shape="501.04,8.00 0.00,8.00"/>
        <lane id="s4_1" index="1" speed="30.00" length="509.06" shape="501.04,4.80 0.00,4.80"/>
        <lane id="s4_2" index="2" speed="30.00" length="509.06" shape="501.04,1.60 0.00,1.60"/>
    </edge>

    <junction id="1" type="dead_end" x="0.00" y="0.00" incLanes="s4_0 s4_1 s4_2" intLanes="" shape="0.00,9.60 0.00,0.00"/>
    <junction id="2" type="priority" x="500.00" y="0.00" incLanes="s3-AddedOffRampEdge_0 s3-AddedOffRampEdge_1 s3-AddedOffRampEdge_2 s3-AddedOffRampEdge_3" intLanes="" shape="504.97,12.80 504.97,0.00 501.04,0.00 501.04,9.60 500.00,11.20 501.70,13.91">
        <request index="0" response="0000" foes="0000"/>
        <request index="1" response="0000" foes="0000"/>
        <request index="2" response="0000" foes="0000"/>
        <request index="3" response="0000" foes="0000"/>
    </junction>
    <junction id="2a" type="dead_end" x="200.00" y="200.00" incLanes="off_0" intLanes="" shape="201.70,202.71 200.00,200.00"/>
    <junction id="3" type="priority" x="1000.00" y="0.00" incLanes="s2_0 s2_1 s2_2" intLanes="" shape="1000.00,9.60 1000.00,0.00 1000.00,9.60">
        <request index="0" response="000" foes="000"/>
        <request index="1" response="000" foes="000"/>
        <request index="2" response="000" foes="000"/>
    </junction>
    <junction id="4" type="priority" x="1500.00" y="0.00" incLanes="on_0 s1_0 s1_1 s1_2" intLanes="" shape="1498.30,13.91 1500.00,11.20 1498.96,9.60 1498.96,0.00 1495.03,0.00 1495.03,12.80">
        <request index="0" response="0000" foes="0000"/>
        <request index="1" response="0000" foes="0000"/>
        <request index="2" response="0000" foes="0000"/>
        <request index="3" response="0000" foes="0000"/>
    </junction>
    <junction id="4a" type="dead_end" x="1800.00" y="200.00" incLanes="" intLanes="" shape="1800.00,200.00 1798.30,202.71"/>
    <junction id="5" type="dead_end" x="2000.00" y="0.00" incLanes="" intLanes="" shape="2000.00,0.00 2000.00,9.60"/>
    <junction id="s2-AddedOnRampNode" type="priority" x="1400.00" y="0.00" incLanes="s2-AddedOnRampEdge_0 s2-AddedOnRampEdge_1 s2-AddedOnRampEdge_2 s2-AddedOnRampEdge_3" intLanes="" shape="1401.50,12.80 1401.50,0.00 1398.50,0.00 1398.50,9.60">
        <request index="0" response="000" foes="000"/>
        <request index="1" response="000" foes="000"/>
        <request index="2" response="000" foes="000"/>
    </junction>
    <junction id="s3-AddedOffRampNode" type="priority" x="600.00" y="0.00" incLanes="s3_0 s3_1 s3_2" intLanes="" shape="601.50,9.60 601.50,0.00 598.50,0.00 598.50,12.80">
        <request index="0" response="0000" foes="0000"/>
        <request index="1" response="0000" foes="0000"/>
        <request index="2" response="0000" foes="0000"/>
        <request index="3" response="0000" foes="0000"/>
    </junction>

    <connection from="on" to="s2-AddedOnRampEdge" fromLane="0" toLane="0" pass="1" dir="s" state="M"/>
    <connection from="s1" to="s2-AddedOnRampEdge" fromLane="0" toLane="1" pass="1" dir="s" state="M"/>
    <connection from="s1" to="s2-AddedOnRampEdge" fromLane="1" toLane="2" pass="1" dir="s" state="M"/>
    <connection from="s1" to="s2-AddedOnRampEdge" fromLane="2" toLane="3" pass="1" dir="s" state="M"/>
    <connection from="s2" to="s3" fromLane="0" toLane="0" dir="s" state="M"/>
    <connection from="s2" to="s3" fromLane="1" toLane="1" dir="s" state="M"/>
    <connection from="s2" to="s3" fromLane="2" toLane="2" dir="s" state="M"/>
    <connection from="s2-AddedOnRampEdge" to="s2" fromLane="1" toLane="0" dir="s" state="M"/>
    <connection from="s2-AddedOnRampEdge" to="s2" fromLane="2" toLane="1" dir="s" state="M"/>
    <connection from="s2-AddedOnRampEdge" to="s2" fromLane="3" toLane="2" dir="s" state="M"/>
    <connection from="s3" to="s3-AddedOffRampEdge" fromLane="0" toLane="0" dir="s" state="M"/>
    <connection from="s3" to="s3-AddedOffRampEdge" fromLane="0" toLane="1" dir="s" state="M"/>
    <connection from="s3" to="s3-AddedOffRampEdge" fromLane="1" toLane="2" dir="s" state="M"/>
    <connection from="s3" to="s3-AddedOffRampEdge" fromLane="2" toLane="3" dir="s" state="M"/>
    <connection from="s3-AddedOffRampEdge" to="off" fromLane="0" toLane="0" dir="R" state="M"/>
    <connection from="s3-AddedOffRampEdge" to="s4" fromLane="1" toLane="0" dir="s" state="M"/>
    <connection from="s3-AddedOffRampEdge" to="s4" fromLane="2" toLane="1" dir="s" state="M"/>
    <connection from="s3-AddedOffRampEdge" to="s4" fromLane="3" toLane="2" dir="s" state="M"/>

</net>
