<routes>
   <vehicle id="0" depart="0" period="0" repno="100">
      <route>beg middle1 middle2 end rend</route>
   </vehicle>
</routes>
