<?xml version="1.0" encoding="UTF-8"?>

<!-- generated on 11.03.2019 08:24:44 by Eclipse SUMO netedit Version v1_1_0+1177-ae4e665b46
<configuration xmlns:xsi="http://www.w3.org/2001/XMLSchema-instance" xsi:noNamespaceSchemaLocation="https://sumo.dlr.de/xsd/netconvertConfiguration.xsd">

    <input>
        <sumo-net-file value="C:/Users/alva_pa/.texttest/tmp/netedit.gui.11Mar081741.2404/netedit.gui/additionalElements/containerstop/inspect_selection/friendlypos\input_net.net.xml"/>
    </input>

    <output>
        <output-file value="C:/Users/alva_pa/.texttest/tmp/netedit.gui.11Mar081741.2404/netedit.gui/additionalElements/containerstop/inspect_selection/friendlypos\net.net.xml"/>
    </output>

    <processing>
        <geometry.max-grade.fix value="false"/>
        <offset.disable-normalization value="true"/>
        <lefthand value="false"/>
    </processing>

    <junctions>
        <no-turnarounds value="true"/>
        <junctions.corner-detail value="5"/>
        <junctions.limit-turn-speed value="5.5"/>
        <rectangular-lane-cut value="false"/>
    </junctions>

    <pedestrian>
        <walkingareas value="false"/>
    </pedestrian>

    <netedit>
        <additional-files value="C:/Users/alva_pa/.texttest/tmp/netedit.gui.11Mar081741.2404/netedit.gui/additionalElements/containerstop/inspect_selection/friendlypos\input_additionals.add.xml"/>
        <additionals-output value="C:/Users/alva_pa/.texttest/tmp/netedit.gui.11Mar081741.2404/netedit.gui/additionalElements/containerstop/inspect_selection/friendlypos\additionals.xml"/>
        <demandelements-output value="C:/Users/alva_pa/.texttest/tmp/netedit.gui.11Mar081741.2404/netedit.gui/additionalElements/containerstop/inspect_selection/friendlypos\routes.xml"/>
    </netedit>

    <visualisation>
        <gui-settings-file value="C:/Users/alva_pa/.texttest/tmp/netedit.gui.11Mar081741.2404/netedit.gui/additionalElements/containerstop/inspect_selection/friendlypos\gui-settings.xml"/>
        <window-size value="700,500"/>
        <window-pos value="50,50"/>
        <gui-testing value="true"/>
        <gui-testing-debug value="true"/>
    </visualisation>

    <report>
        <no-warnings value="true"/>
        <error-log value="C:/Users/alva_pa/.texttest/tmp/netedit.gui.11Mar081741.2404/netedit.gui/additionalElements/containerstop/inspect_selection/friendlypos\log.txt"/>
    </report>

</configuration>
-->

<additional xmlns:xsi="http://www.w3.org/2001/XMLSchema-instance" xsi:noNamespaceSchemaLocation="https://sumo.dlr.de/xsd/additional_file.xsd">
    <containerStop id="containerStopA" name="containerStop" lane="gneE0_0" friendlyPos="1" lines="line1 line2" startPos="5" endPos="10">
        <param key="KeyA1" value="valueA1"/>
        <param key="KeyA2" value="valueA3"/>
        <param key="KeyA3" value="valueA2"/>
    </containerStop>
    <containerStop id="containerStopB" name="containerStop" lane="gneE0_0" friendlyPos="1" lines="line3 line4" startPos="15" endPos="20">
        <param key="KeyB1" value="valueB1"/>
        <param key="KeyB2" value="valueB3"/>
        <param key="KeyB3" value="valueB2"/>
    </containerStop>
</additional>
