<flowdefs>

	<flow id="0" from="beg" begin="200" end="300" number="10"/>

</flowdefs>
