<?xml version="1.0" encoding="UTF-8"?>

<!-- generated on Tue May 15 23:48:17 2018 by Eclipse SUMO netgenerate Version 6ca354f
This data file and the accompanying materials
are made available under the terms of the Eclipse Public License v2.0
which accompanies this distribution, and is available at
http://www.eclipse.org/legal/epl-v20.html
SPDX-License-Identifier: EPL-2.0
<configuration xmlns:xsi="http://www.w3.org/2001/XMLSchema-instance" xsi:noNamespaceSchemaLocation="http://sumo.dlr.de/xsd/netgenerateConfiguration.xsd">

    <random_network>
        <rand value="true"/>
        <rand.iterations value="200"/>
        <rand.max-distance value="400"/>
        <rand.min-distance value="100"/>
        <rand.grid value="true"/>
    </random_network>

    <output>
        <write-license value="true"/>
        <output-file value="net.net.xml"/>
    </output>

    <report>
        <xml-validation value="never"/>
    </report>

</configuration>
-->

<net version="0.27" xmlns:xsi="http://www.w3.org/2001/XMLSchema-instance" xsi:noNamespaceSchemaLocation="http://sumo.dlr.de/xsd/net_file.xsd">

    <location netOffset="1900.00,1700.00" convBoundary="0.00,0.00,3200.00,4300.00" origBoundary="-1900.00,-1700.00,1300.00,2600.00" projParameter="!"/>

    <edge id=":1_0" function="internal">
        <lane id=":1_0_0" index="0" speed="13.90" length="5.00" shape="1898.40,1704.70 1898.21,1703.34 1897.63,1702.38 1896.66,1701.79 1895.30,1701.60"/>
    </edge>
    <edge id=":1_1" function="internal">
        <lane id=":1_1_0" index="0" speed="13.90" length="9.40" shape="1898.40,1704.70 1898.40,1695.30"/>
    </edge>
    <edge id=":1_2" function="internal">
        <lane id=":1_2_0" index="0" speed="13.90" length="5.08" shape="1898.40,1704.70 1898.79,1701.94 1899.98,1699.97"/>
    </edge>
    <edge id=":1_3" function="internal">
        <lane id=":1_3_0" index="0" speed="13.90" length="2.34" shape="1898.40,1704.70 1899.20,1703.50 1900.00,1703.10"/>
    </edge>
    <edge id=":1_16" function="internal">
        <lane id=":1_16_0" index="0" speed="13.90" length="5.08" shape="1899.98,1699.97 1901.94,1698.79 1904.70,1698.40"/>
    </edge>
    <edge id=":1_17" function="internal">
        <lane id=":1_17_0" index="0" speed="13.90" length="2.34" shape="1900.00,1703.10 1900.80,1703.50 1901.60,1704.70"/>
    </edge>
    <edge id=":1_4" function="internal">
        <lane id=":1_4_0" index="0" speed="13.90" length="5.00" shape="1904.70,1701.60 1903.34,1701.79 1902.38,1702.37 1901.79,1703.34 1901.60,1704.70"/>
    </edge>
    <edge id=":1_5" function="internal">
        <lane id=":1_5_0" index="0" speed="13.90" length="9.40" shape="1904.70,1701.60 1895.30,1701.60"/>
    </edge>
    <edge id=":1_6" function="internal">
        <lane id=":1_6_0" index="0" speed="13.90" length="10.16" shape="1904.70,1701.60 1901.94,1701.21 1899.97,1700.02 1898.79,1698.06 1898.40,1695.30"/>
    </edge>
    <edge id=":1_7" function="internal">
        <lane id=":1_7_0" index="0" speed="13.90" length="4.67" shape="1904.70,1701.60 1903.50,1700.80 1903.10,1700.00 1903.50,1699.20 1904.70,1698.40"/>
    </edge>
    <edge id=":1_8" function="internal">
        <lane id=":1_8_0" index="0" speed="13.90" length="5.00" shape="1901.60,1695.30 1901.79,1696.66 1902.37,1697.62 1903.34,1698.21 1904.70,1698.40"/>
    </edge>
    <edge id=":1_9" function="internal">
        <lane id=":1_9_0" index="0" speed="13.90" length="9.40" shape="1901.60,1695.30 1901.60,1704.70"/>
    </edge>
    <edge id=":1_10" function="internal">
        <lane id=":1_10_0" index="0" speed="13.90" length="5.08" shape="1901.60,1695.30 1901.21,1698.06 1900.02,1700.03"/>
    </edge>
    <edge id=":1_11" function="internal">
        <lane id=":1_11_0" index="0" speed="13.90" length="2.34" shape="1901.60,1695.30 1900.80,1696.50 1900.00,1696.90"/>
    </edge>
    <edge id=":1_18" function="internal">
        <lane id=":1_18_0" index="0" speed="13.90" length="5.08" shape="1900.02,1700.03 1898.06,1701.21 1895.30,1701.60"/>
    </edge>
    <edge id=":1_19" function="internal">
        <lane id=":1_19_0" index="0" speed="13.90" length="2.34" shape="1900.00,1696.90 1899.20,1696.50 1898.40,1695.30"/>
    </edge>
    <edge id=":1_12" function="internal">
        <lane id=":1_12_0" index="0" speed="13.90" length="5.00" shape="1895.30,1698.40 1896.66,1698.21 1897.62,1697.63 1898.21,1696.66 1898.40,1695.30"/>
    </edge>
    <edge id=":1_13" function="internal">
        <lane id=":1_13_0" index="0" speed="13.90" length="9.40" shape="1895.30,1698.40 1904.70,1698.40"/>
    </edge>
    <edge id=":1_14" function="internal">
        <lane id=":1_14_0" index="0" speed="13.90" length="10.16" shape="1895.30,1698.40 1898.06,1698.79 1900.03,1699.98 1901.21,1701.94 1901.60,1704.70"/>
    </edge>
    <edge id=":1_15" function="internal">
        <lane id=":1_15_0" index="0" speed="13.90" length="4.67" shape="1895.30,1698.40 1896.50,1699.20 1896.90,1700.00 1896.50,1700.80 1895.30,1701.60"/>
    </edge>
    <edge id=":10_0" function="internal">
        <lane id=":10_0_0" index="0" speed="13.90" length="9.40" shape="1804.70,1701.60 1795.30,1701.60"/>
    </edge>
    <edge id=":10_1" function="internal">
        <lane id=":10_1_0" index="0" speed="13.90" length="5.08" shape="1804.70,1701.60 1801.94,1701.21 1799.97,1700.02"/>
    </edge>
    <edge id=":10_2" function="internal">
        <lane id=":10_2_0" index="0" speed="13.90" length="2.34" shape="1804.70,1701.60 1803.50,1700.80 1803.10,1700.00"/>
    </edge>
    <edge id=":10_9" function="internal">
        <lane id=":10_9_0" index="0" speed="13.90" length="5.08" shape="1799.97,1700.02 1798.79,1698.06 1798.40,1695.30"/>
    </edge>
    <edge id=":10_10" function="internal">
        <lane id=":10_10_0" index="0" speed="13.90" length="2.34" shape="1803.10,1700.00 1803.50,1699.20 1804.70,1698.40"/>
    </edge>
    <edge id=":10_3" function="internal">
        <lane id=":10_3_0" index="0" speed="13.90" length="5.00" shape="1801.60,1695.30 1801.79,1696.66 1802.37,1697.62 1803.34,1698.21 1804.70,1698.40"/>
    </edge>
    <edge id=":10_4" function="internal">
        <lane id=":10_4_0" index="0" speed="13.90" length="10.16" shape="1801.60,1695.30 1801.21,1698.06 1800.02,1700.03 1798.06,1701.21 1795.30,1701.60"/>
    </edge>
    <edge id=":10_5" function="internal">
        <lane id=":10_5_0" index="0" speed="13.90" length="4.67" shape="1801.60,1695.30 1800.80,1696.50 1800.00,1696.90 1799.20,1696.50 1798.40,1695.30"/>
    </edge>
    <edge id=":10_6" function="internal">
        <lane id=":10_6_0" index="0" speed="13.90" length="5.00" shape="1795.30,1698.40 1796.66,1698.21 1797.62,1697.63 1798.21,1696.66 1798.40,1695.30"/>
    </edge>
    <edge id=":10_7" function="internal">
        <lane id=":10_7_0" index="0" speed="13.90" length="9.40" shape="1795.30,1698.40 1804.70,1698.40"/>
    </edge>
    <edge id=":10_8" function="internal">
        <lane id=":10_8_0" index="0" speed="13.90" length="2.34" shape="1795.30,1698.40 1796.50,1699.20 1796.90,1700.00"/>
    </edge>
    <edge id=":10_11" function="internal">
        <lane id=":10_11_0" index="0" speed="13.90" length="2.34" shape="1796.90,1700.00 1796.50,1700.80 1795.30,1701.60"/>
    </edge>
    <edge id=":100_0" function="internal">
        <lane id=":100_0_0" index="0" speed="13.90" length="10.69" shape="1598.40,1603.21 1598.40,1592.52"/>
    </edge>
    <edge id=":100_1" function="internal">
        <lane id=":100_1_0" index="0" speed="13.90" length="4.36" shape="1598.40,1603.21 1598.83,1601.14 1600.00,1599.23"/>
    </edge>
    <edge id=":100_2" function="internal">
        <lane id=":100_2_0" index="0" speed="13.90" length="2.34" shape="1598.40,1603.21 1599.20,1602.01 1600.00,1601.61"/>
    </edge>
    <edge id=":100_9" function="internal">
        <lane id=":100_9_0" index="0" speed="13.90" length="7.15" shape="1600.00,1599.23 1600.13,1599.00 1602.30,1596.80 1605.34,1594.52"/>
    </edge>
    <edge id=":100_10" function="internal">
        <lane id=":100_10_0" index="0" speed="13.90" length="2.34" shape="1600.00,1601.61 1600.80,1602.01 1601.60,1603.21"/>
    </edge>
    <edge id=":100_3" function="internal">
        <lane id=":100_3_0" index="0" speed="13.90" length="8.39" shape="1607.11,1597.18 1604.70,1598.94 1602.98,1600.53 1601.94,1601.95 1601.60,1603.21"/>
    </edge>
    <edge id=":100_4" function="internal">
        <lane id=":100_4_0" index="0" speed="13.90" length="13.96" shape="1607.11,1597.18 1603.30,1599.07 1600.58,1598.92 1598.94,1596.74 1598.40,1592.52"/>
    </edge>
    <edge id=":100_5" function="internal">
        <lane id=":100_5_0" index="0" speed="13.90" length="4.67" shape="1607.11,1597.18 1605.67,1597.18 1604.89,1596.74 1604.78,1595.85 1605.34,1594.52"/>
    </edge>
    <edge id=":100_6" function="internal">
        <lane id=":100_6_0" index="0" speed="13.90" length="5.99" shape="1601.60,1592.52 1601.83,1594.33 1602.53,1595.27 1603.70,1595.33 1605.34,1594.52"/>
    </edge>
    <edge id=":100_7" function="internal">
        <lane id=":100_7_0" index="0" speed="13.90" length="10.69" shape="1601.60,1592.52 1601.60,1603.21"/>
    </edge>
    <edge id=":100_8" function="internal">
        <lane id=":100_8_0" index="0" speed="13.90" length="2.34" shape="1601.60,1592.52 1600.80,1593.72 1600.00,1594.12"/>
    </edge>
    <edge id=":100_11" function="internal">
        <lane id=":100_11_0" index="0" speed="13.90" length="2.34" shape="1600.00,1594.12 1599.20,1593.72 1598.40,1592.52"/>
    </edge>
    <edge id=":1041_0" function="internal">
        <lane id=":1041_0_0" index="0" speed="13.90" length="5.00" shape="1898.40,3104.70 1898.21,3103.34 1897.63,3102.38 1896.66,3101.79 1895.30,3101.60"/>
    </edge>
    <edge id=":1041_1" function="internal">
        <lane id=":1041_1_0" index="0" speed="13.90" length="9.40" shape="1898.40,3104.70 1898.40,3095.30"/>
    </edge>
    <edge id=":1041_2" function="internal">
        <lane id=":1041_2_0" index="0" speed="13.90" length="2.34" shape="1898.40,3104.70 1899.20,3103.50 1900.00,3103.10"/>
    </edge>
    <edge id=":1041_9" function="internal">
        <lane id=":1041_9_0" index="0" speed="13.90" length="2.34" shape="1900.00,3103.10 1900.80,3103.50 1901.60,3104.70"/>
    </edge>
    <edge id=":1041_3" function="internal">
        <lane id=":1041_3_0" index="0" speed="13.90" length="9.40" shape="1901.60,3095.30 1901.60,3104.70"/>
    </edge>
    <edge id=":1041_4" function="internal">
        <lane id=":1041_4_0" index="0" speed="13.90" length="5.08" shape="1901.60,3095.30 1901.21,3098.06 1900.02,3100.03"/>
    </edge>
    <edge id=":1041_5" function="internal">
        <lane id=":1041_5_0" index="0" speed="13.90" length="2.34" shape="1901.60,3095.30 1900.80,3096.50 1900.00,3096.90"/>
    </edge>
    <edge id=":1041_10" function="internal">
        <lane id=":1041_10_0" index="0" speed="13.90" length="5.08" shape="1900.02,3100.03 1898.06,3101.21 1895.30,3101.60"/>
    </edge>
    <edge id=":1041_11" function="internal">
        <lane id=":1041_11_0" index="0" speed="13.90" length="2.34" shape="1900.00,3096.90 1899.20,3096.50 1898.40,3095.30"/>
    </edge>
    <edge id=":1041_6" function="internal">
        <lane id=":1041_6_0" index="0" speed="13.90" length="5.00" shape="1895.30,3098.40 1896.66,3098.21 1897.62,3097.62 1898.21,3096.66 1898.40,3095.30"/>
    </edge>
    <edge id=":1041_7" function="internal">
        <lane id=":1041_7_0" index="0" speed="13.90" length="10.16" shape="1895.30,3098.40 1898.06,3098.79 1900.03,3099.98 1901.21,3101.94 1901.60,3104.70"/>
    </edge>
    <edge id=":1041_8" function="internal">
        <lane id=":1041_8_0" index="0" speed="13.90" length="4.67" shape="1895.30,3098.40 1896.50,3099.20 1896.90,3100.00 1896.50,3100.80 1895.30,3101.60"/>
    </edge>
    <edge id=":1051_0" function="internal">
        <lane id=":1051_0_0" index="0" speed="13.90" length="9.74" shape="2200.11,695.28 2200.62,698.05 2200.03,700.02 2198.34,701.21 2195.56,701.60"/>
    </edge>
    <edge id=":1051_1" function="internal">
        <lane id=":1051_1_0" index="0" speed="13.90" length="2.56" shape="2200.11,695.28 2199.73,696.67 2199.10,697.31 2198.88,697.27"/>
    </edge>
    <edge id=":1051_4" function="internal">
        <lane id=":1051_4_0" index="0" speed="13.90" length="2.12" shape="2198.88,697.27 2198.22,697.18 2197.08,696.29"/>
    </edge>
    <edge id=":1051_2" function="internal">
        <lane id=":1051_2_0" index="0" speed="13.90" length="3.25" shape="2195.56,698.40 2196.49,698.27 2197.05,697.87 2197.25,697.22 2197.08,696.29"/>
    </edge>
    <edge id=":1051_3" function="internal">
        <lane id=":1051_3_0" index="0" speed="13.90" length="2.08" shape="2195.56,698.40 2196.76,699.20 2197.05,699.77"/>
    </edge>
    <edge id=":1051_5" function="internal">
        <lane id=":1051_5_0" index="0" speed="13.90" length="2.59" shape="2197.05,699.77 2197.16,700.00 2196.76,700.80 2195.56,701.60"/>
    </edge>
    <edge id=":1058_0" function="internal">
        <lane id=":1058_0_0" index="0" speed="13.90" length="5.00" shape="1498.40,3104.70 1498.21,3103.34 1497.63,3102.38 1496.66,3101.79 1495.30,3101.60"/>
    </edge>
    <edge id=":1058_1" function="internal">
        <lane id=":1058_1_0" index="0" speed="13.90" length="9.40" shape="1498.40,3104.70 1498.40,3095.30"/>
    </edge>
    <edge id=":1058_2" function="internal">
        <lane id=":1058_2_0" index="0" speed="13.90" length="5.08" shape="1498.40,3104.70 1498.79,3101.94 1499.98,3099.97"/>
    </edge>
    <edge id=":1058_3" function="internal">
        <lane id=":1058_3_0" index="0" speed="13.90" length="2.34" shape="1498.40,3104.70 1499.20,3103.50 1500.00,3103.10"/>
    </edge>
    <edge id=":1058_16" function="internal">
        <lane id=":1058_16_0" index="0" speed="13.90" length="5.08" shape="1499.98,3099.97 1501.94,3098.79 1504.70,3098.40"/>
    </edge>
    <edge id=":1058_17" function="internal">
        <lane id=":1058_17_0" index="0" speed="13.90" length="2.34" shape="1500.00,3103.10 1500.80,3103.50 1501.60,3104.70"/>
    </edge>
    <edge id=":1058_4" function="internal">
        <lane id=":1058_4_0" index="0" speed="13.90" length="5.00" shape="1504.70,3101.60 1503.34,3101.79 1502.38,3102.38 1501.79,3103.34 1501.60,3104.70"/>
    </edge>
    <edge id=":1058_5" function="internal">
        <lane id=":1058_5_0" index="0" speed="13.90" length="9.40" shape="1504.70,3101.60 1495.30,3101.60"/>
    </edge>
    <edge id=":1058_6" function="internal">
        <lane id=":1058_6_0" index="0" speed="13.90" length="10.16" shape="1504.70,3101.60 1501.94,3101.21 1499.97,3100.02 1498.79,3098.06 1498.40,3095.30"/>
    </edge>
    <edge id=":1058_7" function="internal">
        <lane id=":1058_7_0" index="0" speed="13.90" length="4.67" shape="1504.70,3101.60 1503.50,3100.80 1503.10,3100.00 1503.50,3099.20 1504.70,3098.40"/>
    </edge>
    <edge id=":1058_8" function="internal">
        <lane id=":1058_8_0" index="0" speed="13.90" length="5.00" shape="1501.60,3095.30 1501.79,3096.66 1502.37,3097.62 1503.34,3098.21 1504.70,3098.40"/>
    </edge>
    <edge id=":1058_9" function="internal">
        <lane id=":1058_9_0" index="0" speed="13.90" length="9.40" shape="1501.60,3095.30 1501.60,3104.70"/>
    </edge>
    <edge id=":1058_10" function="internal">
        <lane id=":1058_10_0" index="0" speed="13.90" length="5.08" shape="1501.60,3095.30 1501.21,3098.06 1500.02,3100.03"/>
    </edge>
    <edge id=":1058_11" function="internal">
        <lane id=":1058_11_0" index="0" speed="13.90" length="2.34" shape="1501.60,3095.30 1500.80,3096.50 1500.00,3096.90"/>
    </edge>
    <edge id=":1058_18" function="internal">
        <lane id=":1058_18_0" index="0" speed="13.90" length="5.08" shape="1500.02,3100.03 1498.06,3101.21 1495.30,3101.60"/>
    </edge>
    <edge id=":1058_19" function="internal">
        <lane id=":1058_19_0" index="0" speed="13.90" length="2.34" shape="1500.00,3096.90 1499.20,3096.50 1498.40,3095.30"/>
    </edge>
    <edge id=":1058_12" function="internal">
        <lane id=":1058_12_0" index="0" speed="13.90" length="5.00" shape="1495.30,3098.40 1496.66,3098.21 1497.62,3097.62 1498.21,3096.66 1498.40,3095.30"/>
    </edge>
    <edge id=":1058_13" function="internal">
        <lane id=":1058_13_0" index="0" speed="13.90" length="9.40" shape="1495.30,3098.40 1504.70,3098.40"/>
    </edge>
    <edge id=":1058_14" function="internal">
        <lane id=":1058_14_0" index="0" speed="13.90" length="10.16" shape="1495.30,3098.40 1498.06,3098.79 1500.03,3099.98 1501.21,3101.94 1501.60,3104.70"/>
    </edge>
    <edge id=":1058_15" function="internal">
        <lane id=":1058_15_0" index="0" speed="13.90" length="4.67" shape="1495.30,3098.40 1496.50,3099.20 1496.90,3100.00 1496.50,3100.80 1495.30,3101.60"/>
    </edge>
    <edge id=":1064_0" function="internal">
        <lane id=":1064_0_0" index="0" speed="13.90" length="5.00" shape="1898.40,3304.70 1898.21,3303.34 1897.63,3302.38 1896.66,3301.79 1895.30,3301.60"/>
    </edge>
    <edge id=":1064_1" function="internal">
        <lane id=":1064_1_0" index="0" speed="13.90" length="9.40" shape="1898.40,3304.70 1898.40,3295.30"/>
    </edge>
    <edge id=":1064_2" function="internal">
        <lane id=":1064_2_0" index="0" speed="13.90" length="10.16" shape="1898.40,3304.70 1898.79,3301.94 1899.98,3299.97 1901.94,3298.79 1904.70,3298.40"/>
    </edge>
    <edge id=":1064_3" function="internal">
        <lane id=":1064_3_0" index="0" speed="13.90" length="4.67" shape="1898.40,3304.70 1899.20,3303.50 1900.00,3303.10 1900.80,3303.50 1901.60,3304.70"/>
    </edge>
    <edge id=":1064_4" function="internal">
        <lane id=":1064_4_0" index="0" speed="13.90" length="5.00" shape="1904.70,3301.60 1903.34,3301.79 1902.38,3302.38 1901.79,3303.34 1901.60,3304.70"/>
    </edge>
    <edge id=":1064_5" function="internal">
        <lane id=":1064_5_0" index="0" speed="13.90" length="9.40" shape="1904.70,3301.60 1895.30,3301.60"/>
    </edge>
    <edge id=":1064_6" function="internal">
        <lane id=":1064_6_0" index="0" speed="13.90" length="5.08" shape="1904.70,3301.60 1901.94,3301.21 1899.97,3300.02"/>
    </edge>
    <edge id=":1064_7" function="internal">
        <lane id=":1064_7_0" index="0" speed="13.90" length="2.34" shape="1904.70,3301.60 1903.50,3300.80 1903.10,3300.00"/>
    </edge>
    <edge id=":1064_16" function="internal">
        <lane id=":1064_16_0" index="0" speed="13.90" length="5.08" shape="1899.97,3300.02 1898.79,3298.06 1898.40,3295.30"/>
    </edge>
    <edge id=":1064_17" function="internal">
        <lane id=":1064_17_0" index="0" speed="13.90" length="2.34" shape="1903.10,3300.00 1903.50,3299.20 1904.70,3298.40"/>
    </edge>
    <edge id=":1064_8" function="internal">
        <lane id=":1064_8_0" index="0" speed="13.90" length="5.00" shape="1901.60,3295.30 1901.79,3296.66 1902.37,3297.62 1903.34,3298.21 1904.70,3298.40"/>
    </edge>
    <edge id=":1064_9" function="internal">
        <lane id=":1064_9_0" index="0" speed="13.90" length="9.40" shape="1901.60,3295.30 1901.60,3304.70"/>
    </edge>
    <edge id=":1064_10" function="internal">
        <lane id=":1064_10_0" index="0" speed="13.90" length="10.16" shape="1901.60,3295.30 1901.21,3298.06 1900.02,3300.03 1898.06,3301.21 1895.30,3301.60"/>
    </edge>
    <edge id=":1064_11" function="internal">
        <lane id=":1064_11_0" index="0" speed="13.90" length="4.67" shape="1901.60,3295.30 1900.80,3296.50 1900.00,3296.90 1899.20,3296.50 1898.40,3295.30"/>
    </edge>
    <edge id=":1064_12" function="internal">
        <lane id=":1064_12_0" index="0" speed="13.90" length="5.00" shape="1895.30,3298.40 1896.66,3298.21 1897.62,3297.62 1898.21,3296.66 1898.40,3295.30"/>
    </edge>
    <edge id=":1064_13" function="internal">
        <lane id=":1064_13_0" index="0" speed="13.90" length="9.40" shape="1895.30,3298.40 1904.70,3298.40"/>
    </edge>
    <edge id=":1064_14" function="internal">
        <lane id=":1064_14_0" index="0" speed="13.90" length="5.08" shape="1895.30,3298.40 1898.06,3298.79 1900.03,3299.98"/>
    </edge>
    <edge id=":1064_15" function="internal">
        <lane id=":1064_15_0" index="0" speed="13.90" length="2.34" shape="1895.30,3298.40 1896.50,3299.20 1896.90,3300.00"/>
    </edge>
    <edge id=":1064_18" function="internal">
        <lane id=":1064_18_0" index="0" speed="13.90" length="5.08" shape="1900.03,3299.98 1901.21,3301.94 1901.60,3304.70"/>
    </edge>
    <edge id=":1064_19" function="internal">
        <lane id=":1064_19_0" index="0" speed="13.90" length="2.34" shape="1896.90,3300.00 1896.50,3300.80 1895.30,3301.60"/>
    </edge>
    <edge id=":1077_0" function="internal">
        <lane id=":1077_0_0" index="0" speed="13.90" length="12.05" shape="1498.40,3209.23 1498.40,3197.17"/>
    </edge>
    <edge id=":1077_1" function="internal">
        <lane id=":1077_1_0" index="0" speed="13.90" length="6.90" shape="1498.40,3209.23 1498.98,3204.08 1500.00,3202.69"/>
    </edge>
    <edge id=":1077_2" function="internal">
        <lane id=":1077_2_0" index="0" speed="13.90" length="2.34" shape="1498.40,3209.23 1499.20,3208.03 1500.00,3207.63"/>
    </edge>
    <edge id=":1077_9" function="internal">
        <lane id=":1077_9_0" index="0" speed="13.90" length="9.31" shape="1500.00,3202.69 1500.71,3201.72 1503.61,3202.16 1507.65,3205.39"/>
    </edge>
    <edge id=":1077_10" function="internal">
        <lane id=":1077_10_0" index="0" speed="13.90" length="2.34" shape="1500.00,3207.63 1500.80,3208.03 1501.60,3209.23"/>
    </edge>
    <edge id=":1077_3" function="internal">
        <lane id=":1077_3_0" index="0" speed="13.90" length="6.64" shape="1505.39,3207.65 1503.73,3206.33 1502.55,3206.15 1501.84,3207.12 1501.60,3209.23"/>
    </edge>
    <edge id=":1077_4" function="internal">
        <lane id=":1077_4_0" index="0" speed="13.90" length="12.81" shape="1505.39,3207.65 1502.33,3204.38 1500.15,3201.54 1498.84,3199.14 1498.40,3197.17"/>
    </edge>
    <edge id=":1077_5" function="internal">
        <lane id=":1077_5_0" index="0" speed="13.90" length="4.67" shape="1505.39,3207.65 1505.11,3206.24 1505.39,3205.39 1506.24,3205.11 1507.65,3205.39"/>
    </edge>
    <edge id=":1077_6" function="internal">
        <lane id=":1077_6_0" index="0" speed="13.90" length="10.33" shape="1501.60,3197.17 1501.98,3198.50 1503.11,3200.31 1505.01,3202.61 1507.65,3205.39"/>
    </edge>
    <edge id=":1077_7" function="internal">
        <lane id=":1077_7_0" index="0" speed="13.90" length="12.05" shape="1501.60,3197.17 1501.60,3209.23"/>
    </edge>
    <edge id=":1077_8" function="internal">
        <lane id=":1077_8_0" index="0" speed="13.90" length="2.34" shape="1501.60,3197.17 1500.80,3198.37 1500.00,3198.77"/>
    </edge>
    <edge id=":1077_11" function="internal">
        <lane id=":1077_11_0" index="0" speed="13.90" length="2.34" shape="1500.00,3198.77 1499.20,3198.37 1498.40,3197.17"/>
    </edge>
    <edge id=":1081_0" function="internal">
        <lane id=":1081_0_0" index="0" speed="13.90" length="0.10" shape="1498.40,3000.00 1498.40,3000.00"/>
    </edge>
    <edge id=":1081_1" function="internal">
        <lane id=":1081_1_0" index="0" speed="13.90" length="2.34" shape="1498.40,3000.00 1499.20,2998.80 1500.00,2998.40"/>
    </edge>
    <edge id=":1081_4" function="internal">
        <lane id=":1081_4_0" index="0" speed="13.90" length="2.34" shape="1500.00,2998.40 1500.80,2998.80 1501.60,3000.00"/>
    </edge>
    <edge id=":1081_2" function="internal">
        <lane id=":1081_2_0" index="0" speed="13.90" length="0.10" shape="1501.60,3000.00 1501.60,3000.00"/>
    </edge>
    <edge id=":1081_3" function="internal">
        <lane id=":1081_3_0" index="0" speed="13.90" length="2.34" shape="1501.60,3000.00 1500.80,3001.20 1500.00,3001.60"/>
    </edge>
    <edge id=":1081_5" function="internal">
        <lane id=":1081_5_0" index="0" speed="13.90" length="2.34" shape="1500.00,3001.60 1499.20,3001.20 1498.40,3000.00"/>
    </edge>
    <edge id=":1085_0" function="internal">
        <lane id=":1085_0_0" index="0" speed="13.90" length="7.38" shape="1198.40,3104.70 1198.03,3103.34 1196.93,3102.38 1195.09,3101.79 1192.52,3101.60"/>
    </edge>
    <edge id=":1085_1" function="internal">
        <lane id=":1085_1_0" index="0" speed="13.90" length="11.01" shape="1198.40,3104.70 1198.18,3101.61 1197.50,3099.37 1196.30,3097.28 1194.52,3094.66"/>
    </edge>
    <edge id=":1085_2" function="internal">
        <lane id=":1085_2_0" index="0" speed="13.90" length="10.16" shape="1198.40,3104.70 1198.79,3101.94 1199.97,3099.97 1201.94,3098.79 1204.70,3098.40"/>
    </edge>
    <edge id=":1085_3" function="internal">
        <lane id=":1085_3_0" index="0" speed="13.90" length="4.67" shape="1198.40,3104.70 1199.20,3103.50 1200.00,3103.10 1200.80,3103.50 1201.60,3104.70"/>
    </edge>
    <edge id=":1085_4" function="internal">
        <lane id=":1085_4_0" index="0" speed="13.90" length="5.00" shape="1204.70,3101.60 1203.34,3101.79 1202.38,3102.38 1201.79,3103.34 1201.60,3104.70"/>
    </edge>
    <edge id=":1085_5" function="internal">
        <lane id=":1085_5_0" index="0" speed="13.90" length="12.18" shape="1204.70,3101.60 1192.52,3101.60"/>
    </edge>
    <edge id=":1085_6" function="internal">
        <lane id=":1085_6_0" index="0" speed="13.90" length="5.36" shape="1204.70,3101.60 1201.98,3101.17 1199.64,3100.00"/>
    </edge>
    <edge id=":1085_7" function="internal">
        <lane id=":1085_7_0" index="0" speed="13.90" length="2.34" shape="1204.70,3101.60 1203.50,3100.80 1203.10,3100.00"/>
    </edge>
    <edge id=":1085_16" function="internal">
        <lane id=":1085_16_0" index="0" speed="13.90" length="7.45" shape="1199.64,3100.00 1199.38,3099.87 1196.89,3097.70 1194.52,3094.66"/>
    </edge>
    <edge id=":1085_17" function="internal">
        <lane id=":1085_17_0" index="0" speed="13.90" length="2.34" shape="1203.10,3100.00 1203.50,3099.20 1204.70,3098.40"/>
    </edge>
    <edge id=":1085_8" function="internal">
        <lane id=":1085_8_0" index="0" speed="13.90" length="9.67" shape="1197.18,3092.89 1199.03,3095.30 1200.90,3097.02 1202.79,3098.06 1204.70,3098.40"/>
    </edge>
    <edge id=":1085_9" function="internal">
        <lane id=":1085_9_0" index="0" speed="13.90" length="12.84" shape="1197.18,3092.89 1199.04,3095.79 1200.43,3098.48 1201.30,3101.33 1201.60,3104.70"/>
    </edge>
    <edge id=":1085_10" function="internal">
        <lane id=":1085_10_0" index="0" speed="13.90" length="13.96" shape="1197.18,3092.89 1199.07,3096.70 1198.92,3099.42 1196.74,3101.06 1192.52,3101.60"/>
    </edge>
    <edge id=":1085_11" function="internal">
        <lane id=":1085_11_0" index="0" speed="13.90" length="4.67" shape="1197.18,3092.89 1197.18,3094.33 1196.74,3095.11 1195.85,3095.22 1194.52,3094.66"/>
    </edge>
    <edge id=":1085_12" function="internal">
        <lane id=":1085_12_0" index="0" speed="13.90" length="5.99" shape="1192.52,3098.40 1194.33,3098.17 1195.27,3097.47 1195.33,3096.30 1194.52,3094.66"/>
    </edge>
    <edge id=":1085_13" function="internal">
        <lane id=":1085_13_0" index="0" speed="13.90" length="12.18" shape="1192.52,3098.40 1204.70,3098.40"/>
    </edge>
    <edge id=":1085_14" function="internal">
        <lane id=":1085_14_0" index="0" speed="13.90" length="7.06" shape="1192.52,3098.40 1196.49,3098.79 1199.33,3099.98"/>
    </edge>
    <edge id=":1085_15" function="internal">
        <lane id=":1085_15_0" index="0" speed="13.90" length="2.34" shape="1192.52,3098.40 1193.72,3099.20 1194.12,3100.00"/>
    </edge>
    <edge id=":1085_18" function="internal">
        <lane id=":1085_18_0" index="0" speed="13.90" length="5.42" shape="1199.33,3099.98 1201.03,3101.94 1201.60,3104.70"/>
    </edge>
    <edge id=":1085_19" function="internal">
        <lane id=":1085_19_0" index="0" speed="13.90" length="2.34" shape="1194.12,3100.00 1193.72,3100.80 1192.52,3101.60"/>
    </edge>
    <edge id=":1091_0" function="internal">
        <lane id=":1091_0_0" index="0" speed="13.90" length="5.90" shape="1598.40,3304.70 1598.30,3302.84 1598.02,3301.29 1597.54,3300.05 1596.87,3299.13"/>
    </edge>
    <edge id=":1091_1" function="internal">
        <lane id=":1091_1_0" index="0" speed="13.90" length="4.16" shape="1598.40,3304.70 1598.79,3301.94 1599.50,3300.77"/>
    </edge>
    <edge id=":1091_2" function="internal">
        <lane id=":1091_2_0" index="0" speed="13.90" length="2.23" shape="1598.40,3304.70 1599.20,3303.50 1599.90,3303.15"/>
    </edge>
    <edge id=":1091_9" function="internal">
        <lane id=":1091_9_0" index="0" speed="13.90" length="6.00" shape="1599.50,3300.77 1599.98,3299.97 1601.94,3298.79 1604.70,3298.40"/>
    </edge>
    <edge id=":1091_10" function="internal">
        <lane id=":1091_10_0" index="0" speed="13.90" length="2.45" shape="1599.90,3303.15 1600.00,3303.10 1600.80,3303.50 1601.60,3304.70"/>
    </edge>
    <edge id=":1091_3" function="internal">
        <lane id=":1091_3_0" index="0" speed="13.90" length="5.00" shape="1604.70,3301.60 1603.34,3301.79 1602.38,3302.38 1601.79,3303.34 1601.60,3304.70"/>
    </edge>
    <edge id=":1091_4" function="internal">
        <lane id=":1091_4_0" index="0" speed="13.90" length="8.41" shape="1604.70,3301.60 1602.20,3301.45 1600.06,3300.98 1598.28,3300.21 1596.87,3299.13"/>
    </edge>
    <edge id=":1091_5" function="internal">
        <lane id=":1091_5_0" index="0" speed="13.90" length="4.67" shape="1604.70,3301.60 1603.50,3300.80 1603.10,3300.00 1603.50,3299.20 1604.70,3298.40"/>
    </edge>
    <edge id=":1091_6" function="internal">
        <lane id=":1091_6_0" index="0" speed="13.90" length="5.90" shape="1599.13,3296.87 1600.05,3297.54 1601.29,3298.02 1602.84,3298.30 1604.70,3298.40"/>
    </edge>
    <edge id=":1091_7" function="internal">
        <lane id=":1091_7_0" index="0" speed="13.90" length="8.41" shape="1599.13,3296.87 1600.21,3298.28 1600.98,3300.06 1601.45,3302.20 1601.60,3304.70"/>
    </edge>
    <edge id=":1091_8" function="internal">