<?xml version="1.0" encoding="UTF-8"?>

<!-- generated on 2021-06-24 10:44:55 by Eclipse SUMO netedit Version v1_9_2+0644-f4a64959a8
<configuration xmlns:xsi="http://www.w3.org/2001/XMLSchema-instance" xsi:noNamespaceSchemaLocation="http://sumo.dlr.de/xsd/netconvertConfiguration.xsd">

    <input>
        <sumo-net-file value="C:\Users\alva_pa\.texttest\tmp\netedit.gui.24Jun103459.15536\netedit.gui\shapeElements\poigeo\inspect_selected\angle\input_net.net.xml"/>
    </input>

    <output>
        <output-file value="C:\Users\alva_pa\.texttest\tmp\netedit.gui.24Jun103459.15536\netedit.gui\shapeElements\poigeo\inspect_selected\angle\net.net.xml"/>
    </output>

    <processing>
        <geometry.min-radius.fix.railways value="false"/>
        <geometry.max-grade.fix value="false"/>
        <offset.disable-normalization value="true"/>
        <lefthand value="false"/>
    </processing>

    <junctions>
        <no-turnarounds value="true"/>
        <junctions.corner-detail value="5"/>
        <junctions.limit-turn-speed value="5.5"/>
        <rectangular-lane-cut value="false"/>
    </junctions>

    <pedestrian>
        <walkingareas value="false"/>
    </pedestrian>

    <netedit>
        <additional-files value="C:\Users\alva_pa\.texttest\tmp\netedit.gui.24Jun103459.15536\netedit.gui\shapeElements\poigeo\inspect_selected\angle\additionals.xml"/>
        <additionals-output value="C:\Users\alva_pa\.texttest\tmp\netedit.gui.24Jun103459.15536\netedit.gui\shapeElements\poigeo\inspect_selected\angle\additionals.xml"/>
        <route-files value="C:\Users\alva_pa\.texttest\tmp\netedit.gui.24Jun103459.15536\netedit.gui\shapeElements\poigeo\inspect_selected\angle\routes.xml"/>
        <demandelements-output value="C:\Users\alva_pa\.texttest\tmp\netedit.gui.24Jun103459.15536\netedit.gui\shapeElements\poigeo\inspect_selected\angle\routes.xml"/>
        <data-files value="C:\Users\alva_pa\.texttest\tmp\netedit.gui.24Jun103459.15536\netedit.gui\shapeElements\poigeo\inspect_selected\angle\datas.xml"/>
        <dataelements-output value="C:\Users\alva_pa\.texttest\tmp\netedit.gui.24Jun103459.15536\netedit.gui\shapeElements\poigeo\inspect_selected\angle\datas.xml"/>
    </netedit>

    <visualisation>
        <gui-settings-file value="C:\Users\alva_pa\.texttest\tmp\netedit.gui.24Jun103459.15536\netedit.gui\shapeElements\poigeo\inspect_selected\angle\gui-settings.xml"/>
        <window-size value="936,697"/>
        <window-pos value="50,50"/>
        <gui-testing value="true"/>
        <gui-testing-debug value="true"/>
        <gui-testing-debug-gl value="true"/>
        <gui-testing.setting-output value="C:\Users\alva_pa\.texttest\tmp\netedit.gui.24Jun103459.15536\netedit.gui\shapeElements\poigeo\inspect_selected\angle\guisettingsoutput.xml"/>
    </visualisation>

    <report>
        <no-warnings value="true"/>
        <aggregate-warnings value="5"/>
        <error-log value="C:\Users\alva_pa\.texttest\tmp\netedit.gui.24Jun103459.15536\netedit.gui\shapeElements\poigeo\inspect_selected\angle\log.txt"/>
    </report>

</configuration>
-->

<additional xmlns:xsi="http://www.w3.org/2001/XMLSchema-instance" xsi:noNamespaceSchemaLocation="http://sumo.dlr.de/xsd/additional_file.xsd">
    <poi id="POI_1" color="red" layer="202.00" lon="7.000000" lat="18.000000" angle="30.00"/>
    <poi id="POI_2" color="red" layer="202.00" lon="2.000000" lat="18.000000" angle="30.00"/>
</additional>
