<?xml version="1.0" encoding="UTF-8"?>

<!-- generated on 11/14/16 16:07:12 by SUMO Version dev-SVN-r21978
<?xml version="1.0" encoding="UTF-8"?>

<configuration xmlns:xsi="http://www.w3.org/2001/XMLSchema-instance" xsi:noNamespaceSchemaLocation="http://sumo.dlr.de/xsd/sumoConfiguration.xsd">

    <input>
        <net-file value="net.net.xml"/>
        <route-files value="input_routes.rou.xml"/>
        <additional-files value="input_additional.add.xml"/>
    </input>

    <time>
        <begin value="400"/>
        <end value="600"/>
    </time>

    <report>
        <xml-validation value="never"/>
        <duration-log.disable value="true"/>
        <no-step-log value="true"/>
    </report>

</configuration>
-->

<tls-states xmlns:xsi="http://www.w3.org/2001/XMLSchema-instance" xsi:noNamespaceSchemaLocation="http://sumo.dlr.de/xsd/tlsstate_file.xsd">
    <tlsstate time="400.00" id="0" programID="S2" phase="0" state="rrrrGGggrrrrGGgg"/>
    <tlsstate time="500.00" id="0" programID="S4" phase="0" state="rrrrrrrrrrrrrrrr"/>
</tls-states>
