<?xml version="1.0" encoding="UTF-8"?>

<!-- generated on Mon Feb 17 15:30:53 2020 by Eclipse SUMO netconvert Version v1_5_0+0130-ceb0a01
This data file and the accompanying materials
are made available under the terms of the Eclipse Public License v2.0
which accompanies this distribution, and is available at
http://www.eclipse.org/legal/epl-v20.html
SPDX-License-Identifier: EPL-2.0
<configuration xmlns:xsi="http://www.w3.org/2001/XMLSchema-instance" xsi:noNamespaceSchemaLocation="http://sumo.dlr.de/xsd/netconvertConfiguration.xsd">

    <input>
        <visum-file value="visum.net"/>
    </input>

    <output>
        <write-license value="true"/>
        <output-file value="net.net.xml"/>
    </output>

    <processing>
        <dismiss-vclasses value="true"/>
        <geometry.junction-mismatch-threshold value="100"/>
    </processing>

    <junctions>
        <no-internal-links value="true"/>
    </junctions>

    <report>
        <verbose value="true"/>
        <xml-validation value="never"/>
        <aggregate-warnings value="5"/>
    </report>

</configuration>
-->

<net version="1.6" junctionCornerDetail="5" limitTurnSpeed="5.50" xmlns:xsi="http://www.w3.org/2001/XMLSchema-instance" xsi:noNamespaceSchemaLocation="http://sumo.dlr.de/xsd/net_file.xsd">

    <location netOffset="-4437090.00,-5472772.50" convBoundary="0.00,0.00,3286.00,4143.50" origBoundary="4437090.00,5472772.50,4440376.00,5476916.00" projParameter="!"/>

    <type id="0" priority="1000" numLanes="1" speed="1000.00" disallow="all" oneway="0"/>
    <type id="1" priority="999" numLanes="25" speed="36.11" allow="passenger truck" oneway="0"/>
    <type id="10" priority="999" numLanes="30" speed="27.78" allow="passenger truck" oneway="0"/>
    <type id="11" priority="999" numLanes="28" speed="25.00" allow="passenger truck" oneway="0"/>
    <type id="12" priority="999" numLanes="25" speed="22.22" allow="passenger truck" oneway="0"/>
    <type id="13" priority="999" numLanes="48" speed="36.11" allow="passenger truck" oneway="0"/>
    <type id="14" priority="999" numLanes="44" speed="33.33" allow="passenger truck" oneway="0"/>
    <type id="15" priority="999" numLanes="41" speed="30.56" allow="passenger truck" oneway="0"/>
    <type id="16" priority="999" numLanes="38" speed="27.78" allow="passenger truck" oneway="0"/>
    <type id="17" priority="998" numLanes="17" speed="30.56" allow="passenger truck" oneway="0"/>
    <type id="18" priority="998" numLanes="16" speed="27.78" allow="passenger truck" oneway="0"/>
    <type id="19" priority="998" numLanes="15" speed="22.22" allow="passenger truck" oneway="0"/>
    <type id="2" priority="999" numLanes="24" speed="33.33" allow="passenger truck" oneway="0"/>
    <type id="20" priority="998" numLanes="14" speed="19.44" allow="passenger truck" oneway="0"/>
    <type id="21" priority="995" numLanes="9" speed="19.44" allow="passenger truck" oneway="0"/>
    <type id="22" priority="995" numLanes="8" speed="16.67" allow="passenger truck" oneway="0"/>
    <type id="23" priority="995" numLanes="7" speed="13.89" allow="passenger truck" oneway="0"/>
    <type id="24" priority="994" numLanes="7" speed="27.78" allow="passenger truck" oneway="0"/>
    <type id="25" priority="994" numLanes="7" speed="27.78" allow="passenger truck" oneway="0"/>
    <type id="26" priority="994" numLanes="6" speed="25.00" allow="passenger truck" oneway="0"/>
    <type id="27" priority="994" numLanes="5" speed="22.22" allow="passenger truck" oneway="0"/>
    <type id="28" priority="994" numLanes="5" speed="19.44" allow="passenger truck" oneway="0"/>
    <type id="29" priority="994" numLanes="4" speed="16.67" allow="passenger truck" oneway="0"/>
    <type id="3" priority="999" numLanes="23" speed="30.56" allow="passenger truck" oneway="0"/>
    <type id="30" priority="994" numLanes="3" speed="13.89" allow="passenger truck" oneway="0"/>
    <type id="31" priority="996" numLanes="14" speed="27.78" allow="passenger truck" oneway="0"/>
    <type id="32" priority="996" numLanes="13" speed="27.78" allow="passenger truck" oneway="0"/>
    <type id="33" priority="996" numLanes="12" speed="25.00" allow="passenger truck" oneway="0"/>
    <type id="34" priority="996" numLanes="10" speed="22.22" allow="passenger truck" oneway="0"/>
    <type id="35" priority="996" numLanes="9" speed="19.44" allow="passenger truck" oneway="0"/>
    <type id="36" priority="996" numLanes="8" speed="16.67" allow="passenger truck" oneway="0"/>
    <type id="37" priority="996" numLanes="6" speed="13.89" allow="passenger truck" oneway="0"/>
    <type id="38" priority="997" numLanes="20" speed="27.78" allow="passenger truck" oneway="0"/>
    <type id="39" priority="997" numLanes="19" speed="27.78" allow="passenger truck" oneway="0"/>
    <type id="4" priority="999" numLanes="22" speed="27.78" allow="passenger truck" oneway="0"/>
    <type id="40" priority="997" numLanes="17" speed="25.00" allow="passenger truck" oneway="0"/>
    <type id="41" priority="997" numLanes="15" speed="22.22" allow="passenger truck" oneway="0"/>
    <type id="42" priority="997" numLanes="14" speed="19.44" allow="passenger truck" oneway="0"/>
    <type id="43" priority="997" numLanes="12" speed="16.67" allow="passenger truck" oneway="0"/>
    <type id="44" priority="991" numLanes="8" speed="22.22" allow="passenger truck" oneway="0"/>
    <type id="45" priority="991" numLanes="8" speed="19.44" allow="passenger truck" oneway="0"/>
    <type id="46" priority="991" numLanes="7" speed="16.67" allow="passenger truck" oneway="0"/>
    <type id="47" priority="991" numLanes="7" speed="13.89" allow="passenger truck" oneway="0"/>
    <type id="48" priority="991" numLanes="6" speed="11.11" allow="passenger truck" oneway="0"/>
    <type id="49" priority="991" numLanes="5" speed="8.33" allow="passenger truck" oneway="0"/>
    <type id="5" priority="999" numLanes="21" speed="25.00" allow="passenger truck" oneway="0"/>
    <type id="50" priority="992" numLanes="22" speed="22.22" allow="passenger truck" oneway="0"/>
    <type id="51" priority="992" numLanes="20" speed="19.44" allow="passenger truck" oneway="0"/>
    <type id="52" priority="992" numLanes="19" speed="16.67" allow="passenger truck" oneway="0"/>
    <type id="53" priority="992" numLanes="18" speed="13.89" allow="passenger truck" oneway="0"/>
    <type id="54" priority="992" numLanes="17" speed="11.11" allow="passenger truck" oneway="0"/>
    <type id="55" priority="992" numLanes="15" speed="8.33" allow="passenger truck" oneway="0"/>
    <type id="56" priority="993" numLanes="33" speed="22.22" allow="passenger truck" oneway="0"/>
    <type id="57" priority="993" numLanes="30" speed="19.44" allow="passenger truck" oneway="0"/>
    <type id="58" priority="993" numLanes="28" speed="16.67" allow="passenger truck" oneway="0"/>
    <type id="59" priority="993" numLanes="26" speed="13.89" allow="passenger truck" oneway="0"/>
    <type id="6" priority="999" numLanes="20" speed="22.22" allow="passenger truck" oneway="0"/>
    <type id="60" priority="993" numLanes="24" speed="11.11" allow="passenger truck" oneway="0"/>
    <type id="61" priority="993" numLanes="22" speed="8.33" allow="passenger truck" oneway="0"/>
    <type id="62" priority="990" numLanes="16" speed="19.44" allow="passenger truck" oneway="0"/>
    <type id="63" priority="990" numLanes="14" speed="16.67" allow="passenger truck" oneway="0"/>
    <type id="64" priority="990" numLanes="13" speed="13.89" allow="passenger truck" oneway="0"/>
    <type id="65" priority="988" numLanes="7" speed="16.67" allow="passenger truck" oneway="0"/>
    <type id="66" priority="988" numLanes="7" speed="13.89" allow="passenger truck" oneway="0"/>
    <type id="67" priority="988" numLanes="6" speed="13.89" allow="passenger truck" oneway="0"/>
    <type id="68" priority="988" numLanes="5" speed="11.11" allow="passenger truck" oneway="0"/>
    <type id="69" priority="988" numLanes="5" speed="11.11" allow="passenger truck" oneway="0"/>
    <type id="7" priority="999" numLanes="37" speed="36.11" allow="passenger truck" oneway="0"/>
    <type id="70" priority="988" numLanes="4" speed="8.33" allow="passenger truck" oneway="0"/>
    <type id="71" priority="988" numLanes="3" speed="8.33" allow="passenger truck" oneway="0"/>
    <type id="72" priority="988" numLanes="2" speed="5.56" allow="passenger truck" oneway="0"/>
    <type id="73" priority="989" numLanes="14" speed="16.67" allow="passenger truck" oneway="0"/>
    <type id="74" priority="989" numLanes="13" speed="13.89" allow="passenger truck" oneway="0"/>
    <type id="75" priority="989" numLanes="12" speed="13.89" allow="passenger truck" oneway="0"/>
    <type id="76" priority="989" numLanes="10" speed="11.11" allow="passenger truck" oneway="0"/>
    <type id="77" priority="989" numLanes="9" speed="11.11" allow="passenger truck" oneway="0"/>
    <type id="78" priority="989" numLanes="8" speed="8.33" allow="passenger truck" oneway="0"/>
    <type id="79" priority="989" numLanes="6" speed="8.33" allow="passenger truck" oneway="0"/>
    <type id="8" priority="999" numLanes="34" speed="33.33" allow="passenger truck" oneway="0"/>
    <type id="80" priority="987" numLanes="3" speed="5.56" allow="passenger truck" oneway="0"/>
    <type id="81" priority="988" numLanes="3" speed="8.33" allow="passenger truck" oneway="0"/>
    <type id="82" priority="988" numLanes="5" speed="11.11" allow="passenger truck" oneway="0"/>
    <type id="83" priority="988" numLanes="7" speed="13.89" allow="passenger truck" oneway="0"/>
    <type id="84" priority="989" numLanes="10" speed="16.67" allow="passenger truck" oneway="0"/>
    <type id="85" priority="989" numLanes="13" speed="19.44" allow="passenger truck" oneway="0"/>
    <type id="86" priority="994" numLanes="8" speed="22.22" allow="passenger truck" oneway="0"/>
    <type id="87" priority="996" numLanes="8" speed="25.00" allow="passenger truck" oneway="0"/>
    <type id="88" priority="997" numLanes="13" speed="27.78" allow="passenger truck" oneway="0"/>
    <type id="89" priority="998" numLanes="19" speed="30.56" allow="passenger truck" oneway="0"/>
    <type id="9" priority="999" numLanes="32" speed="30.56" allow="passenger truck" oneway="0"/>
    <type id="90" priority="901" numLanes="2" speed="5.56" allow="passenger truck" oneway="0"/>
    <type id="91" priority="1" numLanes="56" speed="27.78" oneway="0"/>
    <type id="92" priority="1" numLanes="56" speed="27.78" disallow="all" oneway="0"/>
    <type id="93" priority="1" numLanes="56" speed="27.78" disallow="all" oneway="0"/>
    <type id="94" priority="1" numLanes="56" speed="27.78" disallow="all" oneway="0"/>
    <type id="95" priority="1" numLanes="56" speed="27.78" disallow="all" oneway="0"/>
    <type id="96" priority="1" numLanes="56" speed="27.78" disallow="all" oneway="0"/>
    <type id="97" priority="1" numLanes="56" speed="27.78" disallow="all" oneway="0"/>
    <type id="98" priority="1" numLanes="56" speed="27.78" disallow="all" oneway="0"/>
    <type id="99" priority="1" numLanes="56" speed="27.78" disallow="all" oneway="0"/>

    <edge id="-53091482" from="100667830" to="1567" priority="-1" type="83">
        <lane id="-53091482_0" index="0" speed="13.89" length="36.45" shape="29.90,1848.06 -2.17,1831.78"/>
        <lane id="-53091482_1" index="1" speed="13.89" length="36.45" shape="31.35,1845.21 -0.72,1828.93"/>
    </edge>
    <edge id="-53091559" from="100667891" to="1566" priority="-1" type="83">
        <lane id="-53091559_0" index="0" speed="13.89" length="357.11" shape="717.78,2472.64 465.25,2226.04"/>
        <lane id="-53091559_1" index="1" speed="13.89" length="357.11" shape="720.02,2470.35 467.49,2223.75"/>
    </edge>
    <edge id="-53091615" from="1562" to="1560" priority="-1" type="83">
        <lane id="-53091615_0" index="0" speed="13.89" length="165.37" shape="1643.43,1733.84 1746.17,1604.61"/>
        <lane id="-53091615_1" index="1" speed="13.89" length="165.37" shape="1645.93,1735.83 1748.67,1606.60"/>
    </edge>
    <edge id="-53091628" from="1564" to="1563" priority="-1" type="83">
        <lane id="-53091628_0" index="0" speed="13.89" length="344.06" shape="1196.66,2283.21 1426.13,2034.62"/>
        <lane id="-53091628_1" index="1" speed="13.89" length="344.06" shape="1199.01,2285.38 1428.48,2036.79"/>
    </edge>
    <edge id="-53091655" from="1672" to="1565" priority="-1" type="83">
        <lane id="-53091655_0" index="0" speed="13.89" length="345.90" shape="1159.82,2905.92 924.55,2682.83"/>
        <lane id="-53091655_1" index="1" speed="13.89" length="345.90" shape="1162.02,2903.60 926.75,2680.51"/>
        <lane id="-53091655_2" index="2" speed="13.89" length="345.90" shape="1164.22,2901.28 928.95,2678.19"/>
    </edge>
    <edge id="-545279717" from="100674949" to="100674627" priority="-1" type="85" shape="3095.00,20.00 3033.00,20.50 2970.50,34.50 2941.00,49.50">
        <lane id="-545279717_0" index="0" speed="19.44" length="159.15" shape="3093.10,21.62 3033.18,22.10 2971.05,36.02 2941.97,50.80"/>
    </edge>
    <edge id="-545285123" from="1671" to="814" priority="-1" type="84" shape="1910.00,2807.50 1778.00,2823.00 1755.00,2842.00 1667.00,2926.50 1615.00,2971.50 1563.00,3031.00 1551.00,3058.00">
        <lane id="-545285123_0" index="0" speed="16.67" length="462.08" shape="1910.19,2809.09 1778.66,2824.53 1756.07,2843.20 1668.08,2927.68 1616.13,2972.64 1564.36,3031.87 1556.89,3048.69"/>
    </edge>
    <edge id="-545285124" from="1563" to="1562" priority="-1" type="83" shape="1430.00,2037.50 1533.50,1881.50 1647.09,1736.94">
        <lane id="-545285124_0" index="0" speed="13.89" length="371.06" shape="1426.28,2034.42 1529.61,1878.69 1643.23,1734.10"/>
        <lane id="-545285124_1" index="1" speed="13.89" length="371.06" shape="1428.95,2036.19 1532.20,1880.56 1645.74,1736.07"/>
    </edge>
    <edge id="-59394061" from="100674626" to="100668229" priority="-1" type="82">
        <lane id="-59394061_0" index="0" speed="11.11" length="346.04" shape="2906.00,77.82 2694.36,350.86"/>
    </edge>
    <edge id="-59394070" from="100674627" to="100674626" priority="-1" type="85">
        <lane id="-59394070_0" index="0" speed="19.44" length="45.00" shape="2941.74,50.95 2906.30,77.52"/>
    </edge>
    <edge id="-83535600" from="100674947" to="1678" priority="-1" type="85" shape="3119.00,15.00 3184.50,0.00 3286.00,1.50">
        <lane id="-83535600_0" index="0" speed="19.44" length="168.71" shape="3120.93,12.92 3184.33,-1.60 3286.02,-0.10"/>
    </edge>
    <edge id="-83535603" from="100674949" to="100674947" priority="-1" type="0" shape="3095.00,20.00 3098.00,25.50 3118.00,27.50 3119.00,15.00">
        <lane id="-83535603_0" index="0" speed="3.06" length="38.90" shape="3097.32,20.92 3099.00,23.99 3116.54,25.75 3117.22,17.21"/>
    </edge>
    <edge id="-905001099" from="100667991" to="1572" priority="-1" type="83" shape="69.00,3571.00 296.06,3324.05 330.50,3228.50">
        <lane id="-905001099_0" index="0" speed="13.89" length="437.04" shape="65.97,3567.20 291.88,3321.51 325.64,3227.84"/>
        <lane id="-905001099_1" index="1" speed="13.89" length="437.04" shape="68.33,3569.37 294.67,3323.20 328.65,3228.92"/>
    </edge>
    <edge id="-905001109" from="1571" to="1568" priority="-1" type="81" shape="302.00,2747.50 411.00,2829.50 480.00,2883.00 568.50,2954.50">
        <lane id="-905001109_0" index="0" speed="8.33" length="337.49" shape="302.96,2746.22 411.97,2828.23 480.99,2881.75 556.13,2942.45"/>
    </edge>
    <edge id="-905002541" from="100667830" to="1566" priority="-1" type="83" shape="32.50,1844.00 67.50,1869.00 97.00,1890.00 228.00,1985.00 358.50,2115.00 468.50,2222.50">
        <lane id="-905002541_0" index="0" speed="13.89" length="579.05" shape="35.68,1840.37 70.29,1865.09 99.80,1886.10 231.12,1981.33 361.87,2111.58 471.75,2218.96"/>
        <lane id="-905002541_1" index="1" speed="13.89" length="579.05" shape="33.82,1842.98 68.43,1867.70 97.93,1888.70 229.04,1983.78 359.62,2113.86 469.51,2221.25"/>
    </edge>
    <edge id="-905002548" from="1568" to="1565" priority="-1" type="83" shape="568.50,2954.50 658.00,2925.50 723.00,2897.00 767.00,2850.00 876.00,2731.00 920.00,2667.50">
        <lane id="-905002548_0" index="0" speed="13.89" length="468.07" shape="569.78,2942.31 654.02,2915.02 716.40,2887.67 758.78,2842.39 867.23,2724.00 902.42,2673.20"/>
        <lane id="-905002548_1" index="1" speed="13.89" length="468.07" shape="570.76,2945.36 655.15,2918.01 718.28,2890.33 761.13,2844.56 869.73,2726.00 905.05,2675.03"/>
        <lane id="-905002548_2" index="2" speed="13.89" length="468.07" shape="571.75,2948.40 656.29,2921.01 720.17,2893.00 763.48,2846.74 872.24,2728.00 907.68,2676.85"/>
        <lane id="-905002548_3" index="3" speed="13.89" length="468.07" shape="572.74,2951.45 657.43,2924.00 722.06,2895.67 765.83,2848.91 874.75,2730.00 910.31,2678.67"/>
    </edge>
    <edge id="-905002550" from="1565" to="1564" priority="-1" type="83" shape="920.00,2667.50 964.50,2624.00 1052.50,2509.50 1071.00,2484.00 1154.00,2378.50 1190.00,2297.50">
        <lane id="-905002550_0" index="0" speed="13.89" length="471.13" shape="928.18,2652.79 960.90,2620.81 1048.65,2506.63 1067.17,2481.11 1149.86,2376.00 1187.39,2291.56"/>
        <lane id="-905002550_1" index="1" speed="13.89" length="471.13" shape="930.42,2655.08 963.30,2622.94 1051.22,2508.54 1069.72,2483.04 1152.62,2377.67 1190.31,2292.85"/>
    </edge>
    <edge id="-905002551" from="100667891" to="1565" priority="-1" type="83" shape="724.00,2472.00 802.50,2546.00 890.00,2629.50 912.00,2651.50 920.00,2667.50">
        <lane id="-905002551_0" index="0" speed="13.89" length="277.83" shape="732.39,2468.92 808.01,2540.20 895.59,2623.78 918.57,2646.76 920.41,2650.43"/>
        <lane id="-905002551_1" index="1" speed="13.89" length="277.83" shape="730.20,2471.25 805.80,2542.52 893.35,2626.07 915.94,2648.66 917.55,2651.86"/>
        <lane id="-905002551_2" index="2" speed="13.89" length="277.83" shape="728.00,2473.57 803.60,2544.84 891.12,2628.36 913.31,2650.55 914.68,2653.29"/>
    </edge>
    <edge id="-905002586" from="605000010" to="100668229" priority="-1" type="82">
        <lane id="-905002586_0" index="0" speed="11.11" length="474.91" shape="2406.65,723.85 2691.64,349.15"/>
    </edge>
    <edge id="-905005134" from="100667991" to="1577" priority="-1" type="83" shape="69.00,3571.00 37.00,3628.00 9.00,3645.00">
        <lane id="-905005134_0" index="0" speed="13.89" length="98.12" shape="72.82,3574.00 40.57,3631.45 17.11,3645.69"/>
        <lane id="-905005134_1" index="1" speed="13.89" length="98.12" shape="70.03,3572.43 38.19,3629.15 15.45,3642.96"/>
    </edge>
    <edge id="-905005137" from="1577" to="1574" priority="-1" type="83" shape="9.00,3645.00 38.00,3690.00 81.50,3784.50 109.50,3879.50 120.00,3952.00 120.50,4019.50 104.50,4143.50">
        <lane id="-905005137_0" index="0" speed="13.89" length="522.39" shape="16.60,3647.93 42.22,3687.68 86.01,3782.81 114.20,3878.47 124.80,3951.64 125.30,4019.79 109.26,4144.11"/>
        <lane id="-905005137_1" index="1" speed="13.89" length="522.39" shape="13.91,3649.66 39.41,3689.23 83.00,3783.94 111.07,3879.16 121.60,3951.88 122.10,4019.60 106.09,4143.70"/>
    </edge>
    <edge id="-905005456" from="100668444" to="814" priority="-1" type="84" shape="2052.00,3565.00 2046.00,3553.00 1948.00,3340.50 1893.00,3231.00 1848.00,3177.00 1797.50,3138.50 1740.00,3112.50 1551.00,3058.00">
        <lane id="-905005456_0" index="0" speed="16.67" length="763.56" shape="2047.71,3567.15 2041.67,3555.08 1943.67,3342.58 1888.96,3233.65 1844.66,3180.49 1795.02,3142.65 1738.34,3117.02 1557.47,3064.86"/>
        <lane id="-905005456_1" index="1" speed="16.67" length="763.56" shape="2050.57,3565.72 2044.56,3553.69 1946.56,3341.19 1891.65,3231.88 1846.89,3178.16 1796.67,3139.88 1739.45,3114.01 1558.35,3061.79"/>
    </edge>
    <edge id="-905005617" from="605000010" to="1561" priority="-1" type="83">
        <lane id="-905005617_0" index="0" speed="13.89" length="424.90" shape="2406.93,734.08 2153.92,1070.27"/>
        <lane id="-905005617_1" index="1" speed="13.89" length="424.90" shape="2404.37,732.16 2151.37,1068.34"/>
    </edge>
    <edge id="-905005626" from="1672" to="814" priority="-1" type="83" shape="1171.00,2905.50 1229.00,2958.00 1288.50,2982.00 1551.00,3058.00">
        <lane id="-905005626_0" index="0" speed="13.89" length="415.67" shape="1179.23,2906.47 1231.59,2953.87 1290.07,2977.46 1546.23,3051.62"/>
        <lane id="-905005626_1" index="1" speed="13.89" length="415.67" shape="1177.08,2908.84 1229.86,2956.62 1289.02,2980.49 1545.34,3054.70"/>
    </edge>
    <edge id="-905006034" from="1572" to="1568" priority="-1" type="83" shape="330.50,3228.50 490.00,3024.50 514.00,2993.00 568.50,2954.50">
        <lane id="-905006034_0" index="0" speed="13.89" length="365.28" shape="327.35,3224.74 486.20,3021.57 510.63,2989.50 558.27,2955.85"/>
        <lane id="-905006034_1" index="1" speed="13.89" length="365.28" shape="329.87,3226.71 488.73,3023.52 512.88,2991.83 560.11,2958.47"/>
    </edge>
    <edge id="-905006042" from="1561" to="1560" priority="-1" type="83">
        <lane id="-905006042_0" index="0" speed="13.89" length="672.01" shape="2153.77,1070.48 1753.93,1610.26"/>
        <lane id="-905006042_1" index="1" speed="13.89" length="672.01" shape="2151.20,1068.57 1751.36,1608.36"/>
    </edge>
    <edge id="-905006352" from="1672" to="261" priority="-1" type="0">
        <lane id="-905006352_0" index="0" speed="3.06" length="105.42" shape="1176.36,2896.06 1234.74,2821.51"/>
    </edge>
    <edge id="53091482" from="1567" to="100667830" priority="-1" type="83">
        <lane id="53091482_0" index="0" speed="13.89" length="36.45" shape="2.17,1823.22 34.24,1839.50"/>
        <lane id="53091482_1" index="1" speed="13.89" length="36.45" shape="0.72,1826.07 32.79,1842.35"/>
    </edge>
    <edge id="53091559" from="1566" to="100667891" priority="-1" type="83">
        <lane id="53091559_0" index="0" speed="13.89" length="357.11" shape="471.96,2219.17 724.49,2465.77"/>
        <lane id="53091559_1" index="1" speed="13.89" length="357.11" shape="469.73,2221.46 722.25,2468.06"/>
    </edge>
    <edge id="53091615" from="1560" to="1562" priority="-1" type="83">
        <lane id="53091615_0" index="0" speed="13.89" length="165.37" shape="1753.68,1610.58 1650.94,1739.82"/>
        <lane id="53091615_1" index="1" speed="13.89" length="165.37" shape="1751.18,1608.59 1648.44,1737.82"/>
    </edge>
    <edge id="53091628" from="1563" to="1564" priority="-1" type="83">
        <lane id="53091628_0" index="0" speed="13.89" length="344.06" shape="1433.18,2041.13 1203.71,2289.72"/>
        <lane id="53091628_1" index="1" speed="13.89" length="344.06" shape="1430.83,2038.96 1201.36,2287.55"/>
    </edge>
    <edge id="53091655" from="1565" to="1672" priority="-1" type="83">
        <lane id="53091655_0" index="0" speed="13.89" length="345.90" shape="933.35,2673.55 1168.63,2896.64"/>
        <lane id="53091655_1" index="1" speed="13.89" length="345.90" shape="931.15,2675.87 1166.43,2898.96"/>
    </edge>
    <edge id="545279717" from="100674627" to="100674949" priority="-1" type="85" shape="2941.00,49.50 2970.50,34.50 3033.00,20.50 3095.00,20.00">
        <lane id="545279717_0" index="0" speed="19.44" length="159.15" shape="2940.52,47.95 2969.95,32.98 3032.82,18.90 3093.07,18.42"/>
    </edge>
    <edge id="545285123" from="814" to="1671" priority="-1" type="84" shape="1551.00,3058.00 1563.00,3031.00 1615.00,2971.50 1667.00,2926.50 1755.00,2842.00 1778.00,2823.00 1910.00,2807.50">
        <lane id="545285123_0" index="0" speed="16.67" length="462.08" shape="1553.97,3047.39 1561.64,3030.13 1613.87,2970.36 1665.92,2925.32 1753.93,2840.80 1777.34,2821.47 1909.81,2805.91"/>
    </edge>
    <edge id="545285124" from="1562" to="1563" priority="-1" type="83" shape="1647.09,1736.94 1533.50,1881.50 1430.00,2037.50">
        <lane id="545285124_0" index="0" speed="13.89" length="371.06" shape="1650.77,1740.03 1537.39,1884.31 1434.28,2039.73"/>
        <lane id="545285124_1" index="1" speed="13.89" length="371.06" shape="1648.26,1738.05 1534.80,1882.44 1431.62,2037.96"/>
    </edge>
    <edge id="59394061" from="100668229" to="100674626" priority="-1" type="82">
        <lane id="59394061_0" index="0" speed="11.11" length="346.04" shape="2691.83,348.90 2903.47,75.86"/>
    </edge>
    <edge id="59394070" from="100674626" to="100674627" priority="-1" type="85">
        <lane id="59394070_0" index="0" speed="19.44" length="45.00" shape="2904.38,74.96 2939.82,48.39"/>
    </edge>
    <edge id="83535600" from="1678" to="100674947" priority="-1" type="85" shape="3286.00,1.50 3184.50,0.00 3119.00,15.00">
        <lane id="83535600_0" index="0" speed="19.44" length="168.71" shape="3285.98,3.10 3184.67,1.60 3121.65,16.04"/>
    </edge>
    <edge id="83535603" from="100674947" to="100674949" priority="-1" type="86" shape="3119.00,15.00 3118.00,27.50 3098.00,25.50 3095.00,20.00">
        <lane id="83535603_0" index="0" speed="22.22" length="38.90" shape="3120.41,17.47 3119.46,29.25 3097.00,27.01 3094.51,22.45"/>
    </edge>
    <edge id="905001099" from="1572" to="100667991" priority="-1" type="83" shape="330.50,3228.50 296.06,3324.05 69.00,3571.00">
        <lane id="905001099_0" index="0" speed="13.89" length="437.04" shape="334.67,3231.09 300.25,3326.59 73.04,3573.70"/>
        <lane id="905001099_1" index="1" speed="13.89" length="437.04" shape="331.66,3230.01 297.46,3324.89 70.68,3571.53"/>
    </edge>
    <edge id="905001109" from="1568" to="1571" priority="-1" type="81" shape="568.50,2954.50 480.00,2883.00 411.00,2829.50 302.00,2747.50">
        <lane id="905001109_0" index="0" speed="8.33" length="337.49" shape="554.12,2944.94 479.01,2884.25 410.03,2830.77 301.04,2748.78"/>
    </edge>
    <edge id="905002541" from="1566" to="100667830" priority="-1" type="83" shape="468.50,2222.50 358.50,2115.00 228.00,1985.00 97.00,1890.00 67.50,1869.00 32.50,1844.00">
        <lane id="905002541_0" index="0" speed="13.89" length="579.05" shape="465.04,2225.83 355.13,2118.42 224.88,1988.67 94.20,1893.90 64.71,1872.91 30.10,1848.19"/>
        <lane id="905002541_1" index="1" speed="13.89" length="579.05" shape="467.27,2223.54 357.38,2116.14 226.96,1986.22 96.07,1891.30 66.57,1870.30 31.96,1845.58"/>
    </edge>
    <edge id="905002548" from="1565" to="1568" priority="-1" type="83" shape="920.00,2667.50 876.00,2731.00 767.00,2850.00 723.00,2897.00 658.00,2925.50 568.50,2954.50">
        <lane id="905002548_0" index="0" speed="13.89" length="468.07" shape="915.57,2682.32 879.76,2734.00 770.52,2853.26 725.83,2901.00 659.71,2929.99 574.71,2957.53"/>
        <lane id="905002548_1" index="1" speed="13.89" length="468.07" shape="912.94,2680.49 877.25,2732.00 768.17,2851.09 723.94,2898.33 658.57,2927.00 573.72,2954.49"/>
    </edge>
    <edge id="905002550" from="1564" to="1565" priority="-1" type="83" shape="1190.00,2297.50 1154.00,2378.50 1071.00,2484.00 1052.50,2509.50 964.50,2624.00 920.00,2667.50">
        <lane id="905002550_0" index="0" speed="13.89" length="471.13" shape="1199.09,2296.75 1160.90,2382.66 1077.38,2488.82 1058.91,2514.29 970.50,2629.32 937.13,2661.94"/>
        <lane id="905002550_1" index="1" speed="13.89" length="471.13" shape="1196.16,2295.45 1158.14,2381.00 1074.83,2486.89 1056.35,2512.37 968.10,2627.19 934.89,2659.65"/>
        <lane id="905002550_2" index="2" speed="13.89" length="471.13" shape="1193.24,2294.15 1155.38,2379.33 1072.28,2484.96 1053.78,2510.46 965.70,2625.06 932.66,2657.37"/>
    </edge>
    <edge id="905002551" from="1565" to="100667891" priority="-1" type="83" shape="920.00,2667.50 912.00,2651.50 890.00,2629.50 802.50,2546.00 724.00,2472.00">
        <lane id="905002551_0" index="0" speed="13.89" length="277.83" shape="908.96,2656.15 908.06,2654.34 886.65,2632.93 799.20,2549.48 723.61,2478.23"/>
        <lane id="905002551_1" index="1" speed="13.89" length="277.83" shape="911.82,2654.72 910.69,2652.45 888.88,2630.64 801.40,2547.16 725.81,2475.90"/>
    </edge>
    <edge id="905002586" from="100668229" to="605000010" priority="-1" type="82">
        <lane id="905002586_0" index="0" speed="11.11" length="474.91" shape="2694.18,351.09 2409.19,725.79"/>
    </edge>
    <edge id="905005134" from="1577" to="100667991" priority="-1" type="0" shape="9.00,3645.00 37.00,3628.00 69.00,3571.00">
        <lane id="905005134_0" index="0" speed="3.06" length="98.12" shape="12.13,3637.49 33.43,3624.55 64.45,3569.30"/>
        <lane id="905005134_1" index="1" speed="3.06" length="98.12" shape="13.79,3640.22 35.81,3626.85 67.24,3570.87"/>
    </edge>
    <edge id="905005137" from="1574" to="1577" priority="-1" type="83" shape="104.50,4143.50 120.50,4019.50 120.00,3952.00 109.50,3879.50 81.50,3784.50 38.00,3690.00 9.00,3645.00">
        <lane id="905005137_0" index="0" speed="13.89" length="522.39" shape="99.74,4142.89 115.70,4019.21 115.20,3952.36 104.80,3880.53 76.99,3786.19 33.78,3692.32 8.53,3653.13"/>
        <lane id="905005137_1" index="1" speed="13.89" length="522.39" shape="102.91,4143.30 118.90,4019.40 118.40,3952.12 107.93,3879.84 80.00,3785.06 36.59,3690.77 11.22,3651.39"/>
    </edge>
    <edge id="905005456" from="814" to="100668444" priority="-1" type="84" shape="1551.00,3058.00 1740.00,3112.50 1797.50,3138.50 1848.00,3177.00 1893.00,3231.00 1948.00,3340.50 2046.00,3553.00 2052.00,3565.00">
        <lane id="905005456_0" index="0" speed="16.67" length="763.56" shape="1560.13,3055.64 1741.66,3107.98 1799.98,3134.35 1851.34,3173.51 1897.04,3228.35 1952.33,3338.42 2050.33,3550.92 2056.29,3562.85"/>
        <lane id="905005456_1" index="1" speed="16.67" length="763.56" shape="1559.24,3058.71 1740.55,3110.99 1798.33,3137.12 1849.11,3175.84 1894.35,3230.12 1949.44,3339.81 2047.44,3552.31 2053.43,3564.28"/>
    </edge>
    <edge id="905005617" from="1561" to="605000010" priority="-1" type="83">