<?xml version="1.0" encoding="UTF-8"?>

<!-- generated on 2024-06-05 14:13:09 by Eclipse SUMO netedit Version v1_20_0+0359-09f6b58d48b
-->

<additional xmlns:xsi="http://www.w3.org/2001/XMLSchema-instance" xsi:noNamespaceSchemaLocation="http://sumo.dlr.de/xsd/additional_file.xsd">
    <!-- StoppingPlaces -->
    <chargingStation id="cs_0" name="charging station name" lane="EdgeCenter0_1" startPos="7.95" endPos="17.95"/>
</additional>
