<routes xmlns:xsi="http://www.w3.org/2001/XMLSchema-instance" xsi:noNamespaceSchemaLocation="http://sumo.dlr.de/xsd/routes_file.xsd">
   <vType id="DEFAULT_VEHTYPE" sigma="0" containerCapacity="2"/>
    <vehicle id="truck0" line="l100" depart="0" departPos="0" >
        <route edges="beg beg2left left left2end end">
            <stop lane="beg_0" endPos="50" duration="30"/>
        </route>
    </vehicle>
    
    <container id="c1" depart="20" departPos="50">
        <transport from="beg" to="end" lines="l100"/>
    </container>
    
    <container id="c2" depart="20" departPos="50">
        <transport from="beg" to="end" lines="l100"/>
    </container>
    
    <container id="c3" depart="20" departPos="50">
        <transport from="beg" to="end" lines="l100"/>
    </container>
    
    <vehicle id="truck1" line="l100" depart="120" departPos="0" >
        <route edges="beg beg2left left left2end end">
            <stop lane="beg_0" endPos="50" duration="30"/>
        </route>
    </vehicle>
</routes>
