<routes xmlns:xsi="http://www.w3.org/2001/XMLSchema-instance" xsi:noNamespaceSchemaLocation="http://sumo.dlr.de/xsd/routes_file.xsd">
    <vType id="t0" speedDev="0.05"/>
    <route id="main" edges="beg" color="blue"/>
    <vehicle id="blocker" type="t0" depart="0" route="main" departPos="stop" departLane="2">
        <stop lane="beg_2" endPos="-100" duration="1000"/>
    </vehicle>
    <vehicle id="blocker2" type="t0" depart="0" route="main" departPos="stop" departLane="1">
        <stop lane="beg_1" endPos="-100" duration="1000"/>
    </vehicle>
    <vehicle id="blocker3" type="t0" depart="0" route="main" departPos="stop" departLane="0">
        <stop lane="beg_0" endPos="-150" duration="1000"/>
    </vehicle>
    <vehicle id="blocker4" type="t0" depart="0" route="main" departPos="stop" departLane="1">
        <stop lane="beg_1" endPos="-150" duration="1000"/>
    </vehicle>
    <vehicle id="blocker5" type="t0" depart="0" route="main" departPos="stop" departLane="2">
        <stop lane="beg_2" endPos="-200" duration="1000"/>
    </vehicle>
    <vehicle id="blocker6" type="t0" depart="0" route="main" departPos="stop" departLane="1">
        <stop lane="beg_1" endPos="-200" duration="1000"/>
    </vehicle>
    <vehicle id="blocker7" type="t0" depart="0" route="main" departPos="stop" departLane="0">
        <stop lane="beg_0" endPos="-250" duration="1000"/>
    </vehicle>
    <vehicle id="blocker8" type="t0" depart="0" route="main" departPos="stop" departLane="1">
        <stop lane="beg_1" endPos="-250" duration="1000"/>
    </vehicle>

    <flow id="v" type="t0" begin="0" end="1000" route="main" departSpeed="max" departLane="2" number="1" departPos="-400"/>
</routes>
