<additional xmlns:xsi="http://www.w3.org/2001/XMLSchema-instance" xsi:noNamespaceSchemaLocation="http://sumo.dlr.de/xsd/additional_file.xsd">
    <type id="c">
        <restriction vClass="truck" speed="10.00"/>
    </type>
</additional>
