<?xml version="1.0" encoding="UTF-8"?>

<!-- generated on Mon Feb 17 15:30:53 2020 by Eclipse SUMO netconvert Version v1_5_0+0130-ceb0a01
This data file and the accompanying materials
are made available under the terms of the Eclipse Public License v2.0
which accompanies this distribution, and is available at
http://www.eclipse.org/legal/epl-v20.html
SPDX-License-Identifier: EPL-2.0
<configuration xmlns:xsi="http://www.w3.org/2001/XMLSchema-instance" xsi:noNamespaceSchemaLocation="http://sumo.dlr.de/xsd/netconvertConfiguration.xsd">

    <input>
        <node-files value="input_plain.nod.xml"/>
        <edge-files value="input_plain.edg.xml"/>
    </input>

    <output>
        <write-license value="true"/>
        <output-file value="net.net.xml"/>
        <output.street-names value="true"/>
    </output>

    <junctions>
        <no-internal-links value="true"/>
        <no-turnarounds value="true"/>
    </junctions>

    <report>
        <xml-validation value="never"/>
        <aggregate-warnings value="5"/>
    </report>

</configuration>
-->

<net version="1.6" junctionCornerDetail="5" limitTurnSpeed="5.50" xmlns:xsi="http://www.w3.org/2001/XMLSchema-instance" xsi:noNamespaceSchemaLocation="http://sumo.dlr.de/xsd/net_file.xsd">

    <location netOffset="-391683.19,-5819981.06" convBoundary="0.00,0.00,162.73,187.09" origBoundary="13.372213,52.501727,13.527402,52.569285" projParameter="+proj=utm +zone=33 +ellps=WGS84 +datum=WGS84 +units=m +no_defs"/>

    <edge id="-534588621#1" from="cluster_1827996421_1827996431_1827996455_2121324874_21487210_29221504_29221506_341340973_3792418589_3792418616_3792418629_3792418630_3792418641_3792418791" to="3182529377" name="Spandauer Straße" priority="7" shape="113.36,58.38 162.73,0.00">
        <lane id="-534588621#1_0" index="0" allow="pedestrian" speed="13.89" length="118.88" width="3.00" shape="109.01,54.70 158.38,-3.68">
            <param key="origId" value="534588621"/>
        </lane>
        <lane id="-534588621#1_1" index="1" allow="bicycle" speed="13.89" length="118.88" width="1.00" shape="110.53,55.99 159.90,-2.39">
            <param key="origId" value="534588621"/>
        </lane>
        <lane id="-534588621#1_2" index="2" disallow="pedestrian bicycle tram rail_urban rail rail_electric ship" speed="13.89" length="118.88" shape="112.14,57.35 161.51,-1.03">
            <param key="origId" value="534588621"/>
        </lane>
        <param key="origFrom" value="2121324874"/>
    </edge>
    <edge id="171826985#3" from="1827996550" to="cluster_1827996421_1827996431_1827996455_2121324874_21487210_29221504_29221506_341340973_3792418589_3792418616_3792418629_3792418630_3792418641_3792418791" name="Karl-Liebknecht-Straße" priority="9" spreadType="center" shape="158.46,169.07 101.86,125.03 98.94,122.76">
        <lane id="171826985#3_0" index="0" allow="pedestrian" speed="13.89" length="109.70" width="3.00" shape="155.21,173.25 98.61,129.21 95.43,126.74">
            <param key="origId" value="171826985"/>
        </lane>
        <lane id="171826985#3_1" index="1" allow="bicycle" speed="13.89" length="109.70" width="1.00" shape="156.43,171.67 99.83,127.63 96.65,125.16">
            <param key="origId" value="171826985"/>
        </lane>
        <lane id="171826985#3_2" index="2" disallow="pedestrian tram rail_urban rail rail_electric ship" speed="13.89" length="109.70" shape="157.72,170.02 101.12,125.98 97.94,123.50">
            <param key="origId" value="171826985"/>
        </lane>
        <lane id="171826985#3_3" index="3" disallow="pedestrian tram rail_urban rail rail_electric ship" speed="13.89" length="109.70" shape="159.69,167.49 103.09,123.45 99.89,120.97">
            <param key="origId" value="171826985"/>
        </lane>
        <lane id="171826985#3_4" index="4" disallow="pedestrian tram rail_urban rail rail_electric ship" speed="13.89" length="109.70" shape="161.65,164.97 105.05,120.93 101.85,118.44">
            <param key="origId" value="171826985"/>
        </lane>
    </edge>
    <edge id="202156994#0" from="341340986" to="cluster_1827996421_1827996431_1827996455_2121324874_21487210_29221504_29221506_341340973_3792418589_3792418616_3792418629_3792418630_3792418641_3792418791" name="Karl-Liebknecht-Straße" priority="9" spreadType="center" shape="11.32,21.69 22.59,30.90 71.85,71.19 74.70,73.52">
        <lane id="202156994#0_0" index="0" allow="pedestrian" speed="13.89" length="106.59" width="3.00" shape="16.38,15.49 27.65,24.71 76.91,65.00 81.37,68.64">
            <param key="origId" value="202156994"/>
        </lane>
        <lane id="202156994#0_1" index="1" disallow="pedestrian tram rail_urban rail rail_electric ship" speed="13.89" length="106.59" shape="14.42,17.89 25.69,27.11 74.95,67.40 79.32,70.97">
            <param key="origId" value="202156994"/>
        </lane>
        <lane id="202156994#0_2" index="2" disallow="pedestrian tram rail_urban rail rail_electric ship" speed="13.89" length="106.59" shape="12.39,20.37 23.67,29.58 72.93,69.87 77.20,73.37">
            <param key="origId" value="202156994"/>
        </lane>
        <lane id="202156994#0_3" index="3" disallow="pedestrian tram rail_urban rail rail_electric ship" speed="13.89" length="106.59" shape="10.37,22.85 21.64,32.06 70.90,72.35 75.09,75.77">
            <param key="origId" value="202156994"/>
        </lane>
        <lane id="202156994#0_4" index="4" disallow="pedestrian tram rail_urban rail rail_electric ship" speed="13.89" length="106.59" shape="8.34,25.33 19.61,34.54 68.87,74.83 72.97,78.18">
            <param key="origId" value="202156994"/>
        </lane>
        <lane id="202156994#0_5" index="5" disallow="pedestrian tram rail_urban rail rail_electric ship" speed="13.89" length="106.59" shape="6.32,27.81 17.59,37.02 66.85,77.31 70.85,80.58">
            <param key="origId" value="202156994"/>
        </lane>
    </edge>
    <edge id="202157002#3" from="3792418640" to="cluster_1827996421_1827996431_1827996455_2121324874_21487210_29221504_29221506_341340973_3792418589_3792418616_3792418629_3792418630_3792418641_3792418791" name="Spandauer Straße" priority="6" spreadType="center" shape="14.01,165.80 57.49,110.16">
        <lane id="202157002#3_0" index="0" allow="pedestrian" speed="13.89" length="108.14" width="3.00" shape="10.90,163.37 53.82,108.45">
            <param key="origId" value="202157002"/>
        </lane>
        <lane id="202157002#3_1" index="1" allow="bicycle" speed="13.89" length="108.14" width="1.50" shape="12.67,164.75 55.65,109.76">
            <param key="origId" value="202157002"/>
        </lane>
        <lane id="202157002#3_2" index="2" disallow="pedestrian tram rail_urban rail rail_electric ship" speed="13.89" length="108.14" shape="14.52,166.20 57.56,111.12">
            <param key="origId" value="202157002"/>
        </lane>
        <lane id="202157002#3_3" index="3" disallow="pedestrian tram rail_urban rail rail_electric ship" speed="13.89" length="108.14" shape="17.04,168.17 60.17,112.98">
            <param key="origId" value="202157002"/>
        </lane>
        <param key="origTo" value="3792418630"/>
    </edge>
    <edge id="24913519#1" from="cluster_1827996421_1827996431_1827996455_2121324874_21487210_29221504_29221506_341340973_3792418589_3792418616_3792418629_3792418630_3792418641_3792418791" to="768082167" name="Karl-Liebknecht-Straße" priority="9" spreadType="center" shape="61.85,90.79 60.08,89.23 9.51,44.98 0.00,36.67">
        <lane id="24913519#1_0" index="0" allow="pedestrian" speed="13.89" length="109.94" width="3.00" shape="59.73,93.19 57.97,91.63 7.40,47.39 -2.11,39.08">
            <param key="origId" value="24913519"/>
        </lane>
        <lane id="24913519#1_1" index="1" disallow="pedestrian tram rail_urban rail rail_electric ship" speed="13.89" length="109.94" shape="61.78,90.87 60.01,89.31 9.44,45.06 -0.07,36.75">
            <param key="origId" value="24913519"/>
        </lane>
        <lane id="24913519#1_2" index="2" disallow="pedestrian tram rail_urban rail rail_electric ship" speed="13.89" length="109.94" shape="63.90,88.46 62.13,86.90 11.55,42.65 2.04,34.34">
            <param key="origId" value="24913519"/>
        </lane>
        <param key="origFrom" value="3792418791"/>
    </edge>
    <edge id="4773465#1" from="cluster_1827996421_1827996431_1827996455_2121324874_21487210_29221504_29221506_341340973_3792418589_3792418616_3792418629_3792418630_3792418641_3792418791" to="1157325174" name="Spandauer Straße" priority="6" spreadType="center" shape="75.52,123.95 69.62,132.21 58.74,146.02 26.37,187.09">
        <lane id="4773465#1_0" index="0" allow="pedestrian" speed="13.89" length="116.19" width="3.00" shape="78.73,126.25 72.78,134.58 61.84,148.46 29.47,189.54">
            <param key="origId" value="4773465"/>
        </lane>
        <lane id="4773465#1_1" index="1" allow="bicycle" speed="13.89" length="116.19" width="1.50" shape="76.90,124.94 70.98,133.23 60.08,147.07 27.71,188.14">
            <param key="origId" value="4773465"/>
        </lane>
        <lane id="4773465#1_2" index="2" disallow="pedestrian bicycle tram rail_urban rail rail_electric ship" speed="13.89" length="116.19" shape="74.99,123.57 69.10,131.82 58.23,145.62 25.86,186.69">
            <param key="origId" value="4773465"/>
        </lane>
        <lane id="4773465#1_3" index="3" disallow="pedestrian bicycle tram rail_urban rail rail_electric ship" speed="13.89" length="116.19" shape="72.39,121.71 66.54,129.90 55.72,143.64 23.35,184.71">
            <param key="origId" value="4773465"/>
        </lane>
        <param key="origFrom" value="3792418616"/>
    </edge>
    <edge id="534588621#1" from="3182529377" to="cluster_1827996421_1827996431_1827996455_2121324874_21487210_29221504_29221506_341340973_3792418589_3792418616_3792418629_3792418630_3792418641_3792418791" name="Spandauer Straße" priority="7" shape="162.73,0.00 113.36,58.38">
        <lane id="534588621#1_0" index="0" allow="pedestrian" speed="13.89" length="118.88" width="3.00" shape="167.08,3.68 117.71,62.06">
            <param key="origId" value="534588621"/>
        </lane>
        <lane id="534588621#1_1" index="1" allow="bicycle" speed="13.89" length="118.88" width="1.00" shape="165.56,2.39 116.19,60.77">
            <param key="origId" value="534588621"/>
        </lane>
        <lane id="534588621#1_2" index="2" disallow="pedestrian bicycle tram rail_urban rail rail_electric ship" speed="13.89" length="118.88" shape="163.95,1.03 114.58,59.41">
            <param key="origId" value="534588621"/>
        </lane>
        <param key="origTo" value="2121324874"/>
    </edge>
    <edge id="72157174#1" from="cluster_1827996421_1827996431_1827996455_2121324874_21487210_29221504_29221506_341340973_3792418589_3792418616_3792418629_3792418630_3792418641_3792418791" to="1827996414" name="Karl-Liebknecht-Straße" priority="9" spreadType="center" shape="112.13,105.14 114.07,106.64 140.51,127.08">
        <lane id="72157174#1_0" index="0" allow="pedestrian" speed="13.89" length="64.59" width="3.00" shape="115.07,101.34 117.01,102.84 143.45,123.28">
            <param key="origId" value="72157174"/>
        </lane>
        <lane id="72157174#1_1" index="1" disallow="pedestrian tram rail_urban rail rail_electric ship" speed="13.89" length="64.59" shape="113.17,103.80 115.11,105.30 141.55,125.74">
            <param key="origId" value="72157174"/>
        </lane>
        <lane id="72157174#1_2" index="2" disallow="pedestrian tram rail_urban rail rail_electric ship" speed="13.89" length="64.59" shape="111.21,106.33 113.15,107.83 139.59,128.27">
            <param key="origId" value="72157174"/>
        </lane>
        <lane id="72157174#1_3" index="3" disallow="pedestrian tram rail_urban rail rail_electric ship" speed="13.89" length="64.59" shape="109.26,108.86 111.20,110.36 137.64,130.80">
            <param key="origId" value="72157174"/>
        </lane>
        <param key="origFrom" value="1827996431"/>
    </edge>

    <tlLogic id="cluster_1827996421_1827996431_1827996455_2121324874_21487210_29221504_29221506_341340973_3792418589_3792418616_3792418629_3792418630_3792418641_3792418791" type="static" programID="0" offset="0">
        <phase duration="33" state="GggGGgrrrrrGGGGGggrrrr"/>
        <phase duration="3"  state="yyyyygrrrrryyyyyggrrrr"/>
        <phase duration="6"  state="rrrrrGrrrrrrrrrrGGrrrr"/>
        <phase duration="3"  state="rrrrryrrrrrrrrrryyrrrr"/>
        <phase duration="33" state="rrrrrrGggGgrrrrrrrGgGg"/>
        <phase duration="3"  state="rrrrrryyyygrrrrrrryyyg"/>
        <phase duration="6"  state="rrrrrrrrrrGrrrrrrrrrrG"/>
        <phase duration="3"  state="rrrrrrrrrryrrrrrrrrrry"/>
    </tlLogic>

    <junction id="1157325174" type="dead_end" x="24.61" y="185.70" incLanes="4773465#1_0 4773465#1_1 4773465#1_2 4773465#1_3" intLanes="" shape="30.65,190.46 22.09,183.71"/>
    <junction id="1827996414" type="dead_end" x="139.60" y="128.26" incLanes="72157174#1_0 72157174#1_1 72157174#1_2 72157174#1_3" intLanes="" shape="144.36,122.10 136.66,132.07"/>
    <junction id="1827996550" type="dead_end" x="159.69" y="167.49" incLanes="" intLanes="" shape="162.64,163.70 154.28,174.44"/>
    <junction id="3182529377" type="dead_end" x="162.73" y="0.00" incLanes="-534588621#1_0 -534588621#1_1 -534588621#1_2" intLanes="" shape="162.73,0.00 157.23,-4.65 162.73,0.00"/>
    <junction id="341340986" type="dead_end" x="10.37" y="22.85" incLanes="" intLanes="" shape="5.31,29.05 17.33,14.33"/>
    <junction id="3792418640" type="dead_end" x="15.79" y="167.17" incLanes="" intLanes="" shape="18.31,169.14 9.73,162.43"/>
    <junction id="768082167" type="dead_end" x="0.99" y="35.54" incLanes="24913519#1_0 24913519#1_1 24913519#1_2" intLanes="" shape="-3.09,40.21 3.09,33.13"/>
    <junction id="cluster_1827996421_1827996431_1827996455_2121324874_21487210_29221504_29221506_341340973_3792418589_3792418616_3792418629_3792418630_3792418641_3792418791" type="traffic_light" x="88.05" y="92.43" incLanes="171826985#3_0 171826985#3_1 171826985#3_2 171826985#3_3 171826985#3_4 534588621#1_0 534588621#1_1 534588621#1_2 202156994#0_0 202156994#0_1 202156994#0_2 202156994#0_3 202156994#0_4 202156994#0_5 202157002#3_0 202157002#3_1 202157002#3_2 202157002#3_3" intLanes="" shape="94.51,127.93 115.98,100.16 111.27,95.42 108.64,90.10 108.08,84.21 109.60,77.73 113.19,70.67 118.86,63.03 107.86,53.73 102.34,59.80 97.33,64.36 92.83,67.41 88.83,68.96 85.35,68.99 82.36,67.51 58.74,94.32 59.17,96.77 58.45,98.73 57.12,101.19 55.17,104.13 52.59,107.57 79.95,127.12 81.70,125.26 83.72,124.21 86.01,123.94 88.57,124.48 91.40,125.81">
        <request index="0"  response="0000000000000000000000" foes="0000010000000001000000"/>
        <request index="1"  response="0000001111100000011000" foes="1101001111111011011100"/>
        <request index="2"  response="0000000000000000000010" foes="0000110000001001000010"/>
        <request index="3"  response="0000000000000000000000" foes="1111110000011011000010"/>
        <request index="4"  response="0000000000000000000000" foes="1111110000011011000010"/>
        <request index="5"  response="0000001111000000000000" foes="1100001111011011000000"/>
        <request index="6"  response="0000011110000000111111" foes="1000011110000100111111"/>
        <request index="7"  response="0111111110001000111010" foes="0111111110001100111010"/>
        <request index="8"  response="0000001110000011000000" foes="0000001110000011000000"/>
        <request index="9"  response="0000111110000000111110" foes="1000111110000010111110"/>
        <request index="10" response="0111111110000000111010" foes="0111111110000000111010"/>
        <request index="11" response="0000000000000000000000" foes="0001000000000000000010"/>
        <request index="12" response="0000000000000000000000" foes="0101000000000000100010"/>
        <request index="13" response="0000000000000000000000" foes="1101000000011111100010"/>
        <request index="14" response="0000000000000000000000" foes="1101000000011111100010"/>
        <request index="15" response="0000000000000000000000" foes="1101000000011111100010"/>
        <request index="16" response="0000000000000000011101" foes="1101000000011011011101"/>
        <request index="17" response="0000000000000000011100" foes="1101000000011010011100"/>
        <request index="18" response="0000111111100000011010" foes="0010111111110010011010"/>
        <request index="19" response="0001000000000000011000" foes="0001000000010010011000"/>
        <request index="20" response="0000111111000000111010" foes="0000111111010010111010"/>
        <request index="21" response="0000111110001001111010" foes="0000111110001001111010"/>
    </junction>

    <connection from="171826985#3" to="4773465#1" fromLane="1" toLane="1" tl="cluster_1827996421_1827996431_1827996455_2121324874_21487210_29221504_29221506_341340973_3792418589_3792418616_3792418629_3792418630_3792418641_3792418791" linkIndex="0" dir="r" state="O"/>
    <connection from="171826985#3" to="-534588621#1" fromLane="1" toLane="1" tl="cluster_1827996421_1827996431_1827996455_2121324874_21487210_29221504_29221506_341340973_3792418589_3792418616_3792418629_3792418630_3792418641_3792418791" linkIndex="1" dir="l" state="o"/>
    <connection from="171826985#3" to="4773465#1" fromLane="2" toLane="2" tl="cluster_1827996421_1827996431_1827996455_2121324874_21487210_29221504_29221506_341340973_3792418589_3792418616_3792418629_3792418630_3792418641_3792418791" linkIndex="2" dir="r" state="o"/>
    <connection from="171826985#3" to="24913519#1" fromLane="2" toLane="1" tl="cluster_1827996421_1827996431_1827996455_2121324874_21487210_29221504_29221506_341340973_3792418589_3792418616_3792418629_3792418630_3792418641_3792418791" linkIndex="3" dir="s" state="O"/>
    <connection from="171826985#3" to="24913519#1" fromLane="3" toLane="2" tl="cluster_1827996421_1827996431_1827996455_2121324874_21487210_29221504_29221506_341340973_3792418589_3792418616_3792418629_3792418630_3792418641_3792418791" linkIndex="4" dir="s" state="O"/>
    <connection from="171826985#3" to="-534588621#1" fromLane="4" toLane="2" tl="cluster_1827996421_1827996431_1827996455_2121324874_21487210_29221504_29221506_341340973_3792418589_3792418616_3792418629_3792418630_3792418641_3792418791" linkIndex="5" dir="l" state="o"/>
    <connection from="202156994#0" to="-534588621#1" fromLane="1" toLane="1" tl="cluster_1827996421_1827996431_1827996455_2121324874_21487210_29221504_29221506_341340973_3792418589_3792418616_3792418629_3792418630_3792418641_3792418791" linkIndex="11" dir="r" state="O"/>
    <connection from="202156994#0" to="-534588621#1" fromLane="1" toLane="2" tl="cluster_1827996421_1827996431_1827996455_2121324874_21487210_29221504_29221506_341340973_3792418589_3792418616_3792418629_3792418630_3792418641_3792418791" linkIndex="12" dir="r" state="O"/>
    <connection from="202156994#0" to="72157174#1" fromLane="1" toLane="1" tl="cluster_1827996421_1827996431_1827996455_2121324874_21487210_29221504_29221506_341340973_3792418589_3792418616_3792418629_3792418630_3792418641_3792418791" linkIndex="13" dir="s" state="O"/>
    <connection from="202156994#0" to="72157174#1" fromLane="2" toLane="2" tl="cluster_1827996421_1827996431_1827996455_2121324874_21487210_29221504_29221506_341340973_3792418589_3792418616_3792418629_3792418630_3792418641_3792418791" linkIndex="14" dir="s" state="O"/>
    <connection from="202156994#0" to="72157174#1" fromLane="3" toLane="3" tl="cluster_1827996421_1827996431_1827996455_2121324874_21487210_29221504_29221506_341340973_3792418589_3792418616_3792418629_3792418630_3792418641_3792418791" linkIndex="15" dir="s" state="O"/>
    <connection from="202156994#0" to="4773465#1" fromLane="4" toLane="1" tl="cluster_1827996421_1827996431_1827996455_2121324874_21487210_29221504_29221506_341340973_3792418589_3792418616_3792418629_3792418630_3792418641_3792418791" linkIndex="16" dir="l" state="o"/>
    <connection from="202156994#0" to="4773465#1" fromLane="5" toLane="3" tl="cluster_1827996421_1827996431_1827996455_2121324874_21487210_29221504_29221506_341340973_3792418589_3792418616_3792418629_3792418630_3792418641_3792418791" linkIndex="17" dir="l" state="o"/>
    <connection from="202157002#3" to="-534588621#1" fromLane="1" toLane="1" tl="cluster_1827996421_1827996431_1827996455_2121324874_21487210_29221504_29221506_341340973_3792418589_3792418616_3792418629_3792418630_3792418641_3792418791" linkIndex="18" dir="s" state="o"/>
    <connection from="202157002#3" to="24913519#1" fromLane="2" toLane="1" tl="cluster_1827996421_1827996431_1827996455_2121324874_21487210_29221504_29221506_341340973_3792418589_3792418616_3792418629_3792418630_3792418641_3792418791" linkIndex="19" dir="r" state="o"/>
    <connection from="202157002#3" to="-534588621#1" fromLane="2" toLane="2" tl="cluster_1827996421_1827996431_1827996455_2121324874_21487210_29221504_29221506_341340973_3792418589_3792418616_3792418629_3792418630_3792418641_3792418791" linkIndex="20" dir="s" state="o"/>
    <connection from="202157002#3" to="72157174#1" fromLane="3" toLane="3" tl="cluster_1827996421_1827996431_1827996455_2121324874_21487210_29221504_29221506_341340973_3792418589_3792418616_3792418629_3792418630_3792418641_3792418791" linkIndex="21" dir="l" state="o"/>
    <connection from="534588621#1" to="4773465#1" fromLane="1" toLane="1" tl="cluster_1827996421_1827996431_1827996455_2121324874_21487210_29221504_29221506_341340973_3792418589_3792418616_3792418629_3792418630_3792418641_3792418791" linkIndex="6" dir="s" state="o"/>
    <connection from="534588621#1" to="24913519#1" fromLane="1" toLane="1" tl="cluster_1827996421_1827996431_1827996455_2121324874_21487210_29221504_29221506_341340973_3792418589_3792418616_3792418629_3792418630_3792418641_3792418791" linkIndex="7" dir="l" state="o"/>
    <connection from="534588621#1" to="72157174#1" fromLane="2" toLane="1" tl="cluster_1827996421_1827996431_1827996455_2121324874_21487210_29221504_29221506_341340973_3792418589_3792418616_3792418629_3792418630_3792418641_3792418791" linkIndex="8" dir="r" state="o"/>
    <connection from="534588621#1" to="4773465#1" fromLane="2" toLane="3" tl="cluster_1827996421_1827996431_1827996455_2121324874_21487210_29221504_29221506_341340973_3792418589_3792418616_3792418629_3792418630_3792418641_3792418791" linkIndex="9" dir="s" state="o"/>
    <connection from="534588621#1" to="24913519#1" fromLane="2" toLane="2" tl="cluster_1827996421_1827996431_1827996455_2121324874_21487210_29221504_29221506_341340973_3792418589_3792418616_3792418629_3792418630_3792418641_3792418791" linkIndex="10" dir="l" state="o"/>

</net>
