<?xml version="1.0" encoding="UTF-8"?>

<edges version="1.20" xmlns:xsi="http://www.w3.org/2001/XMLSchema-instance" xsi:noNamespaceSchemaLocation="http://sumo.dlr.de/xsd/edgediff_file.xsd">
    <edge id="E1" allow="bus passenger"/>
</edges>
