<?xml version="1.0" encoding="UTF-8"?>

<!-- generated on Mon Feb 17 15:31:02 2020 by Eclipse SUMO netconvert Version v1_5_0+0130-ceb0a01
This data file and the accompanying materials
are made available under the terms of the Eclipse Public License v2.0
which accompanies this distribution, and is available at
http://www.eclipse.org/legal/epl-v20.html
SPDX-License-Identifier: EPL-2.0
<configuration xmlns:xsi="http://www.w3.org/2001/XMLSchema-instance" xsi:noNamespaceSchemaLocation="http://sumo.dlr.de/xsd/netconvertConfiguration.xsd">

    <input>
        <node-files value="input_nodes.nod.xml"/>
        <edge-files value="input_edges.edg.xml"/>
    </input>

    <output>
        <write-license value="true"/>
    </output>

    <tls_building>
        <tls.set value="15030102"/>
    </tls_building>

    <report>
        <verbose value="true"/>
        <xml-validation value="never"/>
        <aggregate-warnings value="5"/>
    </report>

</configuration>
-->

<net version="1.6" junctionCornerDetail="5" limitTurnSpeed="5.50" xmlns:xsi="http://www.w3.org/2001/XMLSchema-instance" xsi:noNamespaceSchemaLocation="http://sumo.dlr.de/xsd/net_file.xsd">

    <location netOffset="-16903.00,-20963.00" convBoundary="0.00,0.00,405.00,265.00" origBoundary="16903.00,20963.00,17308.00,21228.00" projParameter="!"/>

    <edge id=":15030102_0" function="internal">
        <lane id=":15030102_0_0" index="0" speed="13.89" length="9.39" shape="233.70,147.41 241.56,152.55"/>
        <lane id=":15030102_0_1" index="1" speed="13.89" length="9.39" shape="231.95,150.09 239.81,155.23"/>
    </edge>
    <edge id=":15030102_2" function="internal">
        <lane id=":15030102_2_0" index="0" speed="6.10" length="7.77" shape="231.95,150.09 234.14,151.76 235.47,153.32 235.93,154.79 235.52,156.15"/>
    </edge>
    <edge id=":15030102_3" function="internal">
        <lane id=":15030102_3_0" index="0" speed="6.07" length="7.78" shape="232.83,154.42 233.90,153.48 235.42,153.30 237.39,153.89 239.81,155.23"/>
    </edge>
    <edge id=":15030102_4" function="internal">
        <lane id=":15030102_4_0" index="0" speed="3.65" length="4.67" shape="232.83,154.42 234.15,153.84 235.04,153.94 235.50,154.70 235.52,156.15"/>
    </edge>
    <edge id=":15034045_0" function="internal">
        <lane id=":15034045_0_0" index="0" speed="3.65" length="4.67" shape="227.35,168.87 226.02,169.44 225.13,169.35 224.68,168.58 224.65,167.13"/>
    </edge>

    <edge id="-152850000" from="15034045" to="15030102" priority="-1">
        <lane id="-152850000_0" index="0" speed="12.50" length="15.12" shape="224.65,167.13 232.83,154.42"/>
    </edge>
    <edge id="152850000" from="15030102" to="15034045" priority="-1">
        <lane id="152850000_0" index="0" speed="12.50" length="15.12" shape="235.52,156.15 227.35,168.87"/>
    </edge>
    <edge id="153120297" from="15031877" to="15030102" priority="-1">
        <lane id="153120297_0" index="0" speed="13.89" length="276.26" shape="2.63,-4.01 233.70,147.41"/>
        <lane id="153120297_1" index="1" speed="13.89" length="276.26" shape="0.88,-1.34 231.95,150.09"/>
    </edge>
    <edge id="153120299" from="15030102" to="15030099" priority="-1">
        <lane id="153120299_0" index="0" speed="13.89" length="198.33" shape="241.56,152.55 407.62,260.98"/>
        <lane id="153120299_1" index="1" speed="13.89" length="198.33" shape="239.81,155.23 405.87,263.66"/>
    </edge>

    <tlLogic id="15030102" type="static" programID="0" offset="0">
        <phase duration="42" state="GGGrr"/>
        <phase duration="3"  state="yyyrr"/>
        <phase duration="42" state="rrrGG"/>
        <phase duration="3"  state="rrryy"/>
    </tlLogic>

    <junction id="15030099" type="dead_end" x="405.00" y="265.00" incLanes="153120299_0 153120299_1" intLanes="" shape="408.50,259.64 405.00,265.00"/>
    <junction id="15030102" type="traffic_light" x="235.00" y="154.00" incLanes="153120297_0 153120297_1 -152850000_0" intLanes=":15030102_0_0 :15030102_0_1 :15030102_2_0 :15030102_3_0 :15030102_4_0" shape="238.94,156.57 242.43,151.21 234.58,146.07 231.07,151.42 231.67,152.03 231.80,152.37 231.81,152.73 231.71,153.13 231.48,153.55 236.87,157.01 237.46,156.40 237.79,156.27 238.15,156.25 238.53,156.35">
        <request index="0" response="00000" foes="01000" cont="0"/>
        <request index="1" response="00000" foes="01000" cont="0"/>
        <request index="2" response="00000" foes="11000" cont="0"/>
        <request index="3" response="00111" foes="00111" cont="0"/>
        <request index="4" response="00100" foes="00100" cont="0"/>
    </junction>
    <junction id="15031877" type="dead_end" x="0.00" y="0.00" incLanes="" intLanes="" shape="0.00,0.00 3.51,-5.35"/>
    <junction id="15034045" type="priority" x="226.00" y="168.00" incLanes="152850000_0" intLanes=":15034045_0_0" shape="226.00,168.00 228.69,169.73 226.00,168.00">
        <request index="0" response="0" foes="0" cont="0"/>
    </junction>

    <connection from="-152850000" to="153120299" fromLane="0" toLane="1" via=":15030102_3_0" tl="15030102" linkIndex="3" dir="l" state="o"/>
    <connection from="-152850000" to="152850000" fromLane="0" toLane="0" via=":15030102_4_0" tl="15030102" linkIndex="4" dir="t" state="o"/>
    <connection from="152850000" to="-152850000" fromLane="0" toLane="0" via=":15034045_0_0" dir="t" state="M"/>
    <connection from="153120297" to="153120299" fromLane="0" toLane="0" via=":15030102_0_0" tl="15030102" linkIndex="0" dir="s" state="O"/>
    <connection from="153120297" to="153120299" fromLane="1" toLane="1" via=":15030102_0_1" tl="15030102" linkIndex="1" dir="s" state="O"/>
    <connection from="153120297" to="152850000" fromLane="1" toLane="0" via=":15030102_2_0" tl="15030102" linkIndex="2" dir="l" state="O"/>

    <connection from=":15030102_0" to="153120299" fromLane="0" toLane="0" dir="s" state="M"/>
    <connection from=":15030102_0" to="153120299" fromLane="1" toLane="1" dir="s" state="M"/>
    <connection from=":15030102_2" to="152850000" fromLane="0" toLane="0" dir="l" state="M"/>
    <connection from=":15030102_3" to="153120299" fromLane="0" toLane="1" dir="l" state="M"/>
    <connection from=":15030102_4" to="152850000" fromLane="0" toLane="0" dir="t" state="M"/>
    <connection from=":15034045_0" to="-152850000" fromLane="0" toLane="0" dir="t" state="M"/>

</net>
