<?xml version="1.0" encoding="UTF-8"?>

<!-- generated on 13.05.2019 10:19:07 by Eclipse SUMO netedit Version v1_2_0+0323-a3c4a77541
<configuration xmlns:xsi="http://www.w3.org/2001/XMLSchema-instance" xsi:noNamespaceSchemaLocation="http://sumo.dlr.de/xsd/netconvertConfiguration.xsd">

    <input>
        <sumo-net-file value="C:/Users/SUMO-Test/.texttest/tmp/netedit.gui.7_from_12May112745.2804/netedit.gui/shapeElements/poi/create/layer\input_net.net.xml"/>
    </input>

    <output>
        <output-file value="C:/Users/SUMO-Test/.texttest/tmp/netedit.gui.7_from_12May112745.2804/netedit.gui/shapeElements/poi/create/layer\net.net.xml"/>
    </output>

    <processing>
        <geometry.max-grade.fix value="false"/>
        <offset.disable-normalization value="true"/>
        <lefthand value="false"/>
    </processing>

    <junctions>
        <no-turnarounds value="true"/>
        <junctions.corner-detail value="5"/>
        <junctions.limit-turn-speed value="5.5"/>
        <rectangular-lane-cut value="false"/>
    </junctions>

    <pedestrian>
        <walkingareas value="false"/>
    </pedestrian>

    <netedit>
        <additional-files value="C:/Users/SUMO-Test/.texttest/tmp/netedit.gui.7_from_12May112745.2804/netedit.gui/shapeElements/poi/create/layer\additionals.xml"/>
        <additionals-output value="C:/Users/SUMO-Test/.texttest/tmp/netedit.gui.7_from_12May112745.2804/netedit.gui/shapeElements/poi/create/layer\additionals.xml"/>
        <route-files value="C:/Users/SUMO-Test/.texttest/tmp/netedit.gui.7_from_12May112745.2804/netedit.gui/shapeElements/poi/create/layer\routes.xml"/>
        <demandelements-output value="C:/Users/SUMO-Test/.texttest/tmp/netedit.gui.7_from_12May112745.2804/netedit.gui/shapeElements/poi/create/layer\routes.xml"/>
    </netedit>

    <visualisation>
        <gui-settings-file value="C:/Users/SUMO-Test/.texttest/tmp/netedit.gui.7_from_12May112745.2804/netedit.gui/shapeElements/poi/create/layer\gui-settings.xml"/>
        <window-size value="700,500"/>
        <window-pos value="50,50"/>
        <gui-testing value="true"/>
        <gui-testing-debug value="true"/>
        <gui-testing-debug-gl value="true"/>
    </visualisation>

    <report>
        <no-warnings value="true"/>
        <error-log value="C:/Users/SUMO-Test/.texttest/tmp/netedit.gui.7_from_12May112745.2804/netedit.gui/shapeElements/poi/create/layer\log.txt"/>
    </report>

</configuration>
-->

<additional xmlns:xsi="http://www.w3.org/2001/XMLSchema-instance" xsi:noNamespaceSchemaLocation="http://sumo.dlr.de/xsd/additional_file.xsd">
    <poi id="POI_0" color="red" layer="-2.00" x="6.00" y="20.00"/>
    <poi id="POI_1" color="red" layer="6.50" x="12.00" y="20.00"/>
</additional>
