<?xml version="1.0" encoding="UTF-8"?>

<!-- generated on 2024-03-27 12:07:57 by Eclipse SUMO polyconvert Version v1_19_0+1556-21d71cc5145
This data file and the accompanying materials
are made available under the terms of the Eclipse Public License v2.0
which accompanies this distribution, and is available at
http://www.eclipse.org/legal/epl-v20.html
This file may also be made available under the following Secondary
Licenses when the conditions for such availability set forth in the Eclipse
Public License 2.0 are satisfied: GNU General Public License, version 2
or later which is available at
https://www.gnu.org/licenses/old-licenses/gpl-2.0-standalone.html
SPDX-License-Identifier: EPL-2.0 OR GPL-2.0-or-later
<configuration xmlns:xsi="http://www.w3.org/2001/XMLSchema-instance" xsi:noNamespaceSchemaLocation="http://sumo.dlr.de/xsd/polyconvertConfiguration.xsd">

    <input>
        <osm-files value="osm.xml"/>
        <osm.keep-full-type value="true"/>
    </input>

    <output>
        <write-license value="true"/>
        <output-file value="pois.poi.xml"/>
    </output>

    <projection>
        <proj.scale value="1.00000"/>
        <proj.utm value="true"/>
        <proj.plain-geo value="true"/>
    </projection>

    <processing>
        <all-attributes value="true"/>
    </processing>

    <report>
        <verbose value="true"/>
        <xml-validation value="never"/>
    </report>

</configuration>
-->

<additional xmlns:xsi="http://www.w3.org/2001/XMLSchema-instance" xsi:noNamespaceSchemaLocation="http://sumo.dlr.de/xsd/additional_file.xsd">
</additional>
