<?xml version="1.0"?>

<!-- generated on 01/28/09 10:27:41 by SUMO sumo Version dev-SVN-r6670
<configuration>

   <input>
      <net-file>net.net.xml</net-file>
      <additional-files>input_routes.rou.xml,input_additional.add.xml,input_additional2.add.xml</additional-files>
   </input>

   <time>
      <begin>0</begin>
      <end>1000</end>
   </time>

   <processing>
      <no-duration-log>true</no-duration-log>
      <no-step-log>true</no-step-log>
   </processing>

</configuration>
-->

<netstats>
   <interval begin="0" end="59" id="dump_60">
      <edge id="3/1to2/1">
         <lane id="3/1to2/1_0" traveltime="40.76" sampledSeconds="51.67" density="2.21" occupancy="1.10" noStops="0" speed="9.58" entered="2" emitted="0" left="0"/>
      </edge>
      <edge id="4/1to3/1">
         <lane id="4/1to3/1_0" traveltime="41.22" sampledSeconds="63.33" density="2.70" occupancy="1.35" noStops="0" speed="9.47" entered="0" emitted="2" left="2"/>
      </edge>
   </interval>
   <interval begin="60" end="119" id="dump_60">
      <edge id="1/1to0/1">
         <lane id="1/1to0/1_0" traveltime="39.05" sampledSeconds="0.85" density="0.04" occupancy="0.02" noStops="0" speed="10.00" entered="1" emitted="0" left="0"/>
      </edge>
      <edge id="2/1to1/1">
         <lane id="2/1to1/1_0" traveltime="41.09" sampledSeconds="77.38" density="3.30" occupancy="1.65" noStops="0" speed="9.50" entered="2" emitted="0" left="1"/>
      </edge>
      <edge id="3/1to2/1">
         <lane id="3/1to2/1_0" traveltime="42.01" sampledSeconds="30.77" density="1.31" occupancy="0.66" noStops="0" speed="9.30" entered="0" emitted="0" left="2"/>
      </edge>
   </interval>
   <interval begin="120" end="179" id="dump_60">
      <edge id="1/1to0/1">
         <lane id="1/1to0/1_0" traveltime="43.39" sampledSeconds="0.94" density="0.04" occupancy="0.02" noStops="0" speed="9.00" entered="1" emitted="0" left="0"/>
      </edge>
      <edge id="2/1to1/1">
         <lane id="2/1to1/1_0" traveltime="43.39" sampledSeconds="5.06" density="0.22" occupancy="0.11" noStops="0" speed="9.00" entered="0" emitted="0" left="1"/>
      </edge>
   </interval>
   <interval begin="180" end="239" id="dump_60">
   </interval>
   <interval begin="240" end="299" id="dump_60">
   </interval>
   <interval begin="300" end="359" id="dump_60">
   </interval>
   <interval begin="360" end="419" id="dump_60">
   </interval>
   <interval begin="420" end="479" id="dump_60">
   </interval>
   <interval begin="480" end="539" id="dump_60">
   </interval>
   <interval begin="540" end="599" id="dump_60">
   </interval>
   <interval begin="600" end="659" id="dump_60">
   </interval>
   <interval begin="660" end="719" id="dump_60">
   </interval>
   <interval begin="720" end="779" id="dump_60">
   </interval>
   <interval begin="780" end="839" id="dump_60">
   </interval>
   <interval begin="840" end="899" id="dump_60">
   </interval>
   <interval begin="900" end="959" id="dump_60">
   </interval>
   <interval begin="960" end="1000" id="dump_60">
   </interval>
</netstats>
