<?xml version="1.0" encoding="UTF-8"?>

<!-- generated on 2021-06-16 09:52:02 by Eclipse SUMO netedit Version v1_9_2+0572-e90aded036
<configuration xmlns:xsi="http://www.w3.org/2001/XMLSchema-instance" xsi:noNamespaceSchemaLocation="http://sumo.dlr.de/xsd/netconvertConfiguration.xsd">

    <input>
        <sumo-net-file value="C:\Users\alva_pa\.texttest\tmp\netedit.gui.16Jun094209.12572\netedit.gui\additionalElements\parkingarea\inspect_selection\parameters\input_net.net.xml"/>
    </input>

    <output>
        <output-file value="C:\Users\alva_pa\.texttest\tmp\netedit.gui.16Jun094209.12572\netedit.gui\additionalElements\parkingarea\inspect_selection\parameters\net.net.xml"/>
    </output>

    <processing>
        <geometry.min-radius.fix.railways value="false"/>
        <geometry.max-grade.fix value="false"/>
        <offset.disable-normalization value="true"/>
        <lefthand value="false"/>
    </processing>

    <junctions>
        <no-turnarounds value="true"/>
        <junctions.corner-detail value="5"/>
        <junctions.limit-turn-speed value="5.5"/>
        <rectangular-lane-cut value="false"/>
    </junctions>

    <pedestrian>
        <walkingareas value="false"/>
    </pedestrian>

    <netedit>
        <additional-files value="C:\Users\alva_pa\.texttest\tmp\netedit.gui.16Jun094209.12572\netedit.gui\additionalElements\parkingarea\inspect_selection\parameters\additionals.xml"/>
        <additionals-output value="C:\Users\alva_pa\.texttest\tmp\netedit.gui.16Jun094209.12572\netedit.gui\additionalElements\parkingarea\inspect_selection\parameters\additionals.xml"/>
        <route-files value="C:\Users\alva_pa\.texttest\tmp\netedit.gui.16Jun094209.12572\netedit.gui\additionalElements\parkingarea\inspect_selection\parameters\routes.xml"/>
        <demandelements-output value="C:\Users\alva_pa\.texttest\tmp\netedit.gui.16Jun094209.12572\netedit.gui\additionalElements\parkingarea\inspect_selection\parameters\routes.xml"/>
        <data-files value="C:\Users\alva_pa\.texttest\tmp\netedit.gui.16Jun094209.12572\netedit.gui\additionalElements\parkingarea\inspect_selection\parameters\datas.xml"/>
        <dataelements-output value="C:\Users\alva_pa\.texttest\tmp\netedit.gui.16Jun094209.12572\netedit.gui\additionalElements\parkingarea\inspect_selection\parameters\datas.xml"/>
    </netedit>

    <visualisation>
        <gui-settings-file value="C:\Users\alva_pa\.texttest\tmp\netedit.gui.16Jun094209.12572\netedit.gui\additionalElements\parkingarea\inspect_selection\parameters\gui-settings.xml"/>
        <window-size value="936,697"/>
        <window-pos value="50,50"/>
        <gui-testing value="true"/>
        <gui-testing-debug value="true"/>
        <gui-testing.setting-output value="C:\Users\alva_pa\.texttest\tmp\netedit.gui.16Jun094209.12572\netedit.gui\additionalElements\parkingarea\inspect_selection\parameters\guisettingsoutput.xml"/>
    </visualisation>

    <report>
        <no-warnings value="true"/>
        <aggregate-warnings value="5"/>
        <error-log value="C:\Users\alva_pa\.texttest\tmp\netedit.gui.16Jun094209.12572\netedit.gui\additionalElements\parkingarea\inspect_selection\parameters\log.txt"/>
    </report>

</configuration>
-->

<additional xmlns:xsi="http://www.w3.org/2001/XMLSchema-instance" xsi:noNamespaceSchemaLocation="http://sumo.dlr.de/xsd/additional_file.xsd">
    <parkingArea id="parkingAreaA" lane="gneE0_0" startPos="5.00" endPos="10.00" departPos="7" name="parkingArea1" onRoad="1" friendlyPos="1" width="5.00" length="7.00">
        <param key="keyFinal1" value="value1"/>
        <param key="keyFinal2" value="value2"/>
        <param key="keyFinal3" value="value3"/>
    </parkingArea>
    <parkingArea id="parkingAreaB" lane="gneE0_0" startPos="15.00" endPos="20.00" departPos="5" name="parkingArea2" roadsideCapacity="10" width="6.00" length="8.00" angle="30.00">
        <param key="keyFinal1" value="value1"/>
        <param key="keyFinal2" value="value2"/>
        <param key="keyFinal3" value="value3"/>
    </parkingArea>
</additional>
