<?xml version="1.0" encoding="UTF-8"?>

<!-- generated on 2022-04-05 10:18:24 by Eclipse SUMO netedit Version v1_12_0+1943-2be30c2f661
-->

<additional xmlns:xsi="http://www.w3.org/2001/XMLSchema-instance" xsi:noNamespaceSchemaLocation="http://sumo.dlr.de/xsd/additional_file.xsd">
    <!-- StoppingPlaces -->
    <parkingArea id="parkingAreaA" name="parkingArea1" lane="gneE0_0" startPos="5.00" endPos="10.00" friendlyPos="true" onRoad="1" width="5.00" length="7.00" departPos="7">
        <param key="keyFinal1" value="value1"/>
        <param key="keyFinal2" value="value2"/>
        <param key="keyFinal3" value="value3"/>
    </parkingArea>
    <parkingArea id="parkingAreaB" name="parkingArea2" lane="gneE0_0" startPos="15.00" endPos="20.00" roadsideCapacity="10" width="6.00" length="8.00" angle="30.00" departPos="5">
        <param key="keyFinal1" value="value1"/>
        <param key="keyFinal2" value="value2"/>
        <param key="keyFinal3" value="value3"/>
    </parkingArea>
</additional>
