<?xml version="1.0" encoding="UTF-8"?>

<!-- generated on 05.10.2020 08:48:06 by Eclipse SUMO netedit Version v1_7_0+0458-6f06198d66
<configuration xmlns:xsi="http://www.w3.org/2001/XMLSchema-instance" xsi:noNamespaceSchemaLocation="http://sumo.dlr.de/xsd/netconvertConfiguration.xsd">

    <input>
        <new value="true"/>
    </input>

    <output>
        <output-file value="C:\Users\alva_pa\.texttest\tmp\netedit.gui.05Oct084741.11044\netedit.gui\basic\save\new_net\net.net.xml"/>
    </output>

    <processing>
        <offset.disable-normalization value="true"/>
    </processing>

    <netedit>
        <additional-files value="C:\Users\alva_pa\.texttest\tmp\netedit.gui.05Oct084741.11044\netedit.gui\basic\save\new_net\additionals.xml"/>
        <additionals-output value="C:\Users\alva_pa\.texttest\tmp\netedit.gui.05Oct084741.11044\netedit.gui\basic\save\new_net\additionals.xml"/>
        <route-files value="C:\Users\alva_pa\.texttest\tmp\netedit.gui.05Oct084741.11044\netedit.gui\basic\save\new_net\routes.xml"/>
        <demandelements-output value="C:\Users\alva_pa\.texttest\tmp\netedit.gui.05Oct084741.11044\netedit.gui\basic\save\new_net\routes.xml"/>
        <data-files value="C:\Users\alva_pa\.texttest\tmp\netedit.gui.05Oct084741.11044\netedit.gui\basic\save\new_net\datas.xml"/>
        <dataelements-output value="C:\Users\alva_pa\.texttest\tmp\netedit.gui.05Oct084741.11044\netedit.gui\basic\save\new_net\datas.xml"/>
    </netedit>

    <visualisation>
        <gui-settings-file value="C:\Users\alva_pa\.texttest\tmp\netedit.gui.05Oct084741.11044\netedit.gui\basic\save\new_net\gui-settings.xml"/>
        <window-size value="700,500"/>
        <window-pos value="50,50"/>
        <gui-testing value="true"/>
        <gui-testing-debug value="true"/>
        <gui-testing.setting-output value="C:\Users\alva_pa\.texttest\tmp\netedit.gui.05Oct084741.11044\netedit.gui\basic\save\new_net\guisettingsoutput.xml"/>
    </visualisation>

    <report>
        <no-warnings value="true"/>
        <aggregate-warnings value="5"/>
        <error-log value="C:\Users\alva_pa\.texttest\tmp\netedit.gui.05Oct084741.11044\netedit.gui\basic\save\new_net\log.txt"/>
    </report>

</configuration>
-->

<net version="1.9" junctionCornerDetail="5" limitTurnSpeed="5.50" xmlns:xsi="http://www.w3.org/2001/XMLSchema-instance" xsi:noNamespaceSchemaLocation="http://sumo.dlr.de/xsd/net_file.xsd">

    <location netOffset="0.00,0.00" convBoundary="30.00,50.00,70.00,50.00" origBoundary="10000000000.00,10000000000.00,-10000000000.00,-10000000000.00" projParameter="!"/>

    <edge id="gneE0" from="gneJ0" to="gneJ1" priority="-1">
        <lane id="gneE0_0" index="0" speed="13.89" length="40.00" shape="30.00,48.40 70.00,48.40"/>
    </edge>

    <junction id="gneJ0" type="dead_end" x="30.00" y="50.00" incLanes="" intLanes="" shape="30.00,50.00 30.00,46.80"/>
    <junction id="gneJ1" type="dead_end" x="70.00" y="50.00" incLanes="gneE0_0" intLanes="" shape="70.00,46.80 70.00,50.00"/>

</net>
