<?xml version="1.0" encoding="UTF-8"?>

<!-- generated on 09.05.2019 08:20:35 by Eclipse SUMO netedit Version v1_2_0+0323-a3c4a77541
<configuration xmlns:xsi="http://www.w3.org/2001/XMLSchema-instance" xsi:noNamespaceSchemaLocation="http://sumo.dlr.de/xsd/netconvertConfiguration.xsd">

    <input>
        <new value="true"/>
    </input>

    <output>
        <output-file value="C:/Users/SUMO-Test/.texttest/tmp/netedit.gui.09May081740.2732/netedit.gui/basic/new_net_1edge\net.net.xml"/>
    </output>

    <processing>
        <offset.disable-normalization value="true"/>
    </processing>

    <junctions>
        <no-turnarounds value="true"/>
    </junctions>

    <netedit>
        <additional-files value="C:/Users/SUMO-Test/.texttest/tmp/netedit.gui.09May081740.2732/netedit.gui/basic/new_net_1edge\additionals.xml"/>
        <additionals-output value="C:/Users/SUMO-Test/.texttest/tmp/netedit.gui.09May081740.2732/netedit.gui/basic/new_net_1edge\additionals.xml"/>
        <route-files value="C:/Users/SUMO-Test/.texttest/tmp/netedit.gui.09May081740.2732/netedit.gui/basic/new_net_1edge\routes.xml"/>
        <demandelements-output value="C:/Users/SUMO-Test/.texttest/tmp/netedit.gui.09May081740.2732/netedit.gui/basic/new_net_1edge\routes.xml"/>
    </netedit>

    <visualisation>
        <gui-settings-file value="C:/Users/SUMO-Test/.texttest/tmp/netedit.gui.09May081740.2732/netedit.gui/basic/new_net_1edge\gui-settings.xml"/>
        <window-size value="700,500"/>
        <window-pos value="50,50"/>
        <gui-testing value="true"/>
        <gui-testing-debug value="true"/>
    </visualisation>

    <report>
        <no-warnings value="true"/>
        <error-log value="C:/Users/SUMO-Test/.texttest/tmp/netedit.gui.09May081740.2732/netedit.gui/basic/new_net_1edge\log.txt"/>
    </report>

</configuration>
-->

<net version="1.6" junctionCornerDetail="5" limitTurnSpeed="5.50" xmlns:xsi="http://www.w3.org/2001/XMLSchema-instance" xsi:noNamespaceSchemaLocation="http://sumo.dlr.de/xsd/net_file.xsd">

    <location netOffset="0.00,0.00" convBoundary="39.00,44.00,77.00,44.00" origBoundary="10000000000.00,10000000000.00,-10000000000.00,-10000000000.00" projParameter="!"/>

    <edge id="gneE0" from="gneJ0" to="gneJ1" priority="-1">
        <lane id="gneE0_0" index="0" speed="13.89" length="38.00" shape="39.00,42.40 77.00,42.40"/>
    </edge>

    <junction id="gneJ0" type="dead_end" x="39.00" y="44.00" incLanes="" intLanes="" shape="39.00,44.00 39.00,40.80"/>
    <junction id="gneJ1" type="dead_end" x="77.00" y="44.00" incLanes="gneE0_0" intLanes="" shape="77.00,40.80 77.00,44.00"/>

</net>
