<?xml version="1.0" encoding="UTF-8"?>

<!-- generated on 2022-04-11 14:59:00 by Eclipse SUMO sumo Version v1_12_0+2081-d04c25f
This data file and the accompanying materials
are made available under the terms of the Eclipse Public License v2.0
which accompanies this distribution, and is available at
http://www.eclipse.org/legal/epl-v20.html
This file may also be made available under the following Secondary
Licenses when the conditions for such availability set forth in the Eclipse
Public License 2.0 are satisfied: GNU General Public License, version 2
or later which is available at
https://www.gnu.org/licenses/old-licenses/gpl-2.0-standalone.html
SPDX-License-Identifier: EPL-2.0 OR GPL-2.0-or-later
<configuration xmlns:xsi="http://www.w3.org/2001/XMLSchema-instance" xsi:noNamespaceSchemaLocation="http://sumo.dlr.de/xsd/sumoConfiguration.xsd">

    <input>
        <net-file value="net.net.xml"/>
        <route-files value="input_routes.rou.xml"/>
        <additional-files value="input_additional.add.xml"/>
    </input>

    <output>
        <write-license value="true"/>
    </output>

    <processing>
        <default.carfollowmodel value="Wiedemann"/>
        <default.speeddev value="0"/>
    </processing>

    <report>
        <xml-validation value="never"/>
        <xml-validation.routes value="never"/>
        <no-step-log value="true"/>
    </report>

</configuration>
-->

<instantE1 xmlns:xsi="http://www.w3.org/2001/XMLSchema-instance" xsi:noNamespaceSchemaLocation="http://sumo.dlr.de/xsd/instant_e1_file.xsd">
    <instantOut id="e1i_0" time="4.03" state="enter" vehID="flow.0" speed="2.60" length="5.00" type="t"/>
    <instantOut id="e1i_0" time="5.00" state="stay" vehID="flow.0" speed="2.60" length="5.00" type="t"/>
    <instantOut id="e1i_0" time="5.48" state="leave" vehID="flow.0" speed="5.20" length="5.00" type="t" occupancy="1.44"/>
    <instantOut id="e1i_0" time="9.33" state="enter" vehID="flow.1" speed="6.76" length="5.00" type="t" gap="3.85"/>
    <instantOut id="e1i_0" time="10.00" state="stay" vehID="flow.1" speed="6.76" length="5.00" type="t"/>
    <instantOut id="e1i_0" time="10.05" state="leave" vehID="flow.1" speed="9.36" length="5.00" type="t" occupancy="0.72"/>
    <instantOut id="e1i_0" time="13.46" state="enter" vehID="flow.2" speed="9.36" length="5.00" type="t" gap="3.41"/>
    <instantOut id="e1i_0" time="13.99" state="leave" vehID="flow.2" speed="9.36" length="5.00" type="t" occupancy="0.53"/>
    <instantOut id="e1i_0" time="17.32" state="enter" vehID="flow.3" speed="11.96" length="5.00" type="t" gap="3.32"/>
    <instantOut id="e1i_0" time="17.74" state="leave" vehID="flow.3" speed="11.96" length="5.00" type="t" occupancy="0.42"/>
    <instantOut id="e1i_0" time="21.31" state="enter" vehID="flow.4" speed="13.89" length="5.00" type="t" gap="3.58"/>
    <instantOut id="e1i_0" time="21.67" state="leave" vehID="flow.4" speed="13.89" length="5.00" type="t" occupancy="0.36"/>
    <instantOut id="e1i_0" time="25.43" state="enter" vehID="flow.5" speed="13.89" length="5.00" type="t" gap="3.75"/>
    <instantOut id="e1i_0" time="25.79" state="leave" vehID="flow.5" speed="13.89" length="5.00" type="t" occupancy="0.36"/>
    <instantOut id="e1i_0" time="29.37" state="enter" vehID="flow.6" speed="13.89" length="5.00" type="t" gap="3.58"/>
    <instantOut id="e1i_0" time="29.73" state="leave" vehID="flow.6" speed="13.89" length="5.00" type="t" occupancy="0.36"/>
    <instantOut id="e1i_0" time="33.27" state="enter" vehID="flow.7" speed="13.89" length="5.00" type="t" gap="3.54"/>
    <instantOut id="e1i_0" time="33.63" state="leave" vehID="flow.7" speed="13.89" length="5.00" type="t" occupancy="0.36"/>
    <instantOut id="e1i_0" time="42.38" state="enter" vehID="flow.8" speed="2.60" length="5.00" type="t" gap="8.75"/>
    <instantOut id="e1i_0" time="43.00" state="stay" vehID="flow.8" speed="2.60" length="5.00" type="t"/>
    <instantOut id="e1i_0" time="43.65" state="leave" vehID="flow.8" speed="5.20" length="5.00" type="t" occupancy="1.27"/>
    <instantOut id="e1i_0" time="47.74" state="enter" vehID="flow.9" speed="9.00" length="5.00" type="t" gap="4.08"/>
    <instantOut id="e1i_0" time="48.00" state="stay" vehID="flow.9" speed="9.00" length="5.00" type="t"/>
    <instantOut id="e1i_0" time="48.23" state="leave" vehID="flow.9" speed="11.60" length="5.00" type="t" occupancy="0.49"/>
</instantE1>
