<?xml version="1.0" encoding="UTF-8"?>

<!-- generated on Fri 28 Sep 2018 01:54:32 PM CEST by Eclipse SUMO netedit Version v1_0_1+0110-05ad9f8
<configuration xmlns:xsi="http://www.w3.org/2001/XMLSchema-instance" xsi:noNamespaceSchemaLocation="http://sumo.dlr.de/xsd/netconvertConfiguration.xsd">

    <input>
        <sumo-net-file value="net.net.xml"/>
    </input>

    <output>
        <output-file value="net.net.xml"/>
        <plain-output-prefix value="/scr2/debug/lara/brokenRoundabout/themess/small/input_plain"/>
    </output>

    <processing>
        <offset.disable-normalization value="true"/>
        <lefthand value="false"/>
    </processing>

    <junctions>
        <no-turnarounds value="true"/>
        <junctions.corner-detail value="5"/>
        <junctions.limit-turn-speed value="5.5"/>
        <rectangular-lane-cut value="false"/>
    </junctions>

    <pedestrian>
        <walkingareas value="false"/>
    </pedestrian>

    <visualisation>
        <registry-viewport value="true"/>
    </visualisation>

</configuration>
-->

<nodes version="1.0" xmlns:xsi="http://www.w3.org/2001/XMLSchema-instance" xsi:noNamespaceSchemaLocation="http://sumo.dlr.de/xsd/nodes_file.xsd">
    <location netOffset="-372415.06,-4843189.90" convBoundary="0.00,0.00,190.20,390.26" origBoundary="7.405482,43.728592,7.431502,43.738875" projParameter="+proj=utm +zone=32 +ellps=WGS84 +datum=WGS84 +units=m +no_defs"/>

    <node id="20508" x="113.29" y="104.77" z="21.35" type="priority"/>
    <node id="21832" x="5.39" y="58.56" z="27.80" type="priority"/>
    <node id="21918" x="0.00" y="0.00" z="14.25" type="dead_end"/>
    <node id="25270" x="190.20" y="390.26" z="19.70" type="priority"/>
    <node id="A" x="81.89" y="144.29" z="14.25" type="priority"/>
    <node id="B" x="95.86" y="144.72" z="21.40" type="priority"/>
    <node id="C" x="95.17" y="166.87" z="14.25" type="priority"/>
    <node id="D" x="75.44" y="156.65" z="14.25" type="priority"/>
</nodes>
