<?xml version="1.0" encoding="UTF-8"?>

<!-- generated on Thu 24 Sep 2015 09:41:17 PM CEST by Netedit Version dev-SVN-r18936
<?xml version="1.0" encoding="UTF-8"?>

<configuration xmlns:xsi="http://www.w3.org/2001/XMLSchema-instance" xsi:noNamespaceSchemaLocation="http://sumo.dlr.de/xsd/netedit.exeConfiguration.xsd">

    <output>
        <output-file value="net.net.xml"/>
    </output>

    <processing>
        <no-turnarounds value="true"/>
        <offset.disable-normalization value="true"/>
    </processing>

</configuration>
-->

<net version="0.13" xmlns:xsi="http://www.w3.org/2001/XMLSchema-instance" xsi:noNamespaceSchemaLocation="http://sumo.dlr.de/xsd/net_file.xsd">

    <location netOffset="0.00,0.00" convBoundary="-24.07,1.03,505.87,75.96" origBoundary="10000000000.00,10000000000.00,-10000000000.00,-10000000000.00" projParameter="!"/>

    <edge id=":gneJ1_0" function="internal">
        <lane id=":gneJ1_0_0" index="0" speed="13.89" length="5.29" shape="34.74,33.64 33.29,33.83 32.25,34.44 31.61,35.45 31.36,36.86"/>
    </edge>
    <edge id=":gneJ1_1" function="internal">
        <lane id=":gneJ1_1_0" index="0" speed="13.89" length="9.74" shape="34.74,33.64 25.00,33.64"/>
    </edge>
    <edge id=":gneJ1_2" function="internal">
        <lane id=":gneJ1_2_0" index="0" speed="13.89" length="5.27" shape="34.74,33.64 31.86,33.21 29.85,31.96"/>
    </edge>
    <edge id=":gneJ1_12" function="internal">
        <lane id=":gneJ1_12_0" index="0" speed="13.89" length="5.27" shape="29.85,31.96 28.71,29.89 28.44,26.99"/>
    </edge>
    <edge id=":gneJ1_3" function="internal">
        <lane id=":gneJ1_3_0" index="0" speed="13.89" length="5.05" shape="31.74,27.15 31.87,28.54 32.41,29.53 33.37,30.13 34.75,30.34"/>
    </edge>
    <edge id=":gneJ1_4" function="internal">
        <lane id=":gneJ1_4_0" index="0" speed="13.89" length="9.72" shape="31.74,27.15 31.36,36.86"/>
    </edge>
    <edge id=":gneJ1_5" function="internal">
        <lane id=":gneJ1_5_0" index="0" speed="13.89" length="5.28" shape="31.74,27.15 31.20,29.98 29.89,32.00"/>
    </edge>
    <edge id=":gneJ1_13" function="internal">
        <lane id=":gneJ1_13_0" index="0" speed="13.89" length="5.26" shape="29.89,32.00 27.83,33.22 25.00,33.64"/>
    </edge>
    <edge id=":gneJ1_6" function="internal">
        <lane id=":gneJ1_6_0" index="0" speed="13.89" length="5.42" shape="24.98,30.34 26.43,30.12 27.49,29.49 28.16,28.45 28.44,26.99"/>
    </edge>
    <edge id=":gneJ1_7" function="internal">
        <lane id=":gneJ1_7_0" index="0" speed="13.89" length="9.77" shape="24.98,30.34 34.75,30.34"/>
    </edge>
    <edge id=":gneJ1_8" function="internal">
        <lane id=":gneJ1_8_0" index="0" speed="13.89" length="5.24" shape="24.98,30.34 27.84,30.73 29.86,31.95"/>
    </edge>
    <edge id=":gneJ1_14" function="internal">
        <lane id=":gneJ1_14_0" index="0" speed="13.89" length="5.24" shape="29.86,31.95 31.03,34.00 31.36,36.86"/>
    </edge>
    <edge id=":gneJ1_9" function="internal">
        <lane id=":gneJ1_9_0" index="0" speed="13.89" length="5.04" shape="28.06,36.77 27.91,35.40 27.34,34.41 26.37,33.83 25.00,33.64"/>
    </edge>
    <edge id=":gneJ1_10" function="internal">
        <lane id=":gneJ1_10_0" index="0" speed="13.89" length="9.79" shape="28.06,36.77 28.44,26.99"/>
    </edge>
    <edge id=":gneJ1_11" function="internal">
        <lane id=":gneJ1_11_0" index="0" speed="13.89" length="5.40" shape="28.06,36.77 28.55,33.95 29.82,31.93 29.96,31.85"/>
    </edge>
    <edge id=":gneJ1_15" function="internal">
        <lane id=":gneJ1_15_0" index="0" speed="13.89" length="5.13" shape="29.96,31.85 31.89,30.73 34.75,30.34"/>
    </edge>
    <edge id=":gneJ2_0" function="internal">
        <lane id=":gneJ2_0_0" index="0" speed="13.89" length="5.25" shape="473.41,35.93 471.97,36.12 470.93,36.71 470.29,37.70 470.05,39.10"/>
    </edge>
    <edge id=":gneJ2_1" function="internal">
        <lane id=":gneJ2_1_0" index="0" speed="13.89" length="9.71" shape="473.41,35.93 463.70,35.87"/>
    </edge>
    <edge id=":gneJ2_2" function="internal">
        <lane id=":gneJ2_2_0" index="0" speed="13.89" length="5.28" shape="473.41,35.93 470.53,35.49 468.53,34.24"/>
    </edge>
    <edge id=":gneJ2_12" function="internal">
        <lane id=":gneJ2_12_0" index="0" speed="13.89" length="5.28" shape="468.53,34.24 467.39,32.16 467.13,29.26"/>
    </edge>
    <edge id=":gneJ2_3" function="internal">
        <lane id=":gneJ2_3_0" index="0" speed="13.89" length="5.06" shape="470.43,29.44 470.55,30.82 471.09,31.82 472.05,32.42 473.43,32.63"/>
    </edge>
    <edge id=":gneJ2_4" function="internal">
        <lane id=":gneJ2_4_0" index="0" speed="13.89" length="9.67" shape="470.43,29.44 470.05,39.10"/>
    </edge>
    <edge id=":gneJ2_5" function="internal">
        <lane id=":gneJ2_5_0" index="0" speed="13.89" length="5.28" shape="470.43,29.44 469.88,32.26 468.57,34.28"/>
    </edge>
    <edge id=":gneJ2_13" function="internal">
        <lane id=":gneJ2_13_0" index="0" speed="13.89" length="5.23" shape="468.57,34.28 466.51,35.48 463.70,35.87"/>
    </edge>
    <edge id=":gneJ2_6" function="internal">
        <lane id=":gneJ2_6_0" index="0" speed="13.89" length="5.37" shape="463.71,32.57 465.14,32.37 466.19,31.75 466.85,30.72 467.13,29.26"/>
    </edge>
    <edge id=":gneJ2_7" function="internal">
        <lane id=":gneJ2_7_0" index="0" speed="13.89" length="9.72" shape="463.71,32.57 473.43,32.63"/>
    </edge>
    <edge id=":gneJ2_8" function="internal">
        <lane id=":gneJ2_8_0" index="0" speed="13.89" length="5.21" shape="463.71,32.57 466.55,32.99 468.55,34.22"/>
    </edge>
    <edge id=":gneJ2_14" function="internal">
        <lane id=":gneJ2_14_0" index="0" speed="13.89" length="5.21" shape="468.55,34.22 469.71,36.25 470.05,39.10"/>
    </edge>
    <edge id=":gneJ2_9" function="internal">
        <lane id=":gneJ2_9_0" index="0" speed="13.89" length="5.02" shape="466.75,39.02 466.59,37.65 466.03,36.66 465.06,36.07 463.70,35.87"/>
    </edge>
    <edge id=":gneJ2_10" function="internal">
        <lane id=":gneJ2_10_0" index="0" speed="13.89" length="9.76" shape="466.75,39.02 467.13,29.26"/>
    </edge>
    <edge id=":gneJ2_11" function="internal">
        <lane id=":gneJ2_11_0" index="0" speed="13.89" length="5.39" shape="466.75,39.02 467.23,36.20 468.50,34.20 468.64,34.12"/>
    </edge>
    <edge id=":gneJ2_15" function="internal">
        <lane id=":gneJ2_15_0" index="0" speed="13.89" length="5.11" shape="468.64,34.12 470.57,33.01 473.43,32.63"/>
    </edge>

    <edge id="gneE0" from="gneJ0" to="gneJ1" priority="1">
        <lane id="gneE0_0" index="0" speed="13.89" length="49.06" shape="-24.08,30.57 24.98,30.34"/>
    </edge>
    <edge id="gneE1" from="gneJ1" to="gneJ0" priority="1">
        <lane id="gneE1_0" index="0" speed="13.89" length="49.06" shape="25.00,33.64 -24.06,33.87"/>
    </edge>
    <edge id="gneE10" from="gneJ1" to="gneJ5" priority="1">
        <lane id="gneE10_0" index="0" speed="13.89" length="26.08" shape="28.44,26.99 29.74,0.94"/>
    </edge>
    <edge id="gneE11" from="gneJ5" to="gneJ1" priority="1">
        <lane id="gneE11_0" index="0" speed="13.89" length="26.08" shape="33.03,1.11 31.74,27.15"/>
    </edge>
    <edge id="gneE12" from="gneJ2" to="gneJ6" priority="1">
        <lane id="gneE12_0" index="0" speed="13.89" length="36.92" shape="470.05,39.10 469.14,76.00"/>
    </edge>
    <edge id="gneE13" from="gneJ6" to="gneJ2" priority="1">
        <lane id="gneE13_0" index="0" speed="13.89" length="36.92" shape="465.84,75.92 466.75,39.02"/>
    </edge>
    <edge id="gneE14" from="gneJ2" to="gneJ7" priority="1">
        <lane id="gneE14_0" index="0" speed="13.89" length="26.84" shape="467.13,29.26 468.54,2.46"/>
    </edge>
    <edge id="gneE15" from="gneJ7" to="gneJ2" priority="1">
        <lane id="gneE15_0" index="0" speed="13.89" length="26.84" shape="471.84,2.63 470.43,29.44"/>
    </edge>
    <edge id="gneE2" from="gneJ1" to="gneJ2" priority="1">
        <lane id="gneE2_0" index="0" speed="13.89" length="428.97" shape="34.75,30.34 463.71,32.57"/>
    </edge>
    <edge id="gneE3" from="gneJ2" to="gneJ1" priority="1">
        <lane id="gneE3_0" index="0" speed="13.89" length="428.97" shape="463.70,35.87 34.74,33.64"/>
    </edge>
    <edge id="gneE4" from="gneJ2" to="gneJ3" priority="1">
        <lane id="gneE4_0" index="0" speed="13.89" length="32.45" shape="473.43,32.63 505.88,32.85"/>
    </edge>
    <edge id="gneE5" from="gneJ3" to="gneJ2" priority="1">
        <lane id="gneE5_0" index="0" speed="13.89" length="32.45" shape="505.86,36.15 473.41,35.93"/>
    </edge>
    <edge id="gneE8" from="gneJ1" to="gneJ4" priority="1">
        <lane id="gneE8_0" index="0" speed="13.89" length="37.78" shape="31.36,36.86 30.34,74.63"/>
    </edge>
    <edge id="gneE9" from="gneJ4" to="gneJ1" priority="1">
        <lane id="gneE9_0" index="0" speed="13.89" length="37.78" shape="27.04,74.54 28.06,36.77"/>
    </edge>

    <tlLogic id="gneJ1" type="static" programID="0" offset="0">
        <phase duration="31" state="GGgrrrGGgrrr"/>
        <phase duration="4" state="yygrrryygrrr"/>
        <phase duration="6" state="rrGrrrrrGrrr"/>
        <phase duration="4" state="rryrrrrryrrr"/>
        <phase duration="31" state="rrrGGgrrrGGg"/>
        <phase duration="4" state="rrryygrrryyg"/>
        <phase duration="6" state="rrrrrGrrrrrG"/>
        <phase duration="4" state="rrrrryrrrrry"/>
    </tlLogic>
    <tlLogic id="gneJ2" type="static" programID="0" offset="0">
        <phase duration="31" state="GGgrrrGGgrrr"/>
        <phase duration="4" state="yygrrryygrrr"/>
        <phase duration="6" state="rrGrrrrrGrrr"/>
        <phase duration="4" state="rryrrrrryrrr"/>
        <phase duration="31" state="rrrGGgrrrGGg"/>
        <phase duration="4" state="rrryygrrryyg"/>
        <phase duration="6" state="rrrrrGrrrrrG"/>
        <phase duration="4" state="rrrrryrrrrry"/>
    </tlLogic>

    <junction id="gneJ0" type="dead_end" x="-24.07" y="32.22" incLanes="gneE1_0" intLanes="" shape="-24.07,32.17 -24.08,28.97 -24.05,35.47 -24.07,32.27"/>
    <junction id="gneJ1" type="traffic_light" x="29.85" y="31.96" incLanes="gneE3_0 gneE11_0 gneE0_0 gneE9_0" intLanes=":gneJ1_0_0 :gneJ1_1_0 :gneJ1_12_0 :gneJ1_3_0 :gneJ1_4_0 :gneJ1_13_0 :gneJ1_6_0 :gneJ1_7_0 :gneJ1_14_0 :gneJ1_9_0 :gneJ1_10_0 :gneJ1_15_0" shape="34.73,35.24 34.76,28.74 33.34,27.23 26.84,26.91 24.98,28.74 25.01,35.24 26.47,36.73 32.96,36.91">
        <request index="0" response="000000000000" foes="000100010000" cont="0"/>
        <request index="1" response="000000000000" foes="111100110000" cont="0"/>
        <request index="2" response="000011000000" foes="110011110000" cont="1"/>
        <request index="3" response="000010000000" foes="100010000000" cont="0"/>
        <request index="4" response="000110000111" foes="100110000111" cont="0"/>
        <request index="5" response="011110000110" foes="011110000110" cont="1"/>
        <request index="6" response="000000000000" foes="010000000100" cont="0"/>
        <request index="7" response="000000000000" foes="110000111100" cont="0"/>
        <request index="8" response="000000000011" foes="110000110011" cont="1"/>
        <request index="9" response="000000000010" foes="000000100010" cont="0"/>
        <request index="10" response="000111000110" foes="000111100110" cont="0"/>
        <request index="11" response="000110011110" foes="000110011110" cont="1"/>
    </junction>
    <junction id="gneJ2" type="traffic_light" x="468.52" y="34.24" incLanes="gneE5_0 gneE15_0 gneE2_0 gneE13_0" intLanes=":gneJ2_0_0 :gneJ2_1_0 :gneJ2_12_0 :gneJ2_3_0 :gneJ2_4_0 :gneJ2_13_0 :gneJ2_6_0 :gneJ2_7_0 :gneJ2_14_0 :gneJ2_9_0 :gneJ2_10_0 :gneJ2_15_0" shape="473.40,37.53 473.44,31.03 472.02,29.52 465.53,29.18 463.72,30.97 463.69,37.47 465.15,38.98 471.65,39.14">
        <request index="0" response="000000000000" foes="000100010000" cont="0"/>
        <request index="1" response="000000000000" foes="111100110000" cont="0"/>
        <request index="2" response="000011000000" foes="110011110000" cont="1"/>
        <request index="3" response="000010000000" foes="100010000000" cont="0"/>
        <request index="4" response="000110000111" foes="100110000111" cont="0"/>
        <request index="5" response="011110000110" foes="011110000110" cont="1"/>
        <request index="6" response="000000000000" foes="010000000100" cont="0"/>
        <request index="7" response="000000000000" foes="110000111100" cont="0"/>
        <request index="8" response="000000000011" foes="110000110011" cont="1"/>
        <request index="9" response="000000000010" foes="000000100010" cont="0"/>
        <request index="10" response="000111000110" foes="000111100110" cont="0"/>
        <request index="11" response="000110011110" foes="000110011110" cont="1"/>
    </junction>
    <junction id="gneJ3" type="dead_end" x="505.87" y="34.50" incLanes="gneE4_0" intLanes="" shape="505.87,34.55 505.85,37.75 505.89,31.25 505.87,34.45"/>
    <junction id="gneJ4" type="dead_end" x="28.69" y="74.58" incLanes="gneE8_0" intLanes="" shape="28.64,74.58 25.44,74.49 31.94,74.67 28.74,74.58"/>
    <junction id="gneJ5" type="dead_end" x="31.39" y="1.03" incLanes="gneE10_0" intLanes="" shape="31.44,1.03 34.63,1.19 28.14,0.87 31.34,1.02"/>
    <junction id="gneJ6" type="dead_end" x="467.49" y="75.96" incLanes="gneE12_0" intLanes="" shape="467.44,75.96 464.24,75.88 470.74,76.04 467.54,75.97"/>
    <junction id="gneJ7" type="dead_end" x="470.19" y="2.54" incLanes="gneE14_0" intLanes="" shape="470.24,2.55 473.44,2.72 466.94,2.37 470.14,2.54"/>

    <junction id=":gneJ1_12_0" type="internal" x="29.85" y="31.96" incLanes=":gneJ1_2_0 gneE0_0" intLanes=":gneJ1_4_0 :gneJ1_5_0 :gneJ1_6_0 :gneJ1_7_0 :gneJ1_10_0 :gneJ1_11_0"/>
    <junction id=":gneJ1_13_0" type="internal" x="29.89" y="32.00" incLanes=":gneJ1_5_0 gneE9_0" intLanes=":gneJ1_1_0 :gneJ1_2_0 :gneJ1_7_0 :gneJ1_8_0 :gneJ1_9_0 :gneJ1_10_0"/>
    <junction id=":gneJ1_14_0" type="internal" x="29.86" y="31.95" incLanes=":gneJ1_8_0 gneE3_0" intLanes=":gneJ1_0_0 :gneJ1_1_0 :gneJ1_4_0 :gneJ1_5_0 :gneJ1_10_0 :gneJ1_11_0"/>
    <junction id=":gneJ1_15_0" type="internal" x="29.96" y="31.85" incLanes=":gneJ1_11_0 gneE11_0" intLanes=":gneJ1_1_0 :gneJ1_2_0 :gneJ1_3_0 :gneJ1_4_0 :gneJ1_7_0 :gneJ1_8_0"/>
    <junction id=":gneJ2_12_0" type="internal" x="468.53" y="34.24" incLanes=":gneJ2_2_0 gneE2_0" intLanes=":gneJ2_4_0 :gneJ2_5_0 :gneJ2_6_0 :gneJ2_7_0 :gneJ2_10_0 :gneJ2_11_0"/>
    <junction id=":gneJ2_13_0" type="internal" x="468.57" y="34.28" incLanes=":gneJ2_5_0 gneE13_0" intLanes=":gneJ2_1_0 :gneJ2_2_0 :gneJ2_7_0 :gneJ2_8_0 :gneJ2_9_0 :gneJ2_10_0"/>
    <junction id=":gneJ2_14_0" type="internal" x="468.55" y="34.22" incLanes=":gneJ2_8_0 gneE5_0" intLanes=":gneJ2_0_0 :gneJ2_1_0 :gneJ2_4_0 :gneJ2_5_0 :gneJ2_10_0 :gneJ2_11_0"/>
    <junction id=":gneJ2_15_0" type="internal" x="468.64" y="34.12" incLanes=":gneJ2_11_0 gneE15_0" intLanes=":gneJ2_1_0 :gneJ2_2_0 :gneJ2_3_0 :gneJ2_4_0 :gneJ2_7_0 :gneJ2_8_0"/>

    <connection from="gneE0" to="gneE10" fromLane="0" toLane="0" via=":gneJ1_6_0" tl="gneJ1" linkIndex="6" dir="r" state="o"/>
    <connection from="gneE0" to="gneE2" fromLane="0" toLane="0" via=":gneJ1_7_0" tl="gneJ1" linkIndex="7" dir="s" state="o"/>
    <connection from="gneE0" to="gneE8" fromLane="0" toLane="0" via=":gneJ1_8_0" tl="gneJ1" linkIndex="8" dir="l" state="o"/>
    <connection from="gneE11" to="gneE2" fromLane="0" toLane="0" via=":gneJ1_3_0" tl="gneJ1" linkIndex="3" dir="r" state="o"/>
    <connection from="gneE11" to="gneE8" fromLane="0" toLane="0" via=":gneJ1_4_0" tl="gneJ1" linkIndex="4" dir="s" state="o"/>
    <connection from="gneE11" to="gneE1" fromLane="0" toLane="0" via=":gneJ1_5_0" tl="gneJ1" linkIndex="5" dir="l" state="o"/>
    <connection from="gneE13" to="gneE3" fromLane="0" toLane="0" via=":gneJ2_9_0" tl="gneJ2" linkIndex="9" dir="r" state="o"/>
    <connection from="gneE13" to="gneE14" fromLane="0" toLane="0" via=":gneJ2_10_0" tl="gneJ2" linkIndex="10" dir="s" state="o"/>
    <connection from="gneE13" to="gneE4" fromLane="0" toLane="0" via=":gneJ2_11_0" tl="gneJ2" linkIndex="11" dir="l" state="o"/>
    <connection from="gneE15" to="gneE4" fromLane="0" toLane="0" via=":gneJ2_3_0" tl="gneJ2" linkIndex="3" dir="r" state="o"/>
    <connection from="gneE15" to="gneE12" fromLane="0" toLane="0" via=":gneJ2_4_0" tl="gneJ2" linkIndex="4" dir="s" state="o"/>
    <connection from="gneE15" to="gneE3" fromLane="0" toLane="0" via=":gneJ2_5_0" tl="gneJ2" linkIndex="5" dir="l" state="o"/>
    <connection from="gneE2" to="gneE14" fromLane="0" toLane="0" via=":gneJ2_6_0" tl="gneJ2" linkIndex="6" dir="r" state="o"/>
    <connection from="gneE2" to="gneE4" fromLane="0" toLane="0" via=":gneJ2_7_0" tl="gneJ2" linkIndex="7" dir="s" state="o"/>
    <connection from="gneE2" to="gneE12" fromLane="0" toLane="0" via=":gneJ2_8_0" tl="gneJ2" linkIndex="8" dir="l" state="o"/>
    <connection from="gneE3" to="gneE8" fromLane="0" toLane="0" via=":gneJ1_0_0" tl="gneJ1" linkIndex="0" dir="r" state="o"/>
    <connection from="gneE3" to="gneE1" fromLane="0" toLane="0" via=":gneJ1_1_0" tl="gneJ1" linkIndex="1" dir="s" state="o"/>
    <connection from="gneE3" to="gneE10" fromLane="0" toLane="0" via=":gneJ1_2_0" tl="gneJ1" linkIndex="2" dir="l" state="o"/>
    <connection from="gneE5" to="gneE12" fromLane="0" toLane="0" via=":gneJ2_0_0" tl="gneJ2" linkIndex="0" dir="r" state="o"/>
    <connection from="gneE5" to="gneE3" fromLane="0" toLane="0" via=":gneJ2_1_0" tl="gneJ2" linkIndex="1" dir="s" state="o"/>
    <connection from="gneE5" to="gneE14" fromLane="0" toLane="0" via=":gneJ2_2_0" tl="gneJ2" linkIndex="2" dir="l" state="o"/>
    <connection from="gneE9" to="gneE1" fromLane="0" toLane="0" via=":gneJ1_9_0" tl="gneJ1" linkIndex="9" dir="r" state="o"/>
    <connection from="gneE9" to="gneE10" fromLane="0" toLane="0" via=":gneJ1_10_0" tl="gneJ1" linkIndex="10" dir="s" state="o"/>
    <connection from="gneE9" to="gneE2" fromLane="0" toLane="0" via=":gneJ1_11_0" tl="gneJ1" linkIndex="11" dir="l" state="o"/>

    <connection from=":gneJ1_0" to="gneE8" fromLane="0" toLane="0" dir="s" state="M"/>
    <connection from=":gneJ1_1" to="gneE1" fromLane="0" toLane="0" dir="s" state="M"/>
    <connection from=":gneJ1_2" to="gneE10" fromLane="0" toLane="0" via=":gneJ1_12_0" dir="s" state="m"/>
    <connection from=":gneJ1_12" to="gneE10" fromLane="0" toLane="0" dir="s" state="M"/>
    <connection from=":gneJ1_3" to="gneE2" fromLane="0" toLane="0" dir="s" state="M"/>
    <connection from=":gneJ1_4" to="gneE8" fromLane="0" toLane="0" dir="s" state="M"/>
    <connection from=":gneJ1_5" to="gneE1" fromLane="0" toLane="0" via=":gneJ1_13_0" dir="s" state="m"/>
    <connection from=":gneJ1_13" to="gneE1" fromLane="0" toLane="0" dir="s" state="M"/>
    <connection from=":gneJ1_6" to="gneE10" fromLane="0" toLane="0" dir="s" state="M"/>
    <connection from=":gneJ1_7" to="gneE2" fromLane="0" toLane="0" dir="s" state="M"/>
    <connection from=":gneJ1_8" to="gneE8" fromLane="0" toLane="0" via=":gneJ1_14_0" dir="s" state="m"/>
    <connection from=":gneJ1_14" to="gneE8" fromLane="0" toLane="0" dir="s" state="M"/>
    <connection from=":gneJ1_9" to="gneE1" fromLane="0" toLane="0" dir="s" state="M"/>
    <connection from=":gneJ1_10" to="gneE10" fromLane="0" toLane="0" dir="s" state="M"/>
    <connection from=":gneJ1_11" to="gneE2" fromLane="0" toLane="0" via=":gneJ1_15_0" dir="s" state="m"/>
    <connection from=":gneJ1_15" to="gneE2" fromLane="0" toLane="0" dir="s" state="M"/>
    <connection from=":gneJ2_0" to="gneE12" fromLane="0" toLane="0" dir="s" state="M"/>
    <connection from=":gneJ2_1" to="gneE3" fromLane="0" toLane="0" dir="s" state="M"/>
    <connection from=":gneJ2_2" to="gneE14" fromLane="0" toLane="0" via=":gneJ2_12_0" dir="s" state="m"/>
    <connection from=":gneJ2_12" to="gneE14" fromLane="0" toLane="0" dir="s" state="M"/>
    <connection from=":gneJ2_3" to="gneE4" fromLane="0" toLane="0" dir="s" state="M"/>
    <connection from=":gneJ2_4" to="gneE12" fromLane="0" toLane="0" dir="s" state="M"/>
    <connection from=":gneJ2_5" to="gneE3" fromLane="0" toLane="0" via=":gneJ2_13_0" dir="s" state="m"/>
    <connection from=":gneJ2_13" to="gneE3" fromLane="0" toLane="0" dir="s" state="M"/>
    <connection from=":gneJ2_6" to="gneE14" fromLane="0" toLane="0" dir="s" state="M"/>
    <connection from=":gneJ2_7" to="gneE4" fromLane="0" toLane="0" dir="s" state="M"/>
    <connection from=":gneJ2_8" to="gneE12" fromLane="0" toLane="0" via=":gneJ2_14_0" dir="s" state="m"/>
    <connection from=":gneJ2_14" to="gneE12" fromLane="0" toLane="0" dir="s" state="M"/>
    <connection from=":gneJ2_9" to="gneE3" fromLane="0" toLane="0" dir="s" state="M"/>
    <connection from=":gneJ2_10" to="gneE14" fromLane="0" toLane="0" dir="s" state="M"/>
    <connection from=":gneJ2_11" to="gneE4" fromLane="0" toLane="0" via=":gneJ2_15_0" dir="s" state="m"/>
    <connection from=":gneJ2_15" to="gneE4" fromLane="0" toLane="0" dir="s" state="M"/>

</net>
