<?xml version="1.0" encoding="UTF-8"?>

<!-- generated on 2024-11-13 08:22:30 by Eclipse SUMO sumo Version v1_21_0+0731-b53b2227a47
This data file and the accompanying materials
are made available under the terms of the Eclipse Public License v2.0
which accompanies this distribution, and is available at
http://www.eclipse.org/legal/epl-v20.html
This file may also be made available under the following Secondary
Licenses when the conditions for such availability set forth in the Eclipse
Public License 2.0 are satisfied: GNU General Public License, version 2
or later which is available at
https://www.gnu.org/licenses/old-licenses/gpl-2.0-standalone.html
SPDX-License-Identifier: EPL-2.0 OR GPL-2.0-or-later
<sumoConfiguration xmlns:xsi="http://www.w3.org/2001/XMLSchema-instance" xsi:noNamespaceSchemaLocation="http://sumo.dlr.de/xsd/sumoConfiguration.xsd">

    <input>
        <net-file value="net.net.xml"/>
        <route-files value="input_routes.rou.xml"/>
        <additional-files value="input_additional.add.xml,input_additional2.add.xml"/>
    </input>

    <output>
        <write-license value="true"/>
    </output>

    <time>
        <step-length value="0.5"/>
    </time>

    <processing>
        <default.carfollowmodel value="CACC"/>
        <default.speeddev value="0"/>
    </processing>

    <report>
        <xml-validation value="never"/>
        <no-step-log value="true"/>
    </report>

</sumoConfiguration>
-->

<instantE1 xmlns:xsi="http://www.w3.org/2001/XMLSchema-instance" xsi:noNamespaceSchemaLocation="http://sumo.dlr.de/xsd/instant_e1_file.xsd">
    <instantOut id="e1i_0" time="4.57" state="enter" vehID="flow.0" speed="1.30" length="5.00" type="t"/>
    <instantOut id="e1i_0" time="5.00" state="stay" vehID="flow.0" speed="1.30" length="5.00" type="t"/>
    <instantOut id="e1i_0" time="5.50" state="stay" vehID="flow.0" speed="2.60" length="5.00" type="t"/>
    <instantOut id="e1i_0" time="6.00" state="stay" vehID="flow.0" speed="3.90" length="5.00" type="t"/>
    <instantOut id="e1i_0" time="6.23" state="leave" vehID="flow.0" speed="5.20" length="5.00" type="t" occupancy="1.66"/>
    <instantOut id="e1i_0" time="7.87" state="enter" vehID="flow.1" speed="4.18" length="5.00" type="t" gap="1.65"/>
    <instantOut id="e1i_0" time="8.00" state="stay" vehID="flow.1" speed="4.18" length="5.00" type="t"/>
    <instantOut id="e1i_0" time="8.50" state="stay" vehID="flow.1" speed="5.48" length="5.00" type="t"/>
    <instantOut id="e1i_0" time="8.76" state="leave" vehID="flow.1" speed="6.78" length="5.00" type="t" occupancy="0.88"/>
    <instantOut id="e1i_0" time="10.30" state="enter" vehID="flow.2" speed="7.92" length="5.00" type="t" gap="1.54"/>
    <instantOut id="e1i_0" time="10.50" state="stay" vehID="flow.2" speed="7.92" length="5.00" type="t"/>
    <instantOut id="e1i_0" time="10.93" state="leave" vehID="flow.2" speed="7.92" length="5.00" type="t" occupancy="0.63"/>
    <instantOut id="e1i_0" time="12.56" state="enter" vehID="flow.3" speed="7.93" length="5.00" type="t" gap="1.64"/>
    <instantOut id="e1i_0" time="13.00" state="stay" vehID="flow.3" speed="7.93" length="5.00" type="t"/>
    <instantOut id="e1i_0" time="13.19" state="leave" vehID="flow.3" speed="8.03" length="5.00" type="t" occupancy="0.63"/>
    <instantOut id="e1i_0" time="14.83" state="enter" vehID="flow.4" speed="7.97" length="5.00" type="t" gap="1.63"/>
    <instantOut id="e1i_0" time="15.00" state="stay" vehID="flow.4" speed="7.97" length="5.00" type="t"/>
    <instantOut id="e1i_0" time="15.45" state="leave" vehID="flow.4" speed="8.01" length="5.00" type="t" occupancy="0.63"/>
    <instantOut id="e1i_0" time="17.08" state="enter" vehID="flow.5" speed="8.04" length="5.00" type="t" gap="1.62"/>
    <instantOut id="e1i_0" time="17.50" state="stay" vehID="flow.5" speed="8.04" length="5.00" type="t"/>
    <instantOut id="e1i_0" time="17.70" state="leave" vehID="flow.5" speed="8.08" length="5.00" type="t" occupancy="0.62"/>
    <instantOut id="e1i_0" time="19.36" state="enter" vehID="flow.6" speed="8.04" length="5.00" type="t" gap="1.66"/>
    <instantOut id="e1i_0" time="19.50" state="stay" vehID="flow.6" speed="8.04" length="5.00" type="t"/>
    <instantOut id="e1i_0" time="19.98" state="leave" vehID="flow.6" speed="8.08" length="5.00" type="t" occupancy="0.62"/>
    <instantOut id="e1i_0" time="21.58" state="enter" vehID="flow.7" speed="8.11" length="5.00" type="t" gap="1.60"/>
    <instantOut id="e1i_0" time="22.00" state="stay" vehID="flow.7" speed="8.11" length="5.00" type="t"/>
    <instantOut id="e1i_0" time="22.20" state="leave" vehID="flow.7" speed="8.14" length="5.00" type="t" occupancy="0.62"/>
    <instantOut id="e1i_0" time="23.79" state="enter" vehID="flow.8" speed="8.16" length="5.00" type="t" gap="1.59"/>
    <instantOut id="e1i_0" time="24.00" state="stay" vehID="flow.8" speed="8.16" length="5.00" type="t"/>
    <instantOut id="e1i_0" time="24.40" state="leave" vehID="flow.8" speed="8.18" length="5.00" type="t" occupancy="0.61"/>
    <instantOut id="e1i_0" time="26.04" state="enter" vehID="flow.9" speed="8.21" length="5.00" type="t" gap="1.64"/>
    <instantOut id="e1i_0" time="26.50" state="stay" vehID="flow.9" speed="8.21" length="5.00" type="t"/>
    <instantOut id="e1i_0" time="26.65" state="leave" vehID="flow.9" speed="8.23" length="5.00" type="t" occupancy="0.61"/>
</instantE1>
