<?xml version="1.0" encoding="UTF-8"?>

<!-- generated on 2022-09-27 15:49:52 by Eclipse SUMO sumo Version v1_14_1+1286-aabf80f
This data file and the accompanying materials
are made available under the terms of the Eclipse Public License v2.0
which accompanies this distribution, and is available at
http://www.eclipse.org/legal/epl-v20.html
This file may also be made available under the following Secondary
Licenses when the conditions for such availability set forth in the Eclipse
Public License 2.0 are satisfied: GNU General Public License, version 2
or later which is available at
https://www.gnu.org/licenses/old-licenses/gpl-2.0-standalone.html
SPDX-License-Identifier: EPL-2.0 OR GPL-2.0-or-later
<configuration xmlns:xsi="http://www.w3.org/2001/XMLSchema-instance" xsi:noNamespaceSchemaLocation="http://sumo.dlr.de/xsd/sumoConfiguration.xsd">

    <input>
        <net-file value="net.net.xml"/>
        <route-files value="input_routes.rou.xml"/>
        <additional-files value="input_additional.add.xml,input_additional2.add.xml"/>
    </input>

    <output>
        <write-license value="true"/>
    </output>

    <time>
        <step-length value="0.5"/>
    </time>

    <processing>
        <default.carfollowmodel value="CACC"/>
        <default.speeddev value="0"/>
    </processing>

    <report>
        <xml-validation value="never"/>
        <no-step-log value="true"/>
    </report>

</configuration>
-->

<instantE1 xmlns:xsi="http://www.w3.org/2001/XMLSchema-instance" xsi:noNamespaceSchemaLocation="http://sumo.dlr.de/xsd/instant_e1_file.xsd">
    <instantOut id="e1i_0" time="4.57" state="enter" vehID="flow.0" speed="1.30" length="5.00" type="t"/>
    <instantOut id="e1i_0" time="5.00" state="stay" vehID="flow.0" speed="1.30" length="5.00" type="t"/>
    <instantOut id="e1i_0" time="5.50" state="stay" vehID="flow.0" speed="2.60" length="5.00" type="t"/>
    <instantOut id="e1i_0" time="6.00" state="stay" vehID="flow.0" speed="3.90" length="5.00" type="t"/>
    <instantOut id="e1i_0" time="6.23" state="leave" vehID="flow.0" speed="5.20" length="5.00" type="t" occupancy="1.66"/>
    <instantOut id="e1i_0" time="7.89" state="enter" vehID="flow.1" speed="5.39" length="5.00" type="t" gap="1.66"/>
    <instantOut id="e1i_0" time="8.00" state="stay" vehID="flow.1" speed="5.39" length="5.00" type="t"/>
    <instantOut id="e1i_0" time="8.50" state="stay" vehID="flow.1" speed="6.69" length="5.00" type="t"/>
    <instantOut id="e1i_0" time="8.63" state="leave" vehID="flow.1" speed="7.99" length="5.00" type="t" occupancy="0.74"/>
    <instantOut id="e1i_0" time="10.12" state="enter" vehID="flow.2" speed="6.81" length="5.00" type="t" gap="1.49"/>
    <instantOut id="e1i_0" time="10.50" state="stay" vehID="flow.2" speed="6.81" length="5.00" type="t"/>
    <instantOut id="e1i_0" time="10.84" state="leave" vehID="flow.2" speed="7.06" length="5.00" type="t" occupancy="0.72"/>
    <instantOut id="e1i_0" time="12.47" state="enter" vehID="flow.3" speed="6.80" length="5.00" type="t" gap="1.62"/>
    <instantOut id="e1i_0" time="12.50" state="stay" vehID="flow.3" speed="6.80" length="5.00" type="t"/>
    <instantOut id="e1i_0" time="13.00" state="stay" vehID="flow.3" speed="7.02" length="5.00" type="t"/>
    <instantOut id="e1i_0" time="13.15" state="leave" vehID="flow.3" speed="8.32" length="5.00" type="t" occupancy="0.69"/>
    <instantOut id="e1i_0" time="14.84" state="enter" vehID="flow.4" speed="7.71" length="5.00" type="t" gap="1.69"/>
    <instantOut id="e1i_0" time="15.00" state="stay" vehID="flow.4" speed="7.71" length="5.00" type="t"/>
    <instantOut id="e1i_0" time="15.42" state="leave" vehID="flow.4" speed="8.94" length="5.00" type="t" occupancy="0.58"/>
    <instantOut id="e1i_0" time="17.11" state="enter" vehID="flow.5" speed="9.63" length="5.00" type="t" gap="1.69"/>
    <instantOut id="e1i_0" time="17.50" state="stay" vehID="flow.5" speed="9.63" length="5.00" type="t"/>
    <instantOut id="e1i_0" time="17.62" state="leave" vehID="flow.5" speed="10.48" length="5.00" type="t" occupancy="0.51"/>
    <instantOut id="e1i_0" time="19.43" state="enter" vehID="flow.6" speed="9.09" length="5.00" type="t" gap="1.81"/>
    <instantOut id="e1i_0" time="19.50" state="stay" vehID="flow.6" speed="9.09" length="5.00" type="t"/>
    <instantOut id="e1i_0" time="19.93" state="leave" vehID="flow.6" speed="10.05" length="5.00" type="t" occupancy="0.50"/>
    <instantOut id="e1i_0" time="21.79" state="enter" vehID="flow.7" speed="9.90" length="5.00" type="t" gap="1.86"/>
    <instantOut id="e1i_0" time="22.00" state="stay" vehID="flow.7" speed="9.90" length="5.00" type="t"/>
    <instantOut id="e1i_0" time="22.27" state="leave" vehID="flow.7" speed="10.70" length="5.00" type="t" occupancy="0.48"/>
    <instantOut id="e1i_0" time="24.13" state="enter" vehID="flow.8" speed="10.63" length="5.00" type="t" gap="1.86"/>
    <instantOut id="e1i_0" time="24.50" state="stay" vehID="flow.8" speed="10.63" length="5.00" type="t"/>
    <instantOut id="e1i_0" time="24.59" state="leave" vehID="flow.8" speed="11.28" length="5.00" type="t" occupancy="0.46"/>
    <instantOut id="e1i_0" time="26.37" state="enter" vehID="flow.9" speed="10.68" length="5.00" type="t" gap="1.77"/>
    <instantOut id="e1i_0" time="26.50" state="stay" vehID="flow.9" speed="10.68" length="5.00" type="t"/>
    <instantOut id="e1i_0" time="26.82" state="leave" vehID="flow.9" speed="11.32" length="5.00" type="t" occupancy="0.45"/>
</instantE1>
