<?xml version="1.0" encoding="UTF-8"?>

<!-- generated on 2024-04-16 15:29:53 by Eclipse SUMO netedit Version v1_19_0+1858-a78c29cc1d6
-->

<routes xmlns:xsi="http://www.w3.org/2001/XMLSchema-instance" xsi:noNamespaceSchemaLocation="http://sumo.dlr.de/xsd/routes_file.xsd">
    <!-- VTypes -->
    <vType id="pt_ped0" desiredMaxSpeed="0.50" vClass="pedestrian"/>
    <!-- Vehicles, persons and containers (sorted by depart) -->
    <person id="p_0" type="pt_ped0" depart="0.00">
        <personTrip from="533" to="1464"/>
    </person>
</routes>
