<?xml version="1.0" encoding="UTF-8"?>

<!-- generated on 2025-12-19T17:50:52.888552+01:00 by Eclipse SUMO sumo v1_25_0+0646-5052cf5c68d
This data file and the accompanying materials
are made available under the terms of the Eclipse Public License v2.0
which accompanies this distribution, and is available at
http://www.eclipse.org/legal/epl-v20.html
This file may also be made available under the following Secondary
Licenses when the conditions for such availability set forth in the Eclipse
Public License 2.0 are satisfied: GNU General Public License, version 2
or later which is available at
https://www.gnu.org/licenses/old-licenses/gpl-2.0-standalone.html
SPDX-License-Identifier: EPL-2.0 OR GPL-2.0-or-later
<sumoConfiguration xmlns:xsi="http://www.w3.org/2001/XMLSchema-instance" xsi:noNamespaceSchemaLocation="http://sumo.dlr.de/xsd/sumoConfiguration.xsd">

    <input>
        <net-file value="net.net.xml"/>
        <route-files value="input_routes.rou.xml"/>
        <junction-taz value="true"/>
    </input>

    <output>
        <write-license value="true"/>
        <tripinfo-output value="tripinfos.xml"/>
        <railsignal-block-output value="railsignal_blocks.xml"/>
    </output>

    <processing>
        <time-to-teleport.railsignal-deadlock value="200"/>
        <default.speeddev value="0"/>
    </processing>

    <report>
        <xml-validation value="never"/>
        <duration-log.disable value="true"/>
        <no-step-log value="true"/>
    </report>

    <mesoscopic>
        <mesosim value="true"/>
        <meso-junction-control value="true"/>
    </mesoscopic>

</sumoConfiguration>
-->

<railsignal-block-output>
    <railSignal id="A0">
        <link linkIndex="0" from="left0A0_0" to="A0B0_0">
            <driveWay id="A0.0" vehicle="v_0" edges="A0B0 B0C0 C0D0 D0E0 E0F0 F0G0 G0H0 H0I0 I0J0 J0right0">
                <forward lanes="A0B0_0"/>
                <bidi lanes=""/>
                <flank lanes=""/>
                <conflictLinks signals=""/>
                <foes driveWays="A0.0"/>
            </driveWay>
        </link>
    </railSignal>
    <railSignal id="B0">
        <link linkIndex="0" from="A0B0_0" to="B0C0_0">
            <driveWay id="B0.0" vehicle="v_0" edges="B0C0 C0D0 D0E0 E0F0 F0G0 G0H0 H0I0 I0J0 J0right0">
                <forward lanes="B0C0_0"/>
                <bidi lanes=""/>
                <flank lanes=""/>
                <conflictLinks signals=""/>
                <foes driveWays="B0.0"/>
            </driveWay>
        </link>
    </railSignal>
    <railSignal id="C0">
        <link linkIndex="0" from="B0C0_0" to="C0D0_0">
            <driveWay id="C0.0" vehicle="v_0" edges="C0D0 D0E0 E0F0 F0G0 G0H0 H0I0 I0J0 J0right0">
                <forward lanes="C0D0_0"/>
                <bidi lanes=""/>
                <flank lanes=""/>
                <conflictLinks signals=""/>
                <foes driveWays="C0.0"/>
            </driveWay>
        </link>
    </railSignal>
    <railSignal id="D0">
        <link linkIndex="0" from="C0D0_0" to="D0E0_0">
            <driveWay id="D0.0" vehicle="v_0" edges="D0E0 E0F0 F0G0 G0H0 H0I0 I0J0 J0right0">
                <forward lanes="D0E0_0"/>
                <bidi lanes=""/>
                <flank lanes=""/>
                <conflictLinks signals=""/>
                <foes driveWays="D0.0"/>
            </driveWay>
        </link>
    </railSignal>
    <railSignal id="E0">
        <link linkIndex="0" from="D0E0_0" to="E0F0_0">
            <driveWay id="E0.0" vehicle="v_0" edges="E0F0 F0G0 G0H0 H0I0 I0J0 J0right0">
                <forward lanes="E0F0_0"/>
                <bidi lanes=""/>
                <flank lanes=""/>
                <conflictLinks signals=""/>
                <foes driveWays="E0.0"/>
            </driveWay>
        </link>
    </railSignal>
    <railSignal id="F0">
        <link linkIndex="0" from="E0F0_0" to="F0G0_0">
            <driveWay id="F0.0" vehicle="v_0" edges="F0G0 G0H0 H0I0 I0J0 J0right0">
                <forward lanes="F0G0_0"/>
                <bidi lanes=""/>
                <flank lanes=""/>
                <conflictLinks signals=""/>
                <foes driveWays="F0.0"/>
            </driveWay>
        </link>
    </railSignal>
    <railSignal id="G0">
        <link linkIndex="0" from="F0G0_0" to="G0H0_0">
            <driveWay id="G0.0" vehicle="v_0" edges="G0H0 H0I0 I0J0 J0right0">
                <forward lanes="G0H0_0"/>
                <bidi lanes=""/>
                <flank lanes=""/>
                <conflictLinks signals=""/>
                <foes driveWays="G0.0"/>
            </driveWay>
        </link>
    </railSignal>
    <railSignal id="H0">
        <link linkIndex="0" from="G0H0_0" to="H0I0_0">
            <driveWay id="H0.0" vehicle="v_0" edges="H0I0 I0J0 J0right0">
                <forward lanes="H0I0_0"/>
                <bidi lanes=""/>
                <flank lanes=""/>
                <conflictLinks signals=""/>
                <foes driveWays="H0.0"/>
            </driveWay>
        </link>
    </railSignal>
    <railSignal id="I0">
        <link linkIndex="0" from="H0I0_0" to="I0J0_0">
            <driveWay id="I0.0" vehicle="v_0" edges="I0J0 J0right0">
                <forward lanes="I0J0_0"/>
                <bidi lanes=""/>
                <flank lanes=""/>
                <conflictLinks signals=""/>
                <foes driveWays="I0.0"/>
            </driveWay>
        </link>
    </railSignal>
    <railSignal id="J0">
        <link linkIndex="0" from="I0J0_0" to="J0right0_0">
            <driveWay id="J0.0" vehicle="v_0" edges="J0right0">
                <forward lanes="J0right0_0"/>
                <bidi lanes=""/>
                <flank lanes=""/>
                <conflictLinks signals=""/>
                <foes driveWays="J0.0"/>
            </driveWay>
        </link>
    </railSignal>
    <departJunction id="left0">
        <driveWay id="left0.d0" vehicle="v_0" edges="left0A0 A0B0 B0C0 C0D0 D0E0 E0F0 F0G0 G0H0 H0I0 I0J0 J0right0">
            <forward lanes="left0A0_0"/>
            <bidi lanes=""/>
            <flank lanes=""/>
            <conflictLinks signals=""/>
            <foes driveWays="left0.d0"/>
        </driveWay>
    </departJunction>
</railsignal-block-output>
