<?xml version="1.0" encoding="UTF-8"?>

<!-- generated on 2021-06-25 08:55:42 by Eclipse SUMO netedit Version v1_9_2+0644-f4a64959a8
<configuration xmlns:xsi="http://www.w3.org/2001/XMLSchema-instance" xsi:noNamespaceSchemaLocation="http://sumo.dlr.de/xsd/netconvertConfiguration.xsd">

    <input>
        <sumo-net-file value="C:\Users\SUMO-Test\.texttest\tmp\netedit.gui.25Jun085004.7124\netedit.gui\additionalElements\lanecalibrator\inspect_selection\routeprobe\input_net.net.xml"/>
    </input>

    <output>
        <output-file value="C:\Users\SUMO-Test\.texttest\tmp\netedit.gui.25Jun085004.7124\netedit.gui\additionalElements\lanecalibrator\inspect_selection\routeprobe\net.net.xml"/>
    </output>

    <processing>
        <geometry.min-radius.fix.railways value="false"/>
        <geometry.max-grade.fix value="false"/>
        <offset.disable-normalization value="true"/>
        <lefthand value="false"/>
    </processing>

    <junctions>
        <no-turnarounds value="true"/>
        <junctions.corner-detail value="5"/>
        <junctions.limit-turn-speed value="5.5"/>
        <rectangular-lane-cut value="false"/>
    </junctions>

    <pedestrian>
        <walkingareas value="false"/>
    </pedestrian>

    <netedit>
        <additional-files value="C:\Users\SUMO-Test\.texttest\tmp\netedit.gui.25Jun085004.7124\netedit.gui\additionalElements\lanecalibrator\inspect_selection\routeprobe\additionals.xml"/>
        <additionals-output value="C:\Users\SUMO-Test\.texttest\tmp\netedit.gui.25Jun085004.7124\netedit.gui\additionalElements\lanecalibrator\inspect_selection\routeprobe\additionals.xml"/>
        <route-files value="C:\Users\SUMO-Test\.texttest\tmp\netedit.gui.25Jun085004.7124\netedit.gui\additionalElements\lanecalibrator\inspect_selection\routeprobe\routes.xml"/>
        <demandelements-output value="C:\Users\SUMO-Test\.texttest\tmp\netedit.gui.25Jun085004.7124\netedit.gui\additionalElements\lanecalibrator\inspect_selection\routeprobe\routes.xml"/>
        <data-files value="C:\Users\SUMO-Test\.texttest\tmp\netedit.gui.25Jun085004.7124\netedit.gui\additionalElements\lanecalibrator\inspect_selection\routeprobe\datas.xml"/>
        <dataelements-output value="C:\Users\SUMO-Test\.texttest\tmp\netedit.gui.25Jun085004.7124\netedit.gui\additionalElements\lanecalibrator\inspect_selection\routeprobe\datas.xml"/>
    </netedit>

    <visualisation>
        <gui-settings-file value="C:\Users\SUMO-Test\.texttest\tmp\netedit.gui.25Jun085004.7124\netedit.gui\additionalElements\lanecalibrator\inspect_selection\routeprobe\gui-settings.xml"/>
        <window-size value="936,697"/>
        <window-pos value="50,50"/>
        <gui-testing value="true"/>
        <gui-testing-debug value="true"/>
        <gui-testing.setting-output value="C:\Users\SUMO-Test\.texttest\tmp\netedit.gui.25Jun085004.7124\netedit.gui\additionalElements\lanecalibrator\inspect_selection\routeprobe\guisettingsoutput.xml"/>
    </visualisation>

    <report>
        <no-warnings value="true"/>
        <aggregate-warnings value="5"/>
        <error-log value="C:\Users\SUMO-Test\.texttest\tmp\netedit.gui.25Jun085004.7124\netedit.gui\additionalElements\lanecalibrator\inspect_selection\routeprobe\log.txt"/>
    </report>

</configuration>
-->

<additional xmlns:xsi="http://www.w3.org/2001/XMLSchema-instance" xsi:noNamespaceSchemaLocation="http://sumo.dlr.de/xsd/additional_file.xsd">
    <routeProbe id="RouteProbeA" edge="gneE0" freq="3600.00" file="RouteProbeA.xml" begin="0.00"/>
    <routeProbe id="RouteProbeB" edge="gneE0" freq="3600.00" file="RouteProbeB.xml" begin="0.00"/>
    <routeProbe id="customRouteProbeName" edge="gneE0" freq="3600.00" file="RouteProbeB.xml" begin="0.00"/>
    <calibrator id="calibratorA" lane="gneE2_0" pos="20.00" freq="30.00" name="NameA" routeProbe="customRouteProbeName" output="fileA.txt">
        <param key="KeyA1" value="valueA1"/>
        <param key="KeyA2" value="valueA3"/>
        <param key="KeyA3" value="valueA2"/>
    </calibrator>
    <calibrator id="calibratorB" lane="gneE3_0" pos="30.00" freq="40.00" name="NameB" routeProbe="customRouteProbeName" output="fileB.txt">
        <param key="KeyB1" value="valueB1"/>
        <param key="KeyB2" value="valueB3"/>
        <param key="KeyB3" value="valueB2"/>
    </calibrator>
</additional>
