<?xml version="1.0" encoding="UTF-8"?>

<!-- generated on 2023-11-06 16:32:46 by Eclipse SUMO netedit Version v1_18_0+2440-94ba841a93d
-->

<routes xmlns:xsi="http://www.w3.org/2001/XMLSchema-instance" xsi:noNamespaceSchemaLocation="http://sumo.dlr.de/xsd/routes_file.xsd">
    <!-- Vehicles, persons and containers (sorted by depart) -->
    <vehicle id="vehicle_0" depart="0.00">
        <route edges="Edge3 Edge4 Edge5" color="yellow"/>
        <stop parkingArea="parkingAreaA" duration="60.00" parking="1"/>
        <stop parkingArea="parkingAreaA" duration="60.00" parking="1" permitted="containerID1 containerID2 containerID3"/>
    </vehicle>
</routes>
