<routes xmlns:xsi="http://www.w3.org/2001/XMLSchema-instance" xsi:noNamespaceSchemaLocation="http://sumo.dlr.de/xsd/routes_file.xsd">
    <vType id="automated" sigma="0." speedFactor="1"/>
    <vType id="manual" sigma="0.5" speedFactor="normc(0.8,0.1,0.5,1.5)" guiShape="passenger/van"/>
    <vehicle id="deviceHolder" type="automated" depart="0" departPos="last">
        <route edges="1/1to2/1 2/1to3/1 3/1to4/1 4/1to5/1 5/1to6/1"/>
        <param key="has.driverstate.device" value="true"/>
        <param key="device.driverstate.minAwareness" value="0.01"/>
        <param key="device.driverstate.initialAwareness" value="0.02"/>
        <param key="device.driverstate.errorTimeScaleCoefficient" value="1.11"/>
        <param key="device.driverstate.errorNoiseIntensityCoefficient" value="2.22"/>
        <param key="device.driverstate.speedDifferenceErrorCoefficient" value="3.33"/>
        <param key="device.driverstate.headwayErrorCoefficient" value="4.44"/>
        <param key="device.driverstate.speedDifferenceChangePerceptionThreshold" value="5.55"/>
        <param key="device.driverstate.headwayChangePerceptionThreshold" value="6.66"/>
        <param key="device.driverstate.maximalReactionTime" value="7.77"/>
    </vehicle>
</routes>
