<?xml version="1.0" encoding="UTF-8"?>

<!-- generated on 2022-10-06 11:28:08 by Eclipse SUMO netedit Version v1_14_1+1476-a38e5c2ef32
-->

<routes xmlns:xsi="http://www.w3.org/2001/XMLSchema-instance" xsi:noNamespaceSchemaLocation="http://sumo.dlr.de/xsd/routes_file.xsd">
    <!-- Routes -->
    <route id="route_0" edges="gneE0 gneE1" color="yellow"/>
    <!-- Vehicles, persons and containers (sorted by depart) -->
    <vehicle id="vehicle_0" depart="0.00" route="route_0">
        <stop busStop="busStopB" duration="60.00"/>
    </vehicle>
</routes>
