<?xml version="1.0" encoding="UTF-8"?>

<!-- generated on 2025-09-26T11:33:05.717742+01:00 by Eclipse SUMO netconvert v1_24_0+1017-55edef68438
This data file and the accompanying materials
are made available under the terms of the Eclipse Public License v2.0
which accompanies this distribution, and is available at
http://www.eclipse.org/legal/epl-v20.html
This file may also be made available under the following Secondary
Licenses when the conditions for such availability set forth in the Eclipse
Public License 2.0 are satisfied: GNU General Public License, version 2
or later which is available at
https://www.gnu.org/licenses/old-licenses/gpl-2.0-standalone.html
SPDX-License-Identifier: EPL-2.0 OR GPL-2.0-or-later
<netconvertConfiguration xmlns:xsi="http://www.w3.org/2001/XMLSchema-instance" xsi:noNamespaceSchemaLocation="http://sumo.dlr.de/xsd/netconvertConfiguration.xsd">

    <input>
        <node-files value="input_plain.nod.xml"/>
        <edge-files value="input_plain.edg.xml"/>
    </input>

    <output>
        <write-license value="true"/>
        <output.street-names value="true"/>
    </output>

    <report>
        <xml-validation value="never"/>
        <ignore-errors.edge-type value="true"/>
    </report>

</netconvertConfiguration>
-->

<net version="1.20" junctionCornerDetail="5" limitTurnSpeed="5.50" xmlns:xsi="http://www.w3.org/2001/XMLSchema-instance" xsi:noNamespaceSchemaLocation="http://sumo.dlr.de/xsd/net_file.xsd">

    <location netOffset="-400761.91,-5810345.46" convBoundary="0.00,0.00,156.94,193.28" origBoundary="13.510966,52.428677,13.569823,52.453865" projParameter="+proj=utm +zone=33 +ellps=WGS84 +datum=WGS84 +units=m +no_defs"/>

    <edge id=":5227919819_0" function="internal">
        <lane id=":5227919819_0_0" index="0" allow="bicycle" speed="5.56" length="5.88" width="1.00" shape="77.04,144.87 75.85,146.13 74.98,146.96 74.04,147.70 72.62,148.70"/>
    </edge>
    <edge id=":5227920304_0" function="internal">
        <lane id=":5227920304_0_0" index="0" allow="bicycle" speed="5.56" length="3.42" width="1.00" shape="98.90,119.28 96.84,122.01"/>
    </edge>
    <edge id=":6366092613_0" function="internal">
        <lane id=":6366092613_0_0" index="0" disallow="pedestrian bicycle rail_urban rail rail_electric rail_fast ship" speed="3.65" length="4.67" shape="105.77,142.46 106.43,143.75 106.39,144.64 105.65,145.14 104.21,145.26"/>
    </edge>
    <edge id=":cluster_101333380_1652675105_1704693841_2169462573_#17more_0" function="internal">
        <lane id=":cluster_101333380_1652675105_1704693841_2169462573_#17more_0_0" index="0" allow="bicycle" speed="8.03" length="12.35" width="1.00" shape="88.28,142.46 85.40,141.34 82.58,141.35 79.84,142.47 77.18,144.72"/>
    </edge>
    <edge id=":cluster_101333380_1652675105_1704693841_2169462573_#17more_1" function="internal">
        <lane id=":cluster_101333380_1652675105_1704693841_2169462573_#17more_1_0" index="0" allow="bicycle" speed="13.89" length="43.15" width="1.00" shape="88.28,142.46 49.18,124.22"/>
    </edge>
    <edge id=":cluster_101333380_1652675105_1704693841_2169462573_#17more_2" function="internal">
        <lane id=":cluster_101333380_1652675105_1704693841_2169462573_#17more_2_0" index="0" allow="bicycle" speed="12.84" length="16.70" width="1.00" shape="88.28,142.46 82.58,135.37 79.81,128.29"/>
    </edge>
    <edge id=":cluster_101333380_1652675105_1704693841_2169462573_#17more_3" function="internal">
        <lane id=":cluster_101333380_1652675105_1704693841_2169462573_#17more_3_0" index="0" disallow="pedestrian bicycle tram rail_urban rail rail_electric rail_fast ship" speed="12.35" length="5.89" shape="89.39,140.67 84.34,139.45 83.67,139.63"/>
    </edge>
    <edge id=":cluster_101333380_1652675105_1704693841_2169462573_#17more_4" function="internal">
        <lane id=":cluster_101333380_1652675105_1704693841_2169462573_#17more_4_0" index="0" disallow="pedestrian bicycle tram rail_urban rail rail_electric rail_fast ship" speed="13.89" length="43.38" shape="89.39,140.67 77.08,134.47 66.29,130.14 57.13,126.72 49.73,123.27"/>
        <lane id=":cluster_101333380_1652675105_1704693841_2169462573_#17more_4_1" index="1" disallow="pedestrian bicycle tram rail_urban rail rail_electric rail_fast ship" speed="13.89" length="43.38" shape="91.07,137.94 78.75,131.74 67.94,127.39 58.75,123.96 51.35,120.51"/>
    </edge>
    <edge id=":cluster_101333380_1652675105_1704693841_2169462573_#17more_6" function="internal">
        <lane id=":cluster_101333380_1652675105_1704693841_2169462573_#17more_6_0" index="0" disallow="pedestrian bicycle tram rail_urban rail rail_electric rail_fast ship" speed="11.80" length="6.96" shape="91.07,137.94 86.32,132.86"/>
    </edge>
    <edge id=":cluster_101333380_1652675105_1704693841_2169462573_#17more_7" function="internal">
        <lane id=":cluster_101333380_1652675105_1704693841_2169462573_#17more_7_0" index="0" disallow="pedestrian bicycle rail_urban rail rail_electric rail_fast ship" speed="3.65" length="1.44" shape="91.07,137.94 90.47,136.63"/>
    </edge>
    <edge id=":cluster_101333380_1652675105_1704693841_2169462573_#17more_36" function="internal">
        <lane id=":cluster_101333380_1652675105_1704693841_2169462573_#17more_36_0" index="0" allow="bicycle" speed="12.84" length="26.32" width="1.00" shape="79.81,128.29 77.95,123.55 75.80,111.24 77.49,102.67"/>
    </edge>
    <edge id=":cluster_101333380_1652675105_1704693841_2169462573_#17more_37" function="internal">
        <lane id=":cluster_101333380_1652675105_1704693841_2169462573_#17more_37_0" index="0" disallow="pedestrian bicycle tram rail_urban rail rail_electric rail_fast ship" speed="12.35" length="23.87" shape="83.67,139.63 78.51,141.09 71.88,145.62 64.46,153.01"/>
    </edge>
    <edge id=":cluster_101333380_1652675105_1704693841_2169462573_#17more_38" function="internal">
        <lane id=":cluster_101333380_1652675105_1704693841_2169462573_#17more_38_0" index="0" disallow="pedestrian bicycle tram rail_urban rail rail_electric rail_fast ship" speed="11.80" length="28.51" shape="86.32,132.86 85.58,132.07 81.44,122.91 79.77,113.27 81.68,105.92"/>
    </edge>
    <edge id=":cluster_101333380_1652675105_1704693841_2169462573_#17more_39" function="internal">
        <lane id=":cluster_101333380_1652675105_1704693841_2169462573_#17more_39_0" index="0" disallow="pedestrian bicycle rail_urban rail rail_electric rail_fast ship" speed="3.65" length="3.23" shape="90.47,136.63 90.54,135.74 91.31,135.27 92.75,135.22"/>
    </edge>
    <edge id=":cluster_101333380_1652675105_1704693841_2169462573_#17more_8" function="internal">
        <lane id=":cluster_101333380_1652675105_1704693841_2169462573_#17more_8_0" index="0" allow="bicycle" speed="6.21" length="9.89" width="1.00" shape="96.72,122.17 94.74,125.07 93.89,127.46 94.15,129.34 95.53,130.71"/>
    </edge>
    <edge id=":cluster_101333380_1652675105_1704693841_2169462573_#17more_9" function="internal">
        <lane id=":cluster_101333380_1652675105_1704693841_2169462573_#17more_9_0" index="0" allow="bicycle" speed="5.56" length="29.84" width="1.00" shape="96.72,122.17 77.18,144.72"/>
    </edge>
    <edge id=":cluster_101333380_1652675105_1704693841_2169462573_#17more_10" function="internal">
        <lane id=":cluster_101333380_1652675105_1704693841_2169462573_#17more_10_0" index="0" allow="bicycle" speed="9.72" length="3.17" width="1.00" shape="96.72,122.17 94.30,124.23"/>
    </edge>
    <edge id=":cluster_101333380_1652675105_1704693841_2169462573_#17more_11" function="internal">
        <lane id=":cluster_101333380_1652675105_1704693841_2169462573_#17more_11_0" index="0" allow="bicycle" speed="7.35" length="1.54" width="1.00" shape="96.72,122.17 95.64,121.07"/>
    </edge>
    <edge id=":cluster_101333380_1652675105_1704693841_2169462573_#17more_40" function="internal">
        <lane id=":cluster_101333380_1652675105_1704693841_2169462573_#17more_40_0" index="0" allow="bicycle" speed="9.72" length="49.22" width="1.00" shape="94.30,124.23 87.64,129.92 76.69,132.85 63.87,130.95 49.18,124.22"/>
    </edge>
    <edge id=":cluster_101333380_1652675105_1704693841_2169462573_#17more_41" function="internal">
        <lane id=":cluster_101333380_1652675105_1704693841_2169462573_#17more_41_0" index="0" allow="bicycle" speed="7.35" length="25.84" width="1.00" shape="95.64,121.07 77.49,102.67"/>
    </edge>
    <edge id=":cluster_101333380_1652675105_1704693841_2169462573_#17more_12" function="internal">
        <lane id=":cluster_101333380_1652675105_1704693841_2169462573_#17more_12_0" index="0" disallow="pedestrian bicycle tram rail_urban rail rail_electric rail_fast ship" speed="8.48" length="17.68" shape="96.15,117.11 92.79,122.35 91.38,126.66 91.93,130.04 94.43,132.49"/>
    </edge>
    <edge id=":cluster_101333380_1652675105_1704693841_2169462573_#17more_13" function="internal">
        <lane id=":cluster_101333380_1652675105_1704693841_2169462573_#17more_13_0" index="0" disallow="pedestrian bicycle tram rail_urban rail rail_electric rail_fast ship" speed="13.89" length="47.67" shape="96.15,117.11 64.46,153.01"/>
        <lane id=":cluster_101333380_1652675105_1704693841_2169462573_#17more_13_1" index="1" disallow="pedestrian bicycle tram rail_urban rail rail_electric rail_fast ship" speed="13.89" length="47.67" shape="93.62,115.16 62.06,150.89"/>
        <lane id=":cluster_101333380_1652675105_1704693841_2169462573_#17more_13_2" index="2" disallow="pedestrian bicycle tram rail_urban rail rail_electric rail_fast ship" speed="13.89" length="47.67" shape="91.09,113.20 59.67,148.77"/>
    </edge>
    <edge id=":cluster_101333380_1652675105_1704693841_2169462573_#17more_16" function="internal">
        <lane id=":cluster_101333380_1652675105_1704693841_2169462573_#17more_16_0" index="0" disallow="pedestrian bicycle tram rail_urban rail rail_electric rail_fast ship" speed="13.89" length="18.53" shape="88.56,111.24 80.10,119.87 74.31,122.71"/>
    </edge>
    <edge id=":cluster_101333380_1652675105_1704693841_2169462573_#17more_17" function="internal">
        <lane id=":cluster_101333380_1652675105_1704693841_2169462573_#17more_17_0" index="0" disallow="pedestrian bicycle tram rail_urban rail rail_electric rail_fast ship" speed="5.36" length="9.38" shape="88.56,111.24 84.84,112.49 82.46,112.02 81.40,109.83 81.45,109.23"/>
    </edge>
    <edge id=":cluster_101333380_1652675105_1704693841_2169462573_#17more_42" function="internal">
        <lane id=":cluster_101333380_1652675105_1704693841_2169462573_#17more_42_0" index="0" disallow="pedestrian bicycle tram rail_urban rail rail_electric rail_fast ship" speed="13.89" length="24.09" shape="74.31,122.71 71.08,124.29 61.50,124.50 51.35,120.51"/>
    </edge>
    <edge id=":cluster_101333380_1652675105_1704693841_2169462573_#17more_43" function="internal">
        <lane id=":cluster_101333380_1652675105_1704693841_2169462573_#17more_43_0" index="0" disallow="pedestrian bicycle tram rail_urban rail rail_electric rail_fast ship" speed="5.36" length="3.32" shape="81.45,109.23 81.68,105.92"/>
    </edge>
    <edge id=":cluster_101333380_1652675105_1704693841_2169462573_#17more_18" function="internal">
        <lane id=":cluster_101333380_1652675105_1704693841_2169462573_#17more_18_0" index="0" allow="bicycle" speed="9.16" length="17.70" width="1.00" shape="61.61,104.20 66.38,106.35 70.61,106.82 74.31,105.59 77.49,102.67"/>
    </edge>
    <edge id=":cluster_101333380_1652675105_1704693841_2169462573_#17more_19" function="internal">
        <lane id=":cluster_101333380_1652675105_1704693841_2169462573_#17more_19_0" index="0" allow="bicycle" speed="13.89" length="43.13" width="1.00" shape="61.61,104.20 69.91,110.18 76.89,116.61 84.72,123.45 95.53,130.71"/>
    </edge>
    <edge id=":cluster_101333380_1652675105_1704693841_2169462573_#17more_20" function="internal">
        <lane id=":cluster_101333380_1652675105_1704693841_2169462573_#17more_20_0" index="0" allow="bicycle" speed="9.72" length="28.89" width="1.00" shape="61.61,104.20 68.08,111.58 74.42,123.86 75.95,128.89"/>
    </edge>
    <edge id=":cluster_101333380_1652675105_1704693841_2169462573_#17more_21" function="internal">
        <lane id=":cluster_101333380_1652675105_1704693841_2169462573_#17more_21_0" index="0" disallow="pedestrian bicycle tram rail_urban rail rail_electric rail_fast ship" speed="10.07" length="2.24" shape="60.42,106.22 62.46,107.13"/>
    </edge>
    <edge id=":cluster_101333380_1652675105_1704693841_2169462573_#17more_22" function="internal">
        <lane id=":cluster_101333380_1652675105_1704693841_2169462573_#17more_22_0" index="0" disallow="pedestrian bicycle tram rail_urban rail rail_electric rail_fast ship" speed="13.89" length="43.02" shape="60.42,106.22 68.73,112.17 75.74,118.51 83.60,125.28 94.43,132.49"/>
        <lane id=":cluster_101333380_1652675105_1704693841_2169462573_#17more_22_1" index="1" disallow="pedestrian bicycle tram rail_urban rail rail_electric rail_fast ship" speed="13.89" length="43.02" shape="58.80,108.98 67.09,114.92 74.09,121.25 81.93,128.01 92.75,135.22"/>
    </edge>
    <edge id=":cluster_101333380_1652675105_1704693841_2169462573_#17more_24" function="internal">
        <lane id=":cluster_101333380_1652675105_1704693841_2169462573_#17more_24_0" index="0" disallow="pedestrian bicycle tram rail_urban rail rail_electric rail_fast ship" speed="12.57" length="16.37" shape="58.80,108.98 62.98,116.18 63.87,124.17"/>
    </edge>
    <edge id=":cluster_101333380_1652675105_1704693841_2169462573_#17more_25" function="internal">
        <lane id=":cluster_101333380_1652675105_1704693841_2169462573_#17more_25_0" index="0" disallow="pedestrian bicycle tram rail_urban rail rail_electric rail_fast ship" speed="6.54" length="16.38" shape="58.80,108.98 61.26,114.65 60.84,118.47 57.53,120.42 55.02,120.45"/>
    </edge>
    <edge id=":cluster_101333380_1652675105_1704693841_2169462573_#17more_44" function="internal">
        <lane id=":cluster_101333380_1652675105_1704693841_2169462573_#17more_44_0" index="0" allow="bicycle" speed="9.72" length="16.24" width="1.00" shape="75.95,128.89 78.25,136.43 77.18,144.72"/>
    </edge>
    <edge id=":cluster_101333380_1652675105_1704693841_2169462573_#17more_45" function="internal">
        <lane id=":cluster_101333380_1652675105_1704693841_2169462573_#17more_45_0" index="0" disallow="pedestrian bicycle tram rail_urban rail rail_electric rail_fast ship" speed="10.07" length="18.72" shape="62.46,107.13 65.95,108.68 70.91,109.12 75.31,107.55 79.15,103.96"/>
    </edge>
    <edge id=":cluster_101333380_1652675105_1704693841_2169462573_#17more_46" function="internal">
        <lane id=":cluster_101333380_1652675105_1704693841_2169462573_#17more_46_0" index="0" disallow="pedestrian bicycle tram rail_urban rail rail_electric rail_fast ship" speed="12.57" length="25.36" shape="63.87,124.17 64.30,128.09 63.09,140.39 59.67,148.77"/>
    </edge>
    <edge id=":cluster_101333380_1652675105_1704693841_2169462573_#17more_47" function="internal">
        <lane id=":cluster_101333380_1652675105_1704693841_2169462573_#17more_47_0" index="0" disallow="pedestrian bicycle tram rail_urban rail rail_electric rail_fast ship" speed="6.54" length="3.67" shape="55.02,120.45 51.35,120.51"/>
    </edge>
    <edge id=":cluster_101333380_1652675105_1704693841_2169462573_#17more_26" function="internal">
        <lane id=":cluster_101333380_1652675105_1704693841_2169462573_#17more_26_0" index="0" allow="bicycle" speed="7.79" length="15.57" width="1.50" shape="46.90,137.47 50.12,132.84 51.59,129.06 51.32,126.11 49.30,124.00"/>
    </edge>
    <edge id=":cluster_101333380_1652675105_1704693841_2169462573_#17more_27" function="internal">
        <lane id=":cluster_101333380_1652675105_1704693841_2169462573_#17more_27_0" index="0" allow="bicycle" speed="13.89" length="46.32" width="1.00" shape="46.90,137.47 77.49,102.67"/>
    </edge>
    <edge id=":cluster_101333380_1652675105_1704693841_2169462573_#17more_28" function="internal">
        <lane id=":cluster_101333380_1652675105_1704693841_2169462573_#17more_28_0" index="0" allow="bicycle" speed="13.89" length="35.11" width="1.00" shape="46.90,137.47 57.13,128.19 68.64,123.96 77.66,124.56"/>
    </edge>
    <edge id=":cluster_101333380_1652675105_1704693841_2169462573_#17more_29" function="internal">
        <lane id=":cluster_101333380_1652675105_1704693841_2169462573_#17more_29_0" index="0" allow="bicycle" speed="7.94" length="31.13" width="1.00" shape="46.90,137.47 77.18,144.72"/>
    </edge>
    <edge id=":cluster_101333380_1652675105_1704693841_2169462573_#17more_30" function="internal">
        <lane id=":cluster_101333380_1652675105_1704693841_2169462573_#17more_30_0" index="0" disallow="pedestrian bicycle tram rail_urban rail rail_electric rail_fast ship" speed="8.57" length="3.51" shape="48.66,139.03 50.61,136.11"/>
    </edge>
    <edge id=":cluster_101333380_1652675105_1704693841_2169462573_#17more_31" function="internal">
        <lane id=":cluster_101333380_1652675105_1704693841_2169462573_#17more_31_0" index="0" disallow="pedestrian bicycle tram rail_urban rail rail_electric rail_fast ship" speed="13.89" length="46.57" shape="48.66,139.03 79.15,103.96"/>
        <lane id=":cluster_101333380_1652675105_1704693841_2169462573_#17more_31_1" index="1" disallow="pedestrian bicycle tram rail_urban rail rail_electric rail_fast ship" speed="13.89" length="46.57" shape="51.06,141.15 81.68,105.92"/>
    </edge>
    <edge id=":cluster_101333380_1652675105_1704693841_2169462573_#17more_33" function="internal">
        <lane id=":cluster_101333380_1652675105_1704693841_2169462573_#17more_33_0" index="0" disallow="pedestrian bicycle tram rail_urban rail rail_electric rail_fast ship" speed="13.89" length="25.17" shape="53.46,143.27 63.13,133.83 73.18,128.89 73.64,128.87"/>
        <lane id=":cluster_101333380_1652675105_1704693841_2169462573_#17more_33_1" index="1" disallow="pedestrian bicycle tram rail_urban rail rail_electric rail_fast ship" speed="13.89" length="16.86" shape="55.86,145.40 64.66,136.75 68.69,134.71"/>
    </edge>
    <edge id=":cluster_101333380_1652675105_1704693841_2169462573_#17more_35" function="internal">
        <lane id=":cluster_101333380_1652675105_1704693841_2169462573_#17more_35_0" index="0" disallow="pedestrian bicycle tram rail_urban rail rail_electric rail_fast ship" speed="4.34" length="4.04" shape="55.86,145.40 58.08,144.81 59.45,145.18 59.57,145.48"/>
    </edge>
    <edge id=":cluster_101333380_1652675105_1704693841_2169462573_#17more_48" function="internal">
        <lane id=":cluster_101333380_1652675105_1704693841_2169462573_#17more_48_0" index="0" allow="bicycle" speed="13.89" length="19.06" width="1.00" shape="77.66,124.56 81.44,124.80 95.53,130.71"/>
    </edge>
    <edge id=":cluster_101333380_1652675105_1704693841_2169462573_#17more_49" function="internal">
        <lane id=":cluster_101333380_1652675105_1704693841_2169462573_#17more_49_0" index="0" disallow="pedestrian bicycle tram rail_urban rail rail_electric rail_fast ship" speed="8.57" length="14.85" shape="50.61,136.11 52.11,133.88 53.44,129.53 52.64,126.00 49.73,123.27"/>
    </edge>
    <edge id=":cluster_101333380_1652675105_1704693841_2169462573_#17more_50" function="internal">
        <lane id=":cluster_101333380_1652675105_1704693841_2169462573_#17more_50_0" index="0" disallow="pedestrian bicycle tram rail_urban rail rail_electric rail_fast ship" speed="13.89" length="21.53" shape="73.64,128.87 83.61,128.44 94.43,132.49"/>
        <lane id=":cluster_101333380_1652675105_1704693841_2169462573_#17more_50_1" index="0" disallow="pedestrian bicycle tram rail_urban rail rail_electric rail_fast ship" speed="13.89" length="25.31" shape="68.69,134.71 73.75,132.17 83.11,131.66 92.75,135.22"/>
    </edge>
    <edge id=":cluster_101333380_1652675105_1704693841_2169462573_#17more_51" function="internal">
        <lane id=":cluster_101333380_1652675105_1704693841_2169462573_#17more_51_0" index="0" disallow="pedestrian bicycle tram rail_urban rail rail_electric rail_fast ship" speed="4.34" length="3.39" shape="59.57,145.48 59.98,146.50 59.67,148.77"/>
    </edge>

    <edge id="-679901152#1" from="cluster_101333380_1652675105_1704693841_2169462573_#17more" to="6366092613" name="Dörpfeldstraße" priority="10" type="cycleway.lane|highway.tertiary" shape="87.80,134.11 90.56,135.81 92.97,137.19 94.55,138.04 104.99,143.86">
        <lane id="-679901152#1_0" index="0" allow="pedestrian" speed="13.89" length="14.73" width="3.00" shape="96.58,129.00 97.31,129.42 98.83,130.23 109.32,136.09">
            <param key="origId" value="679901152"/>
        </lane>
        <lane id="-679901152#1_1" index="1" allow="bicycle" speed="13.89" length="14.73" width="1.00" shape="95.53,130.71 96.34,131.17 97.86,131.99 108.35,137.83">
            <param key="origId" value="679901152"/>
        </lane>
        <lane id="-679901152#1_2" index="2" disallow="pedestrian bicycle tram rail_urban rail rail_electric rail_fast ship" speed="13.89" length="14.73" shape="94.43,132.49 95.31,133.00 96.86,133.83 107.33,139.67">
            <param key="origId" value="679901152"/>
        </lane>
        <lane id="-679901152#1_3" index="3" disallow="pedestrian bicycle rail_urban rail rail_electric rail_fast ship" speed="13.89" length="14.73" shape="92.75,135.22 93.75,135.79 95.32,136.64 105.77,142.46">
            <param key="origId" value="679901152"/>
        </lane>
        <param key="origFrom" value="3366620155"/>
    </edge>
    <edge id="1009301395" from="5226716080" to="cluster_101333380_1652675105_1704693841_2169462573_#17more" priority="1" type="highway.footway" spreadType="center" shape="67.88,102.23 74.60,103.36 79.00,106.76">
        <lane id="1009301395_0" index="0" allow="pedestrian" speed="2.78" length="0.20" width="2.00" shape="68.60,102.35 68.80,102.38">
            <param key="origId" value="1009301395 329733354"/>
        </lane>
        <param key="origTo" value="3366620150"/>
    </edge>
    <edge id="1051747163#4" from="10291077086" to="cluster_101333380_1652675105_1704693841_2169462573_#17more" priority="1" type="highway.footway" spreadType="center" shape="43.98,131.41 47.35,134.65 55.78,137.86">
        <lane id="1051747163#4_0" index="0" allow="pedestrian" speed="2.78" length="0.20" width="2.00" shape="44.18,131.60 44.32,131.74">
            <param key="origId" value="1051747163 951475051"/>
        </lane>
        <param key="origTo" value="3366620157"/>
    </edge>
    <edge id="1145174465#1" from="cluster_101333380_1652675105_1704693841_2169462573_#17more" to="5227919819" priority="1" type="highway.path" spreadType="center" shape="87.41,135.25 77.39,145.96">
        <lane id="1145174465#1_0" index="0" allow="pedestrian" speed="5.56" length="0.20" width="2.00" shape="78.28,145.74 78.14,145.89">
            <param key="origId" value="1145174465"/>
        </lane>
        <lane id="1145174465#1_1" index="1" allow="bicycle" speed="5.56" length="0.20" width="1.00" shape="77.18,144.72 77.04,144.87">
            <param key="origId" value="1145174465"/>
        </lane>
        <param key="origFrom" value="8243171062"/>
    </edge>
    <edge id="140162593" from="5227918937" to="1535593217" priority="1" type="highway.footway" spreadType="center">
        <lane id="140162593_0" index="0" allow="pedestrian" speed="2.78" length="0.20" width="2.00" shape="30.97,118.73 30.94,118.93">
            <param key="origId" value="140162593"/>
        </lane>
    </edge>
    <edge id="140162594" from="1535593217" to="1535593221" priority="1" type="highway.steps" spreadType="center">
        <lane id="140162594_0" index="0" allow="pedestrian" speed="1.39" length="5.12" width="2.00" shape="30.87,118.48 27.46,122.29">
            <param key="origId" value="140162594"/>
        </lane>
    </edge>
    <edge id="140162596" from="5227918937" to="1535593213" priority="1" type="highway.footway" spreadType="center">
        <lane id="140162596_0" index="0" allow="pedestrian" speed="2.78" length="0.20" width="2.00" shape="29.26,117.22 29.07,117.28">
            <param key="origId" value="140162596"/>
        </lane>
    </edge>
    <edge id="140162598" from="1535593213" to="1535593215" priority="1" type="highway.steps" spreadType="center">
        <lane id="140162598_0" index="0" allow="pedestrian" speed="1.39" length="6.83" width="2.00" shape="29.54,117.27 24.99,122.36">
            <param key="origId" value="140162598"/>
        </lane>
    </edge>
    <edge id="140162604" from="1535593214" to="1535593218" priority="1" type="highway.steps" spreadType="center">
        <lane id="140162604_0" index="0" allow="pedestrian" speed="1.39" length="5.45" width="2.00" shape="30.29,117.78 26.66,121.84">
            <param key="origId" value="140162604"/>
        </lane>
    </edge>
    <edge id="140162607" from="5226739974" to="1535593192" priority="1" type="highway.footway" spreadType="center">
        <lane id="140162607_0" index="0" allow="pedestrian" speed="2.78" length="0.20" width="2.00" shape="47.94,97.69 48.07,97.53">
            <param key="origId" value="140162607"/>
        </lane>
    </edge>
    <edge id="206889086#1" from="cluster_101333380_1652675105_1704693841_2169462573_#17more" to="1656195133" name="Rudower Chaussee" priority="11" type="highway.secondary" spreadType="center" shape="51.38,122.38 37.41,114.21 32.69,111.44 25.96,107.50">
        <lane id="206889086#1_0" index="0" disallow="pedestrian tram rail_urban rail rail_electric rail_fast ship" speed="13.89" length="28.48" shape="49.73,123.27 36.60,115.59 31.88,112.82 25.15,108.88">
            <param key="origId" value="206889086"/>
        </lane>
        <lane id="206889086#1_1" index="1" disallow="pedestrian tram rail_urban rail rail_electric rail_fast ship" speed="13.89" length="28.48" shape="51.35,120.51 38.22,112.83 33.50,110.06 26.77,106.12">
            <param key="origId" value="206889086"/>
        </lane>
        <param key="origFrom" value="3366620154"/>
    </edge>
    <edge id="318210354#0" from="3246050939" to="cluster_101333380_1652675105_1704693841_2169462573_#17more" name="Adlergestell" priority="12" type="cycleway.track|highway.primary" spreadType="center" shape="36.05,158.63 51.24,139.90 54.03,136.45">
        <lane id="318210354#0_0" index="0" allow="pedestrian" speed="13.89" length="23.08" width="3.00" shape="30.50,154.13 45.22,135.97">
            <param key="origId" value="318210354"/>
        </lane>
        <lane id="318210354#0_1" index="1" allow="bicycle" speed="13.89" length="23.08" width="1.50" shape="32.24,155.54 46.90,137.47">
            <param key="origId" value="318210354"/>
        </lane>
        <lane id="318210354#0_2" index="2" disallow="pedestrian bicycle tram rail_urban rail rail_electric rail_fast ship" speed="13.89" length="23.08" shape="34.07,157.02 48.66,139.03">
            <param key="origId" value="318210354"/>
        </lane>
        <lane id="318210354#0_3" index="3" disallow="pedestrian bicycle tram rail_urban rail rail_electric rail_fast ship" speed="13.89" length="23.08" shape="36.55,159.04 51.06,141.15">
            <param key="origId" value="318210354"/>
        </lane>
        <lane id="318210354#0_4" index="4" disallow="pedestrian bicycle tram rail_urban rail rail_electric rail_fast ship" speed="13.89" length="23.08" shape="39.04,161.06 53.46,143.27" changeLeft="authority">
            <param key="origId" value="318210354"/>
        </lane>
        <lane id="318210354#0_5" index="5" disallow="pedestrian bicycle tram rail_urban rail rail_electric rail_fast ship" speed="13.89" length="23.08" shape="41.53,163.07 55.86,145.40" changeRight="authority">
            <param key="origId" value="318210354"/>
        </lane>
        <param key="origTo" value="3366620157"/>
        <param key="ref" value="B 96a"/>
    </edge>
    <edge id="318210357#0" from="3246050937" to="cluster_101333380_1652675105_1704693841_2169462573_#17more" name="Adlergestell" priority="12" type="highway.primary" spreadType="center" shape="107.15,94.73 93.75,112.34 90.94,116.03">
        <lane id="318210357#0_0" index="0" disallow="pedestrian bicycle tram rail_urban rail rail_electric rail_fast ship" speed="13.89" length="24.44" shape="110.97,97.64 97.57,115.25 96.15,117.11">
            <param key="origId" value="318210357"/>
        </lane>
        <lane id="318210357#0_1" index="1" disallow="pedestrian bicycle tram rail_urban rail rail_electric rail_fast ship" speed="13.89" length="24.44" shape="108.42,95.70 95.02,113.31 93.62,115.16">
            <param key="origId" value="318210357"/>
        </lane>
        <lane id="318210357#0_2" index="2" disallow="pedestrian bicycle tram rail_urban rail rail_electric rail_fast ship" speed="13.89" length="24.44" shape="105.88,93.76 92.48,111.37 91.09,113.20" changeLeft="authority">
            <param key="origId" value="318210357"/>
        </lane>
        <lane id="318210357#0_3" index="3" disallow="pedestrian bicycle tram rail_urban rail rail_electric rail_fast ship" speed="13.89" length="24.44" shape="103.33,91.82 89.93,109.43 88.56,111.24" changeRight="authority">
            <param key="origId" value="318210357"/>
        </lane>
        <param key="origTo" value="3366620152"/>
        <param key="ref" value="B 96a"/>
    </edge>
    <edge id="329733354#2" from="cluster_101333380_1652675105_1704693841_2169462573_#17more" to="5227920304" priority="1" type="highway.footway" spreadType="center" shape="90.94,116.03 97.79,121.63">
        <lane id="329733354#2_0" index="0" allow="pedestrian" speed="2.78" length="0.20" width="2.00" shape="96.92,120.92 97.08,121.05">
            <param key="origId" value="329733354"/>
        </lane>
        <param key="origFrom" value="3366620152"/>
    </edge>
    <edge id="329733357#0" from="5226716080" to="cluster_101333380_1652675105_1704693841_2169462573_#17more" priority="1" type="highway.footway" spreadType="center" shape="67.88,102.23 62.20,109.13">