<?xml version="1.0" encoding="UTF-8"?>

<!-- generated on 30/12/2016 11:33:45 by Netedit Version dev-SVN-r22364
<?xml version="1.0" encoding="UTF-8"?>

<configuration xmlns:xsi="http://www.w3.org/2001/XMLSchema-instance" xsi:noNamespaceSchemaLocation="http://sumo.dlr.de/xsd/netedit.exeConfiguration.xsd">

    <input>
        <sumo-net-file value="C:\Proyectos\Sumo_Trunk\tests\netedit\additionalElements\busstop\inspect\input_net.net.xml"/>
    </input>

    <output>
        <output-file value="C:\Proyectos\Sumo_Trunk\tests\netedit\additionalElements\busstop\inspect\input_net.net.xml"/>
        <plain-output-prefix value="C:\Users\Palcraft\Desktop\input_net"/>
    </output>

    <processing>
        <no-turnarounds value="true"/>
        <offset.disable-normalization value="true"/>
        <lefthand value="false"/>
        <junctions.corner-detail value="0"/>
    </processing>

</configuration>
-->

<connections version="0.27" xmlns:xsi="http://www.w3.org/2001/XMLSchema-instance" xsi:noNamespaceSchemaLocation="http://sumo.dlr.de/xsd/connections_file.xsd">
    <connection from="gneE0" to="gneE1" fromLane="0" toLane="0"/>

    <connection from="gneE1" to="gneE0" fromLane="0" toLane="0"/>

</connections>
