<?xml version="1.0" encoding="UTF-8"?>

<!-- generated on Mon Feb 17 15:31:08 2020 by Eclipse SUMO netconvert Version v1_5_0+0130-ceb0a01
This data file and the accompanying materials
are made available under the terms of the Eclipse Public License v2.0
which accompanies this distribution, and is available at
http://www.eclipse.org/legal/epl-v20.html
SPDX-License-Identifier: EPL-2.0
<configuration xmlns:xsi="http://www.w3.org/2001/XMLSchema-instance" xsi:noNamespaceSchemaLocation="http://sumo.dlr.de/xsd/netconvertConfiguration.xsd">

    <input>
        <sumo-net-file value="input_net.net.xml"/>
    </input>

    <output>
        <write-license value="true"/>
        <output-file value="net.net.xml"/>
        <plain-output-prefix value="plain"/>
    </output>

    <processing>
        <geometry.min-radius.fix.railways value="false"/>
        <geometry.max-grade.fix value="false"/>
        <offset.disable-normalization value="true"/>
        <lefthand value="false"/>
    </processing>

    <junctions>
        <no-internal-links value="true"/>
        <no-turnarounds value="true"/>
        <junctions.corner-detail value="0"/>
        <junctions.limit-turn-speed value="-1"/>
        <rectangular-lane-cut value="false"/>
    </junctions>

    <pedestrian>
        <walkingareas value="false"/>
    </pedestrian>

    <report>
        <xml-validation value="never"/>
        <aggregate-warnings value="5"/>
    </report>

</configuration>
-->

<net version="1.6" xmlns:xsi="http://www.w3.org/2001/XMLSchema-instance" xsi:noNamespaceSchemaLocation="http://sumo.dlr.de/xsd/net_file.xsd">

    <location netOffset="100.00,100.00" convBoundary="0.00,0.00,200.00,200.00" origBoundary="-10000000000.00,-10000000000.00,10000000000.00,10000000000.00" projParameter="!"/>

    <edge id="CE" from="C" to="E" priority="2">
        <lane id="CE_0" index="0" allow="pedestrian" speed="13.89" length="100.00" width="3.00" shape="112.40,90.60 200.00,90.60"/>
        <lane id="CE_1" index="1" disallow="all" speed="13.89" length="100.00" width="1.50" shape="112.40,92.85 200.00,92.85"/>
        <lane id="CE_2" index="2" allow="passenger" speed="13.89" length="100.00" shape="112.40,95.20 200.00,95.20"/>
        <lane id="CE_3" index="3" allow="passenger" speed="13.89" length="100.00" shape="112.40,98.40 200.00,98.40"/>
    </edge>
    <edge id="CN" from="C" to="N" priority="2">
        <lane id="CN_0" index="0" allow="pedestrian" speed="13.89" length="100.00" width="3.00" shape="109.40,112.40 109.40,200.00"/>
        <lane id="CN_1" index="1" disallow="all" speed="13.89" length="100.00" width="1.50" shape="107.15,112.40 107.15,200.00"/>
        <lane id="CN_2" index="2" allow="passenger" speed="13.89" length="100.00" shape="104.80,112.40 104.80,200.00"/>
        <lane id="CN_3" index="3" allow="passenger" speed="13.89" length="100.00" shape="101.60,112.40 101.60,200.00"/>
    </edge>
    <edge id="CS" from="C" to="S" priority="2">
        <lane id="CS_0" index="0" allow="pedestrian" speed="13.89" length="100.00" width="3.00" shape="90.60,87.60 90.60,0.00"/>
        <lane id="CS_1" index="1" disallow="all" speed="13.89" length="100.00" width="1.50" shape="92.85,87.60 92.85,0.00"/>
        <lane id="CS_2" index="2" allow="passenger" speed="13.89" length="100.00" shape="95.20,87.60 95.20,0.00"/>
        <lane id="CS_3" index="3" allow="passenger" speed="13.89" length="100.00" shape="98.40,87.60 98.40,0.00"/>
    </edge>
    <edge id="CW" from="C" to="W" priority="2">
        <lane id="CW_0" index="0" allow="pedestrian" speed="13.89" length="100.00" width="3.00" shape="87.60,109.40 0.00,109.40"/>
        <lane id="CW_1" index="1" disallow="all" speed="13.89" length="100.00" width="1.50" shape="87.60,107.15 0.00,107.15"/>
        <lane id="CW_2" index="2" allow="passenger" speed="13.89" length="100.00" shape="87.60,104.80 0.00,104.80"/>
        <lane id="CW_3" index="3" allow="passenger" speed="13.89" length="100.00" shape="87.60,101.60 0.00,101.60"/>
    </edge>
    <edge id="EC" from="E" to="C" priority="2">
        <lane id="EC_0" index="0" allow="pedestrian" speed="13.89" length="100.00" width="3.00" shape="200.00,109.40 112.40,109.40"/>
        <lane id="EC_1" index="1" disallow="all" speed="13.89" length="100.00" width="1.50" shape="200.00,107.15 112.40,107.15"/>
        <lane id="EC_2" index="2" allow="passenger" speed="13.89" length="100.00" shape="200.00,104.80 112.40,104.80"/>
        <lane id="EC_3" index="3" allow="passenger" speed="13.89" length="100.00" shape="200.00,101.60 112.40,101.60"/>
    </edge>
    <edge id="NC" from="N" to="C" priority="2">
        <lane id="NC_0" index="0" allow="pedestrian" speed="13.89" length="100.00" width="3.00" shape="90.60,200.00 90.60,112.40"/>
        <lane id="NC_1" index="1" disallow="all" speed="13.89" length="100.00" width="1.50" shape="92.85,200.00 92.85,112.40"/>
        <lane id="NC_2" index="2" allow="passenger" speed="13.89" length="100.00" shape="95.20,200.00 95.20,112.40"/>
        <lane id="NC_3" index="3" allow="passenger" speed="13.89" length="100.00" shape="98.40,200.00 98.40,112.40"/>
    </edge>
    <edge id="SC" from="S" to="C" priority="2">
        <lane id="SC_0" index="0" allow="pedestrian" speed="13.89" length="100.00" width="3.00" shape="109.40,0.00 109.40,87.60"/>
        <lane id="SC_1" index="1" disallow="all" speed="13.89" length="100.00" width="1.50" shape="107.15,0.00 107.15,87.60"/>
        <lane id="SC_2" index="2" allow="passenger" speed="13.89" length="100.00" shape="104.80,0.00 104.80,87.60"/>
        <lane id="SC_3" index="3" allow="passenger" speed="13.89" length="100.00" shape="101.60,0.00 101.60,87.60"/>
    </edge>
    <edge id="WC" from="W" to="C" priority="2">
        <lane id="WC_0" index="0" allow="pedestrian" speed="13.89" length="100.00" width="3.00" shape="0.00,90.60 87.60,90.60"/>
        <lane id="WC_1" index="1" disallow="all" speed="13.89" length="100.00" width="1.50" shape="0.00,92.85 87.60,92.85"/>
        <lane id="WC_2" index="2" allow="passenger" speed="13.89" length="100.00" shape="0.00,95.20 87.60,95.20"/>
        <lane id="WC_3" index="3" allow="passenger" speed="13.89" length="100.00" shape="0.00,98.40 87.60,98.40"/>
    </edge>

    <tlLogic id="C" type="static" programID="0" offset="0">
        <phase duration="26" state="gGGgrrrgGGgrrrrGrG"/>
        <phase duration="5"  state="gGGgrrrgGGgrrrrrrr"/>
        <phase duration="4"  state="yyygrrryyygrrrrrrr"/>
        <phase duration="6"  state="rrrGrrrrrrGrrrrrrr"/>
        <phase duration="4"  state="rrryrrrrrryrrrrrrr"/>
        <phase duration="26" state="rrrrgGgrrrrgGgGrGr"/>
        <phase duration="5"  state="rrrrgGgrrrrgGgrrrr"/>
        <phase duration="4"  state="rrrryygrrrryygrrrr"/>
        <phase duration="6"  state="rrrrrrGrrrrrrGrrrr"/>
        <phase duration="4"  state="rrrrrryrrrrrryrrrr"/>
    </tlLogic>

    <junction id="C" type="traffic_light" x="100.00" y="100.00" incLanes="NC_0 NC_1 NC_2 NC_3 EC_0 EC_1 EC_2 EC_3 SC_0 SC_1 SC_2 SC_3 WC_0 WC_1 WC_2 WC_3" intLanes="" shape="89.10,112.40 110.90,112.40 112.40,110.90 112.40,89.10 110.90,87.60 89.10,87.60 87.60,89.10 87.60,110.90">
        <request index="0"  response="00000000000000" foes="00000000000000"/>
        <request index="1"  response="00000000000000" foes="11110001100000"/>
        <request index="2"  response="00000000000000" foes="11110001100000"/>
        <request index="3"  response="00001100000000" foes="11001101100000"/>
        <request index="4"  response="00001100000000" foes="00001100000000"/>
        <request index="5"  response="00011100001110" foes="10011100001110"/>
        <request index="6"  response="01011100001110" foes="01011100001110"/>
        <request index="7"  response="00000000000000" foes="00000000000000"/>
        <request index="8"  response="00000000000000" foes="11000001111000"/>
        <request index="9"  response="00000000000000" foes="11000001111000"/>
        <request index="10" response="00000000000110" foes="11000001100110"/>
        <request index="11" response="00000000000110" foes="00000000000110"/>
        <request index="12" response="00011100001110" foes="00011101001110"/>
        <request index="13" response="00011100101110" foes="00011100101110"/>
    </junction>
    <junction id="E" type="dead_end" x="200.00" y="100.00" incLanes="CE_0 CE_1 CE_2 CE_3" intLanes="" shape="200.00,100.00 200.00,89.10 200.00,100.00"/>
    <junction id="N" type="dead_end" x="100.00" y="200.00" incLanes="CN_0 CN_1 CN_2 CN_3" intLanes="" shape="100.00,200.00 110.90,200.00 100.00,200.00"/>
    <junction id="S" type="dead_end" x="100.00" y="0.00" incLanes="CS_0 CS_1 CS_2 CS_3" intLanes="" shape="100.00,0.00 89.10,0.00 100.00,0.00"/>
    <junction id="W" type="dead_end" x="0.00" y="100.00" incLanes="CW_0 CW_1 CW_2 CW_3" intLanes="" shape="0.00,100.00 0.00,110.90 0.00,100.00"/>

    <connection from="EC" to="CN" fromLane="2" toLane="2" tl="C" linkIndex="4" dir="r" state="o"/>
    <connection from="EC" to="CW" fromLane="3" toLane="3" tl="C" linkIndex="5" dir="s" state="o"/>
    <connection from="EC" to="CS" fromLane="3" toLane="3" tl="C" linkIndex="6" dir="l" state="o"/>
    <connection from="NC" to="CW" fromLane="2" toLane="2" tl="C" linkIndex="0" dir="r" state="O"/>
    <connection from="NC" to="CS" fromLane="2" toLane="2" tl="C" linkIndex="1" dir="s" state="O"/>
    <connection from="NC" to="CS" fromLane="3" toLane="3" tl="C" linkIndex="2" dir="s" state="O"/>
    <connection from="NC" to="CE" fromLane="3" toLane="3" tl="C" linkIndex="3" dir="l" state="o"/>
    <connection from="SC" to="CE" fromLane="2" toLane="2" tl="C" linkIndex="7" dir="r" state="O"/>
    <connection from="SC" to="CN" fromLane="2" toLane="2" tl="C" linkIndex="8" dir="s" state="O"/>
    <connection from="SC" to="CN" fromLane="3" toLane="3" tl="C" linkIndex="9" dir="s" state="O"/>
    <connection from="SC" to="CW" fromLane="3" toLane="3" tl="C" linkIndex="10" dir="l" state="o"/>
    <connection from="WC" to="CS" fromLane="2" toLane="2" tl="C" linkIndex="11" dir="r" state="o"/>
    <connection from="WC" to="CE" fromLane="3" toLane="3" tl="C" linkIndex="12" dir="s" state="o"/>
    <connection from="WC" to="CN" fromLane="3" toLane="3" tl="C" linkIndex="13" dir="l" state="o"/>

</net>
