<?xml version="1.0" encoding="UTF-8"?>

<!-- generated on 11.12.2018 16:11:25 by Eclipse SUMO netedit Version v1_0_0+1298-65124dcfab
<configuration xmlns:xsi="http://www.w3.org/2001/XMLSchema-instance" xsi:noNamespaceSchemaLocation="http://sumo.dlr.de/xsd/netconvertConfiguration.xsd">

    <input>
        <sumo-net-file value="D:\sumo\tests\netedit\netElements\edges\contextual_menu\reverse_edge\input_net.net.xml"/>
    </input>

    <output>
        <output-file value="D:\sumo\tests\netedit\netElements\edges\contextual_menu\reverse_edge\input_net.net.xml"/>
        <plain-output-prefix value="D:\sumo\tests\netedit\netElements\edges\contextual_menu\reverse_edge\input_net"/>
    </output>

    <processing>
        <geometry.max-grade.fix value="false"/>
        <offset.disable-normalization value="true"/>
        <lefthand value="false"/>
    </processing>

    <junctions>
        <no-turnarounds value="true"/>
        <junctions.corner-detail value="5"/>
        <junctions.limit-turn-speed value="5.5"/>
        <rectangular-lane-cut value="false"/>
    </junctions>

    <pedestrian>
        <walkingareas value="false"/>
    </pedestrian>

</configuration>
-->

<edges version="1.0" xmlns:xsi="http://www.w3.org/2001/XMLSchema-instance" xsi:noNamespaceSchemaLocation="http://sumo.dlr.de/xsd/edges_file.xsd">
    <edge id="gneE0" from="gneJ0" to="gneJ1" priority="1" numLanes="1" speed="13.89"/>
    <edge id="gneE1" from="gneJ1" to="gneJ0" priority="1" numLanes="1" speed="13.89"/>
    <edge id="gneE2" from="gneJ2" to="gneJ3" priority="1" numLanes="1" speed="13.89"/>
    <edge id="gneE4" from="gneJ3" to="gneJ1" priority="1" numLanes="1" speed="13.89"/>
    <edge id="gneE5" from="gneJ1" to="gneJ3" priority="1" numLanes="1" speed="13.89"/>
    <edge id="gneE8" from="gneJ2" to="gneJ0" priority="1" numLanes="1" speed="13.89"/>
    <edge id="gneE9" from="gneJ0" to="gneJ2" priority="1" numLanes="1" speed="13.89"/>
</edges>
