<edges xmlns:xsi="http://www.w3.org/2001/XMLSchema-instance" xsi:noNamespaceSchemaLocation="http://sumo.dlr.de/xsd/edges_file.xsd">
<edge id="1to2" from="1" to="2"/>
<edge id="out" from="o" to="t" />
</edges>

