<?xml version="1.0" encoding="UTF-8"?>
<nodes version="1.1" xmlns:xsi="http://www.w3.org/2001/XMLSchema-instance" xsi:noNamespaceSchemaLocation="http://sumo.dlr.de/xsd/nodes_file.xsd">
    <!-- Deleted Elements -->
    <!-- Created Elements -->
    <!-- Changed Elements -->
    <node id="17446" type="right_before_left"/>
    <node id="10731" type="right_before_left"/>
    <node id="17394" type="right_before_left"/>
</nodes>
