<?xml version="1.0"?>

<!-- generated on Mon Oct 11 17:31:04 2010 by SUMO od2trips Version dev-SVN-r9246
<?xml version="1.0" encoding="iso-8859-1"?>

<configuration>

    <input>
        <net-file value="input_net.net.xml"/>
        <od-files value="input_od_o.fma"/>
    </input>

    <output>
        <output-file value="trips.trips.xml"/>
    </output>

    <processing>
        <spread.uniform value="true"/>
        <dismiss-loading-errors value="true"/>
    </processing>

</configuration>
-->

<trips>
    <trip id="0" depart="1800.00" from="a1" to="b2" fromTaz="1" toTaz="2" departLane="free" departSpeed="max"/>
    <trip id="1" depart="5400.00" from="a1" to="b2" fromTaz="1" toTaz="2" departLane="free" departSpeed="max"/>
    <trip id="2" depart="9000.00" from="a1" to="b2" fromTaz="1" toTaz="2" departLane="free" departSpeed="max"/>
    <trip id="3" depart="12600.00" from="a1" to="b2" fromTaz="1" toTaz="2" departLane="free" departSpeed="max"/>
    <trip id="4" depart="16200.00" from="a1" to="b2" fromTaz="1" toTaz="2" departLane="free" departSpeed="max"/>
    <trip id="5" depart="19800.00" from="a1" to="b2" fromTaz="1" toTaz="2" departLane="free" departSpeed="max"/>
    <trip id="6" depart="23400.00" from="a1" to="b2" fromTaz="1" toTaz="2" departLane="free" departSpeed="max"/>
    <trip id="7" depart="27000.00" from="a1" to="b2" fromTaz="1" toTaz="2" departLane="free" departSpeed="max"/>
    <trip id="8" depart="30600.00" from="a1" to="b2" fromTaz="1" toTaz="2" departLane="free" departSpeed="max"/>
    <trip id="9" depart="34200.00" from="a1" to="b2" fromTaz="1" toTaz="2" departLane="free" departSpeed="max"/>
    <trip id="10" depart="37800.00" from="a1" to="b2" fromTaz="1" toTaz="2" departLane="free" departSpeed="max"/>
    <trip id="11" depart="41400.00" from="a1" to="b2" fromTaz="1" toTaz="2" departLane="free" departSpeed="max"/>
    <trip id="12" depart="45000.00" from="a1" to="b2" fromTaz="1" toTaz="2" departLane="free" departSpeed="max"/>
    <trip id="13" depart="48600.00" from="a1" to="b2" fromTaz="1" toTaz="2" departLane="free" departSpeed="max"/>
    <trip id="14" depart="52200.00" from="a1" to="b2" fromTaz="1" toTaz="2" departLane="free" departSpeed="max"/>
    <trip id="15" depart="55800.00" from="a1" to="b2" fromTaz="1" toTaz="2" departLane="free" departSpeed="max"/>
    <trip id="16" depart="59400.00" from="a1" to="b2" fromTaz="1" toTaz="2" departLane="free" departSpeed="max"/>
    <trip id="17" depart="63000.00" from="a1" to="b2" fromTaz="1" toTaz="2" departLane="free" departSpeed="max"/>
    <trip id="18" depart="66600.00" from="a1" to="b2" fromTaz="1" toTaz="2" departLane="free" departSpeed="max"/>
    <trip id="19" depart="70200.00" from="a1" to="b2" fromTaz="1" toTaz="2" departLane="free" departSpeed="max"/>
    <trip id="20" depart="73800.00" from="a1" to="b2" fromTaz="1" toTaz="2" departLane="free" departSpeed="max"/>
    <trip id="21" depart="77400.00" from="a1" to="b2" fromTaz="1" toTaz="2" departLane="free" departSpeed="max"/>
    <trip id="22" depart="81000.00" from="a1" to="b2" fromTaz="1" toTaz="2" departLane="free" departSpeed="max"/>
    <trip id="23" depart="84600.00" from="a1" to="b2" fromTaz="1" toTaz="2" departLane="free" departSpeed="max"/>
</trips>
