<?xml version="1.0"?>

<!-- generated on Mon Mar 21 15:37:59 2011 by SUMO netconvert Version dev-SVN-r9933
<?xml version="1.0" encoding="iso-8859-1"?>

<configuration xmlns:xsi="http://www.w3.org/2001/XMLSchema-instance" xsi:noNamespaceSchemaLocation="http://sumo.sf.net/xsd/netconvertConfiguration.xsd">

    <input>
        <xml-node-files value="input_nodes.nod.xml"/>
        <xml-edge-files value="input_edges.edg.xml"/>
    </input>

    <tls_building>
        <explicite-tls value="15030043"/>
    </tls_building>

    <report>
        <verbose value="true"/>
    </report>

</configuration>
-->

<net>

   <location netOffset="-19859.00,-25421.00" convBoundary="0.00,0.00,257.00,608.00" origBoundary="19859.00,25421.00,20116.00,26029.00" projParameter="!"/>

   <edge id=":15030043_0" function="internal">
      <lane id=":15030043_0_0" depart="0" maxspeed="13.20" length="5.01" shape="125.28,68.70 123.91,68.58 122.84,68.93 122.05,69.75 121.57,71.03"/>
   </edge>
   <edge id=":15030043_1" function="internal">
      <lane id=":15030043_1_0" depart="0" maxspeed="13.89" length="6.30" shape="122.93,64.88 121.57,71.03"/>
   </edge>

   <edge id="15030608" from="15030238" to="15030043" priority="-1" type="" function="normal">
      <lane id="15030608_0" depart="1" maxspeed="12.50" length="134.93" shape="256.62,99.61 125.28,68.70"/>
   </edge>
   <edge id="15030858" from="15030435" to="15030043" priority="-1" type="" function="normal">
      <lane id="15030858_0" depart="1" maxspeed="13.89" length="65.97" shape="136.61,0.34 122.93,64.88"/>
   </edge>
   <edge id="153122148" from="15030043" to="15031475" priority="-1" type="" function="normal">
      <lane id="153122148_0" depart="1" maxspeed="13.89" length="550.55" shape="121.57,71.03 1.61,608.36"/>
   </edge>

   <row-logic id="15030043" requestSize="2" laneNumber="2">
      <logicitem request="0" response="10" foes="10" cont="0"/>
      <logicitem request="1" response="00" foes="01" cont="0"/>
   </row-logic>

   <tl-logic id="15030043" type="static" programID="0" offset="0">
      <phase duration="31" state="Gr"/>
      <phase duration="4" state="yr"/>
      <phase duration="31" state="rG"/>
      <phase duration="4" state="ry"/>
   </tl-logic>

   <junction id="15030043" type="traffic_light" x="121.00" y="66.00" incLanes="15030608_0 15030858_0" intLanes=":15030043_0_0 :15030043_1_0" shape="124.92,70.26 125.65,67.15 124.49,65.21 121.36,64.54 120.01,70.68 123.13,71.38"/>
   <junction id="15030238" type="DEAD_END" x="257.00" y="98.00" incLanes="" intLanes="" shape="256.99,98.05 256.26,101.16"/>
   <junction id="15030435" type="DEAD_END" x="135.00" y="0.00" incLanes="" intLanes="" shape="135.05,0.01 138.18,0.67"/>
   <junction id="15031475" type="DEAD_END" x="0.00" y="608.00" incLanes="153122148_0" intLanes="" shape="3.17,608.71 0.05,608.01"/>

   <succ edge="15030608" lane="15030608_0" junction="15030043">
      <succlane lane="153122148_0" via=":15030043_0_0" tl="15030043" linkno="0" yield="1" dir="r" state="t"/>
   </succ>
   <succ edge="15030858" lane="15030858_0" junction="15030043">
      <succlane lane="153122148_0" via=":15030043_1_0" tl="15030043" linkno="1" yield="1" dir="s" state="t"/>
   </succ>
   <succ edge="153122148" lane="153122148_0" junction="15031475">
      <succlane lane="SUMO_NO_DESTINATION" yield="1" dir="s" state="O"/>
   </succ>

   <succ edge=":15030043_0" lane=":15030043_0_0" junction="15030043">
      <succlane lane="153122148_0" tl="" linkno="" yield="0" dir="s" state="M"/>
   </succ>
   <succ edge=":15030043_1" lane=":15030043_1_0" junction="15030043">
      <succlane lane="153122148_0" tl="" linkno="" yield="0" dir="s" state="M"/>
   </succ>

</net>
