<additional xmlns:xsi="http://www.w3.org/2001/XMLSchema-instance" xsi:noNamespaceSchemaLocation="http://sumo.dlr.de/xsd/additional_file.xsd">

    <!-- missing start position -->
    <busStop id="busStop_01" lane="gneE0_0" endPos="30" lines="line1 line2" name="busStop" friendlyPos="false"/>
    
	<!-- non valid start position (dummy) -->
    <busStop id="busStop_02" lane="gneE0_0" startPos="dummyStartPosition" endPos="25" lines="line1 line2" name="busStop" friendlyPos="false"/>
	
    <!-- non valid start position (negative) -->
    <busStop id="busStop_03" lane="gneE0_0" startPos="-25" endPos="25" lines="line1 line2" name="busStop" friendlyPos="false"/>
    
    <!-- non valid start position (overpassing endPos) -->
    <busStop id="busStop_04" lane="gneE0_0" startPos="45" endPos="25" lines="line1 line2" name="busStop" friendlyPos="false"/>
	
	<!-- valid start position -->
    <busStop id="busStop_05" lane="gneE0_0" startPos="10" endPos="25" lines="line1 line2" name="busStop" friendlyPos="false"/>
	
	<!-- valid start position (Negative) -->
    <busStop id="busStop_06" lane="gneE0_0" startPos="-40" endPos="25" lines="line1 line2" name="busStop" friendlyPos="false"/>
    
</additional>
