<?xml version="1.0" encoding="UTF-8"?>

<!-- generated on 2025-12-05T14:43:03.542022+01:00 by Eclipse SUMO netedit v1_25_0+0240-f00ef16e8e6
<neteditConfiguration xmlns:xsi="http://www.w3.org/2001/XMLSchema-instance" xsi:noNamespaceSchemaLocation="http://sumo.dlr.de/xsd/neteditConfiguration.xsd">

    <input>
        <sumo-net-file value="net2.net.xml"/>
    </input>

    <output>
        <output-file value="net2.net.xml"/>
    </output>

    <processing>
        <geometry.min-radius.fix.railways value="false"/>
        <geometry.avoid-overlap value="false"/>
        <geometry.max-grade.fix value="false"/>
        <offset.disable-normalization value="true"/>
        <lefthand value="0"/>
    </processing>

    <junctions>
        <no-internal-links value="false"/>
        <no-turnarounds value="true"/>
        <junctions.corner-detail value="0"/>
        <junctions.limit-turn-speed value="-1.00"/>
        <rectangular-lane-cut value="0"/>
    </junctions>

    <pedestrian>
        <walkingareas value="0"/>
    </pedestrian>

</neteditConfiguration>
-->

<net version="1.20" avoidOverlap="0" xmlns:xsi="http://www.w3.org/2001/XMLSchema-instance" xsi:noNamespaceSchemaLocation="http://sumo.dlr.de/xsd/net_file.xsd">

    <location netOffset="100.00,100.00" convBoundary="0.00,0.00,200.00,200.00" origBoundary="-10000000000.00,-10000000000.00,10000000000.00,10000000000.00" projParameter="!"/>

    <edge id=":C_0" function="internal">
        <lane id=":C_0_0" index="0" disallow="pedestrian" speed="13.89" length="13.87" shape="95.20,113.40 94.66,109.64 93.05,106.95 90.36,105.34 86.60,104.80"/>
    </edge>
    <edge id=":C_1" function="internal">
        <lane id=":C_1_0" index="0" disallow="pedestrian" speed="13.89" length="26.80" shape="95.20,113.40 95.20,86.60"/>
        <lane id=":C_1_1" index="1" disallow="pedestrian" speed="13.89" length="26.80" shape="98.40,113.40 98.40,86.60"/>
    </edge>
    <edge id=":C_3" function="internal">
        <lane id=":C_3_0" index="0" disallow="pedestrian" speed="13.89" length="5.01" shape="98.40,113.40 99.11,108.44"/>
    </edge>
    <edge id=":C_4" function="internal">
        <lane id=":C_4_0" index="0" disallow="pedestrian" speed="13.89" length="1.44" shape="98.40,113.40 99.20,112.20"/>
    </edge>
    <edge id=":C_20" function="internal">
        <lane id=":C_20_0" index="0" disallow="pedestrian" speed="13.89" length="19.18" shape="99.11,108.44 99.34,106.84 102.15,102.15 106.84,99.34 113.40,98.40"/>
    </edge>
    <edge id=":C_21" function="internal">
        <lane id=":C_21_0" index="0" disallow="pedestrian" speed="13.89" length="3.23" shape="99.20,112.20 100.00,111.80 100.80,112.20 101.60,113.40"/>
    </edge>
    <edge id=":C_5" function="internal">
        <lane id=":C_5_0" index="0" disallow="pedestrian" speed="13.89" length="13.87" shape="113.40,104.80 109.64,105.34 106.95,106.95 105.34,109.64 104.80,113.40"/>
    </edge>
    <edge id=":C_6" function="internal">
        <lane id=":C_6_0" index="0" disallow="pedestrian" speed="13.89" length="26.80" shape="113.40,104.80 86.60,104.80"/>
        <lane id=":C_6_1" index="1" disallow="pedestrian" speed="13.89" length="26.80" shape="113.40,101.60 86.60,101.60"/>
    </edge>
    <edge id=":C_8" function="internal">
        <lane id=":C_8_0" index="0" disallow="pedestrian" speed="13.89" length="5.01" shape="113.40,101.60 108.44,100.89"/>
    </edge>
    <edge id=":C_9" function="internal">
        <lane id=":C_9_0" index="0" disallow="pedestrian" speed="13.89" length="1.44" shape="113.40,101.60 112.20,100.80"/>
    </edge>
    <edge id=":C_22" function="internal">
        <lane id=":C_22_0" index="0" disallow="pedestrian" speed="13.89" length="19.18" shape="108.44,100.89 106.84,100.66 102.15,97.85 99.34,93.16 98.40,86.60"/>
    </edge>
    <edge id=":C_23" function="internal">
        <lane id=":C_23_0" index="0" disallow="pedestrian" speed="13.89" length="3.23" shape="112.20,100.80 111.80,100.00 112.20,99.20 113.40,98.40"/>
    </edge>
    <edge id=":C_10" function="internal">
        <lane id=":C_10_0" index="0" disallow="pedestrian" speed="13.89" length="9.79" shape="104.80,86.60 105.34,90.36 106.95,93.05 109.40,94.52"/>
    </edge>
    <edge id=":C_11" function="internal">
        <lane id=":C_11_0" index="0" disallow="pedestrian" speed="13.89" length="26.80" shape="104.80,86.60 104.80,113.40"/>
        <lane id=":C_11_1" index="1" disallow="pedestrian" speed="13.89" length="26.80" shape="101.60,86.60 101.60,113.40"/>
    </edge>
    <edge id=":C_13" function="internal">
        <lane id=":C_13_0" index="0" disallow="pedestrian" speed="13.89" length="5.01" shape="101.60,86.60 100.89,91.56"/>
    </edge>
    <edge id=":C_14" function="internal">
        <lane id=":C_14_0" index="0" disallow="pedestrian" speed="13.89" length="1.44" shape="101.60,86.60 100.80,87.80"/>
    </edge>
    <edge id=":C_24" function="internal">
        <lane id=":C_24_0" index="0" disallow="pedestrian" speed="13.89" length="4.08" shape="109.40,94.52 109.64,94.66 113.40,95.20"/>
    </edge>
    <edge id=":C_25" function="internal">
        <lane id=":C_25_0" index="0" disallow="pedestrian" speed="13.89" length="19.18" shape="100.89,91.56 100.66,93.16 97.85,97.85 93.16,100.66 86.60,101.60"/>
    </edge>
    <edge id=":C_26" function="internal">
        <lane id=":C_26_0" index="0" disallow="pedestrian" speed="13.89" length="3.23" shape="100.80,87.80 100.00,88.20 99.20,87.80 98.40,86.60"/>
    </edge>
    <edge id=":C_15" function="internal">
        <lane id=":C_15_0" index="0" disallow="pedestrian" speed="13.89" length="9.79" shape="86.60,95.20 90.36,94.66 93.05,93.05 94.52,90.60"/>
    </edge>
    <edge id=":C_16" function="internal">
        <lane id=":C_16_0" index="0" disallow="pedestrian" speed="13.89" length="26.80" shape="86.60,95.20 113.40,95.20"/>
        <lane id=":C_16_1" index="1" disallow="pedestrian" speed="13.89" length="26.80" shape="86.60,98.40 113.40,98.40"/>
    </edge>
    <edge id=":C_18" function="internal">
        <lane id=":C_18_0" index="0" disallow="pedestrian" speed="13.89" length="5.01" shape="86.60,98.40 91.56,99.11"/>
    </edge>
    <edge id=":C_19" function="internal">
        <lane id=":C_19_0" index="0" disallow="pedestrian" speed="13.89" length="1.44" shape="86.60,98.40 87.80,99.20"/>
    </edge>
    <edge id=":C_27" function="internal">
        <lane id=":C_27_0" index="0" disallow="pedestrian" speed="13.89" length="4.08" shape="94.52,90.60 94.66,90.36 95.20,86.60"/>
    </edge>
    <edge id=":C_28" function="internal">
        <lane id=":C_28_0" index="0" disallow="pedestrian" speed="13.89" length="19.18" shape="91.56,99.11 93.16,99.34 97.85,102.15 100.66,106.84 101.60,113.40"/>
    </edge>
    <edge id=":C_29" function="internal">
        <lane id=":C_29_0" index="0" disallow="pedestrian" speed="13.89" length="3.23" shape="87.80,99.20 88.20,100.00 87.80,100.80 86.60,101.60"/>
    </edge>
    <edge id=":C_c0" function="crossing" crossingEdges="CE EC">
        <lane id=":C_c0_0" index="0" allow="pedestrian" speed="2.78" length="12.80" width="4.00" shape="111.40,93.60 111.40,106.40" outlineShape="113.40,93.50 113.40,106.50 109.40,106.40 109.40,93.60"/>
    </edge>
    <edge id=":C_c1" function="crossing" crossingEdges="CS SC">
        <lane id=":C_c1_0" index="0" allow="pedestrian" speed="2.78" length="12.80" width="4.00" shape="93.60,88.60 106.40,88.60" outlineShape="93.50,86.60 106.50,86.60 106.40,90.60 93.60,90.60"/>
    </edge>
    <edge id=":C_w0" function="walkingarea">
        <lane id=":C_w0_0" index="0" allow="pedestrian" speed="2.78" length="8.49" width="2.00" shape="86.60,106.40 86.60,108.40 91.60,113.40 93.60,113.40"/>
    </edge>
    <edge id=":C_w1" function="walkingarea">
        <lane id=":C_w1_0" index="0" allow="pedestrian" speed="2.78" length="6.26" width="4.00" shape="106.40,113.40 108.40,113.40 113.40,108.40 113.40,106.40 109.40,106.40"/>
    </edge>
    <edge id=":C_w2" function="walkingarea">
        <lane id=":C_w2_0" index="0" allow="pedestrian" speed="2.78" length="6.03" width="4.00" shape="109.40,93.60 113.40,93.60 113.40,91.60 108.40,86.60 106.40,86.60 106.40,90.60"/>
    </edge>
    <edge id=":C_w3" function="walkingarea">
        <lane id=":C_w3_0" index="0" allow="pedestrian" speed="2.78" length="6.26" width="4.00" shape="93.60,90.60 93.60,86.60 91.60,86.60 86.60,91.60 86.60,93.60"/>
    </edge>
    <edge id=":E_0" function="internal">
        <lane id=":E_0_0" index="0" disallow="pedestrian" speed="13.89" length="4.67" shape="200.00,98.40 201.20,99.20 201.60,100.00 201.20,100.80 200.00,101.60"/>
    </edge>
    <edge id=":E_w0" function="walkingarea">
        <lane id=":E_w0_0" index="0" allow="pedestrian" speed="2.78" length="14.80" width="2.00" shape="200.00,106.40 200.00,108.40 200.00,91.60 200.00,93.60"/>
    </edge>
    <edge id=":N_0" function="internal">
        <lane id=":N_0_0" index="0" disallow="pedestrian" speed="13.89" length="4.67" shape="101.60,200.00 100.80,201.20 100.00,201.60 99.20,201.20 98.40,200.00"/>
    </edge>
    <edge id=":N_w0" function="walkingarea">
        <lane id=":N_w0_0" index="0" allow="pedestrian" speed="2.78" length="14.80" width="2.00" shape="93.60,200.00 91.60,200.00 108.40,200.00 106.40,200.00"/>
    </edge>
    <edge id=":S_0" function="internal">
        <lane id=":S_0_0" index="0" disallow="pedestrian" speed="13.89" length="4.67" shape="98.40,0.00 99.20,-1.20 100.00,-1.60 100.80,-1.20 101.60,0.00"/>
    </edge>
    <edge id=":S_w0" function="walkingarea">
        <lane id=":S_w0_0" index="0" allow="pedestrian" speed="2.78" length="14.80" width="2.00" shape="106.40,0.00 108.40,0.00 91.60,0.00 93.60,0.00"/>
    </edge>
    <edge id=":W_0" function="internal">
        <lane id=":W_0_0" index="0" disallow="pedestrian" speed="13.89" length="4.67" shape="0.00,101.60 -1.20,100.80 -1.60,100.00 -1.20,99.20 0.00,98.40"/>
    </edge>
    <edge id=":W_w0" function="walkingarea">
        <lane id=":W_w0_0" index="0" allow="pedestrian" speed="2.78" length="14.80" width="2.00" shape="0.00,93.60 0.00,91.60 0.00,108.40 0.00,106.40"/>
    </edge>

    <edge id="CE" from="C" to="E" priority="2">
        <lane id="CE_0" index="0" allow="pedestrian" speed="13.89" length="86.60" width="2.00" shape="113.40,92.60 200.00,92.60"/>
        <lane id="CE_1" index="1" disallow="pedestrian" speed="13.89" length="86.60" shape="113.40,95.20 200.00,95.20"/>
        <lane id="CE_2" index="2" disallow="pedestrian" speed="13.89" length="86.60" shape="113.40,98.40 200.00,98.40"/>
    </edge>
    <edge id="CN" from="C" to="N" priority="2">
        <lane id="CN_0" index="0" allow="pedestrian" speed="13.89" length="86.60" width="2.00" shape="107.40,113.40 107.40,200.00"/>
        <lane id="CN_1" index="1" disallow="pedestrian" speed="13.89" length="86.60" shape="104.80,113.40 104.80,200.00"/>
        <lane id="CN_2" index="2" disallow="pedestrian" speed="13.89" length="86.60" shape="101.60,113.40 101.60,200.00"/>
    </edge>
    <edge id="CS" from="C" to="S" priority="2">
        <lane id="CS_0" index="0" allow="pedestrian" speed="13.89" length="86.60" width="2.00" shape="92.60,86.60 92.60,0.00"/>
        <lane id="CS_1" index="1" disallow="pedestrian" speed="13.89" length="86.60" shape="95.20,86.60 95.20,0.00"/>
        <lane id="CS_2" index="2" disallow="pedestrian" speed="13.89" length="86.60" shape="98.40,86.60 98.40,0.00"/>
    </edge>
    <edge id="CW" from="C" to="W" priority="2">
        <lane id="CW_0" index="0" allow="pedestrian" speed="13.89" length="86.60" width="2.00" shape="86.60,107.40 0.00,107.40"/>
        <lane id="CW_1" index="1" disallow="pedestrian" speed="13.89" length="86.60" shape="86.60,104.80 0.00,104.80"/>
        <lane id="CW_2" index="2" disallow="pedestrian" speed="13.89" length="86.60" shape="86.60,101.60 0.00,101.60"/>
    </edge>
    <edge id="EC" from="E" to="C" priority="2">
        <lane id="EC_0" index="0" allow="pedestrian" speed="13.89" length="86.60" width="2.00" shape="200.00,107.40 113.40,107.40"/>
        <lane id="EC_1" index="1" disallow="pedestrian" speed="13.89" length="86.60" shape="200.00,104.80 113.40,104.80"/>
        <lane id="EC_2" index="2" disallow="pedestrian" speed="13.89" length="86.60" shape="200.00,101.60 113.40,101.60"/>
    </edge>
    <edge id="NC" from="N" to="C" priority="2">
        <lane id="NC_0" index="0" allow="pedestrian" speed="13.89" length="86.60" width="2.00" shape="92.60,200.00 92.60,113.40"/>
        <lane id="NC_1" index="1" disallow="pedestrian" speed="13.89" length="86.60" shape="95.20,200.00 95.20,113.40"/>
        <lane id="NC_2" index="2" disallow="pedestrian" speed="13.89" length="86.60" shape="98.40,200.00 98.40,113.40"/>
    </edge>
    <edge id="SC" from="S" to="C" priority="2">
        <lane id="SC_0" index="0" allow="pedestrian" speed="13.89" length="86.60" width="2.00" shape="107.40,0.00 107.40,86.60"/>
        <lane id="SC_1" index="1" disallow="pedestrian" speed="13.89" length="86.60" shape="104.80,0.00 104.80,86.60"/>
        <lane id="SC_2" index="2" disallow="pedestrian" speed="13.89" length="86.60" shape="101.60,0.00 101.60,86.60"/>
    </edge>
    <edge id="WC" from="W" to="C" priority="2">
        <lane id="WC_0" index="0" allow="pedestrian" speed="13.89" length="86.60" width="2.00" shape="0.00,92.60 86.60,92.60"/>
        <lane id="WC_1" index="1" disallow="pedestrian" speed="13.89" length="86.60" shape="0.00,95.20 86.60,95.20"/>
        <lane id="WC_2" index="2" disallow="pedestrian" speed="13.89" length="86.60" shape="0.00,98.40 86.60,98.40"/>
    </edge>

    <tlLogic id="C" type="static" programID="0" offset="0">
        <phase duration="37" state="GGGggrrrrrgGGggrrrrrGr"/>
        <phase duration="5"  state="GGGggrrrrrgGGggrrrrrrr"/>
        <phase duration="3"  state="yyyyyrrrrryyyyyrrrrrrr"/>
        <phase duration="37" state="rrrrrGGGggrrrrrgGGggrG"/>
        <phase duration="5"  state="rrrrrGGGggrrrrrgGGggrr"/>
        <phase duration="3"  state="rrrrryyyyyrrrrryyyyyrr"/>
    </tlLogic>

    <junction id="C" type="traffic_light" x="100.00" y="100.00" incLanes="NC_0 NC_1 NC_2 EC_0 EC_1 EC_2 SC_0 SC_1 SC_2 WC_0 WC_1 WC_2 :C_w2_0 :C_w3_0" intLanes=":C_0_0 :C_1_0 :C_1_1 :C_20_0 :C_21_0 :C_5_0 :C_6_0 :C_6_1 :C_22_0 :C_23_0 :C_24_0 :C_11_0 :C_11_1 :C_25_0 :C_26_0 :C_27_0 :C_16_0 :C_16_1 :C_28_0 :C_29_0 :C_c0_0 :C_c1_0" shape="91.60,113.40 108.40,113.40 113.40,108.40 113.40,91.60 108.40,86.60 91.60,86.60 86.60,91.60 86.60,108.40" radius="5.00">
        <request index="0"  response="0000000000000000000000" foes="0000000000000011000000" cont="0"/>
        <request index="1"  response="1001001000000000000000" foes="1001111110000111000000" cont="0"/>
        <request index="2"  response="1001000000000100000000" foes="1001111110000111000000" cont="0"/>
        <request index="3"  response="0101000001100100000000" foes="0101110001101111000000" cont="1"/>
        <request index="4"  response="0001000001100000000000" foes="0001000001100000000000" cont="1"/>
        <request index="5"  response="0100000001100000000000" foes="0100000001100000000000" cont="0"/>
        <request index="6"  response="0100000011100000001111" foes="0111000011100000001111" cont="0"/>
        <request index="7"  response="0100000011100000001111" foes="0111000011100000001111" cont="0"/>
        <request index="8"  response="1100110011100000001110" foes="1100110111100000001110" cont="1"/>
        <request index="9"  response="0100110000000000001000" foes="0100110000000000001000" cont="1"/>
        <request index="10" response="1100000000000000000000" foes="1100110000000000000000" cont="1"/>
        <request index="11" response="1000000000000100000000" foes="1001110000000111111000" cont="0"/>
        <request index="12" response="1001000000000100000000" foes="1001110000000111111000" cont="0"/>
        <request index="13" response="1001000000000100000110" foes="1011110000000111000110" cont="1"/>
        <request index="14" response="1000000000000100000110" foes="1000000000000100000110" cont="1"/>
        <request index="15" response="1000000000000000000110" foes="1000000000000000000110" cont="1"/>
        <request index="16" response="0100000011110000001110" foes="0100000011111100001110" cont="0"/>
        <request index="17" response="0100000011110000001110" foes="0100000011111100001110" cont="0"/>
        <request index="18" response="0000000011100011001110" foes="0000000011100011011110" cont="1"/>
        <request index="19" response="0000000010000011000000" foes="0000000010000011000000" cont="1"/>
        <request index="20" response="0000000000000000000000" foes="0000110000011111101000" cont="0"/>
        <request index="21" response="0000000000000000000000" foes="0000001111110100000110" cont="0"/>
    </junction>
    <junction id="E" type="priority" x="200.00" y="100.00" incLanes="CE_0 CE_1 CE_2" intLanes=":E_0_0" shape="200.00,100.00 200.00,91.60 200.00,100.00">
        <request index="0" response="0" foes="0" cont="0"/>
    </junction>
    <junction id="N" type="priority" x="100.00" y="200.00" incLanes="CN_0 CN_1 CN_2" intLanes=":N_0_0" shape="100.00,200.00 108.40,200.00 100.00,200.00">
        <request index="0" response="0" foes="0" cont="0"/>
    </junction>
    <junction id="S" type="priority" x="100.00" y="0.00" incLanes="CS_0 CS_1 CS_2" intLanes=":S_0_0" shape="100.00,0.00 91.60,0.00 100.00,0.00">
        <request index="0" response="0" foes="0" cont="0"/>
    </junction>
    <junction id="W" type="priority" x="0.00" y="100.00" incLanes="CW_0 CW_1 CW_2" intLanes=":W_0_0" shape="0.00,100.00 0.00,108.40 0.00,100.00">
        <request index="0" response="0" foes="0" cont="0"/>
    </junction>

    <junction id=":C_20_0" type="internal" x="99.11" y="108.44" incLanes=":C_3_0 SC_1 SC_2" intLanes=":C_6_0 :C_6_1 :C_8_0 :C_9_0 :C_10_0 :C_11_0 :C_11_1 :C_16_0 :C_16_1 :C_18_0 :C_c0_0"/>
    <junction id=":C_21_0" type="internal" x="99.20" y="112.20" incLanes=":C_4_0 EC_1 SC_1 SC_2 WC_2" intLanes=":C_5_0 :C_11_0 :C_11_1 :C_18_0"/>
    <junction id=":C_22_0" type="internal" x="108.44" y="100.89" incLanes=":C_8_0 WC_1 WC_2" intLanes=":C_1_0 :C_1_1 :C_3_0 :C_11_0 :C_11_1 :C_13_0 :C_14_0 :C_15_0 :C_16_0 :C_16_1 :C_c0_0 :C_c1_0"/>
    <junction id=":C_23_0" type="internal" x="112.20" y="100.80" incLanes=":C_9_0 NC_2 SC_1 WC_1 WC_2" intLanes=":C_3_0 :C_10_0 :C_16_0 :C_16_1 :C_c0_0 :C_c0_0"/>
    <junction id=":C_24_0" type="internal" x="109.40" y="94.52" incLanes=":C_10_0" intLanes=":C_3_0 :C_9_0 :C_16_0 :C_16_1 :C_c0_0 :C_c1_0"/>
    <junction id=":C_25_0" type="internal" x="100.89" y="91.56" incLanes=":C_13_0 NC_1 NC_2" intLanes=":C_0_0 :C_1_0 :C_1_1 :C_6_0 :C_6_1 :C_8_0 :C_16_0 :C_16_1 :C_18_0 :C_19_0 :C_c1_0"/>
    <junction id=":C_26_0" type="internal" x="100.80" y="87.80" incLanes=":C_14_0 EC_2 NC_1 NC_2 WC_1" intLanes=":C_1_0 :C_1_1 :C_8_0 :C_15_0 :C_c1_0 :C_c1_0"/>
    <junction id=":C_27_0" type="internal" x="94.52" y="90.60" incLanes=":C_15_0" intLanes=":C_1_0 :C_1_1 :C_8_0 :C_14_0 :C_c1_0"/>
    <junction id=":C_28_0" type="internal" x="91.56" y="99.11" incLanes=":C_18_0 EC_1 EC_2" intLanes=":C_1_0 :C_1_1 :C_3_0 :C_4_0 :C_5_0 :C_6_0 :C_6_1 :C_11_0 :C_11_1 :C_13_0"/>
    <junction id=":C_29_0" type="internal" x="87.80" y="99.20" incLanes=":C_19_0 EC_1 EC_2 NC_1 SC_2" intLanes=":C_0_0 :C_6_0 :C_6_1 :C_13_0"/>

    <connection from="CE" to="EC" fromLane="2" toLane="2" via=":E_0_0" dir="t" state="M"/>
    <connection from="CN" to="NC" fromLane="2" toLane="2" via=":N_0_0" dir="t" state="M"/>
    <connection from="CS" to="SC" fromLane="2" toLane="2" via=":S_0_0" dir="t" state="M"/>
    <connection from="CW" to="WC" fromLane="2" toLane="2" via=":W_0_0" dir="t" state="M"/>
    <connection from="EC" to="CN" fromLane="1" toLane="1" via=":C_5_0" tl="C" linkIndex="5" dir="r" state="o"/>
    <connection from="EC" to="CW" fromLane="1" toLane="1" via=":C_6_0" tl="C" linkIndex="6" dir="s" state="o"/>
    <connection from="EC" to="CW" fromLane="2" toLane="2" via=":C_6_1" tl="C" linkIndex="7" dir="s" state="o"/>
    <connection from="EC" to="CS" fromLane="2" toLane="2" via=":C_8_0" tl="C" linkIndex="8" dir="l" state="o"/>
    <connection from="EC" to="CE" fromLane="2" toLane="2" via=":C_9_0" tl="C" linkIndex="9" dir="t" state="o"/>
    <connection from="NC" to="CW" fromLane="1" toLane="1" via=":C_0_0" tl="C" linkIndex="0" dir="r" state="O"/>
    <connection from="NC" to="CS" fromLane="1" toLane="1" via=":C_1_0" tl="C" linkIndex="1" dir="s" state="o"/>
    <connection from="NC" to="CS" fromLane="2" toLane="2" via=":C_1_1" tl="C" linkIndex="2" dir="s" state="o"/>
    <connection from="NC" to="CE" fromLane="2" toLane="2" via=":C_3_0" tl="C" linkIndex="3" dir="l" state="o"/>
    <connection from="NC" to="CN" fromLane="2" toLane="2" via=":C_4_0" tl="C" linkIndex="4" dir="t" state="o"/>
    <connection from="SC" to="CE" fromLane="1" toLane="1" via=":C_10_0" tl="C" linkIndex="10" dir="r" state="o"/>
    <connection from="SC" to="CN" fromLane="1" toLane="1" via=":C_11_0" tl="C" linkIndex="11" dir="s" state="o"/>
    <connection from="SC" to="CN" fromLane="2" toLane="2" via=":C_11_1" tl="C" linkIndex="12" dir="s" state="o"/>
    <connection from="SC" to="CW" fromLane="2" toLane="2" via=":C_13_0" tl="C" linkIndex="13" dir="l" state="o"/>
    <connection from="SC" to="CS" fromLane="2" toLane="2" via=":C_14_0" tl="C" linkIndex="14" dir="t" state="o"/>
    <connection from="WC" to="CS" fromLane="1" toLane="1" via=":C_15_0" tl="C" linkIndex="15" dir="r" state="o"/>
    <connection from="WC" to="CE" fromLane="1" toLane="1" via=":C_16_0" tl="C" linkIndex="16" dir="s" state="o"/>
    <connection from="WC" to="CE" fromLane="2" toLane="2" via=":C_16_1" tl="C" linkIndex="17" dir="s" state="o"/>
    <connection from="WC" to="CN" fromLane="2" toLane="2" via=":C_18_0" tl="C" linkIndex="18" dir="l" state="o"/>
    <connection from="WC" to="CW" fromLane="2" toLane="2" via=":C_19_0" tl="C" linkIndex="19" dir="t" state="o"/>

    <connection from=":C_0" to="CW" fromLane="0" toLane="1" dir="r" state="M"/>
    <connection from=":C_1" to="CS" fromLane="0" toLane="1" dir="s" state="M"/>
    <connection from=":C_1" to="CS" fromLane="1" toLane="2" dir="s" state="M"/>
    <connection from=":C_3" to="CE" fromLane="0" toLane="2" via=":C_20_0" dir="l" state="m"/>
    <connection from=":C_20" to="CE" fromLane="0" toLane="2" dir="l" state="m"/>
    <connection from=":C_4" to="CN" fromLane="0" toLane="2" via=":C_21_0" dir="t" state="m"/>
    <connection from=":C_21" to="CN" fromLane="0" toLane="2" dir="t" state="M"/>
    <connection from=":C_5" to="CN" fromLane="0" toLane="1" dir="r" state="M"/>
    <connection from=":C_6" to="CW" fromLane="0" toLane="1" dir="s" state="M"/>
    <connection from=":C_6" to="CW" fromLane="1" toLane="2" dir="s" state="M"/>
    <connection from=":C_8" to="CS" fromLane="0" toLane="2" via=":C_22_0" dir="l" state="m"/>
    <connection from=":C_22" to="CS" fromLane="0" toLane="2" dir="l" state="m"/>
    <connection from=":C_9" to="CE" fromLane="0" toLane="2" via=":C_23_0" dir="t" state="m"/>
    <connection from=":C_23" to="CE" fromLane="0" toLane="2" dir="t" state="m"/>
    <connection from=":C_10" to="CE" fromLane="0" toLane="1" via=":C_24_0" dir="r" state="m"/>
    <connection from=":C_24" to="CE" fromLane="0" toLane="1" dir="r" state="m"/>
    <connection from=":C_11" to="CN" fromLane="0" toLane="1" dir="s" state="M"/>
    <connection from=":C_11" to="CN" fromLane="1" toLane="2" dir="s" state="M"/>
    <connection from=":C_13" to="CW" fromLane="0" toLane="2" via=":C_25_0" dir="l" state="m"/>
    <connection from=":C_25" to="CW" fromLane="0" toLane="2" dir="l" state="M"/>
    <connection from=":C_14" to="CS" fromLane="0" toLane="2" via=":C_26_0" dir="t" state="m"/>
    <connection from=":C_26" to="CS" fromLane="0" toLane="2" dir="t" state="m"/>
    <connection from=":C_15" to="CS" fromLane="0" toLane="1" via=":C_27_0" dir="r" state="m"/>
    <connection from=":C_27" to="CS" fromLane="0" toLane="1" dir="r" state="m"/>
    <connection from=":C_16" to="CE" fromLane="0" toLane="1" dir="s" state="M"/>
    <connection from=":C_16" to="CE" fromLane="1" toLane="2" dir="s" state="M"/>
    <connection from=":C_18" to="CN" fromLane="0" toLane="2" via=":C_28_0" dir="l" state="m"/>
    <connection from=":C_28" to="CN" fromLane="0" toLane="2" dir="l" state="M"/>
    <connection from=":C_19" to="CW" fromLane="0" toLane="2" via=":C_29_0" dir="t" state="m"/>
    <connection from=":C_29" to="CW" fromLane="0" toLane="2" dir="t" state="M"/>
    <connection from=":E_0" to="EC" fromLane="0" toLane="2" dir="t" state="M"/>
    <connection from=":N_0" to="NC" fromLane="0" toLane="2" dir="t" state="M"/>
    <connection from=":S_0" to="SC" fromLane="0" toLane="2" dir="t" state="M"/>
    <connection from=":W_0" to="WC" fromLane="0" toLane="2" dir="t" state="M"/>

    <connection from=":C_c0" to=":C_w1" fromLane="0" toLane="0" dir="s" state="M"/>
    <connection from=":C_c1" to=":C_w2" fromLane="0" toLane="0" dir="s" state="M"/>
    <connection from=":C_w0" to="CW" fromLane="0" toLane="0" dir="s" state="M"/>
    <connection from="NC" to=":C_w0" fromLane="0" toLane="0" dir="s" state="M"/>
    <connection from=":C_w1" to="CN" fromLane="0" toLane="0" dir="s" state="M"/>
    <connection from="EC" to=":C_w1" fromLane="0" toLane="0" dir="s" state="M"/>
    <connection from=":C_w2" to=":C_c0" fromLane="0" toLane="0" tl="C" linkIndex="20" dir="s" state="M"/>
    <connection from=":C_w2" to="CE" fromLane="0" toLane="0" dir="s" state="M"/>
    <connection from="SC" to=":C_w2" fromLane="0" toLane="0" dir="s" state="M"/>
    <connection from=":C_w3" to=":C_c1" fromLane="0" toLane="0" tl="C" linkIndex="21" dir="s" state="M"/>
    <connection from=":C_w3" to="CS" fromLane="0" toLane="0" dir="s" state="M"/>
    <connection from="WC" to=":C_w3" fromLane="0" toLane="0" dir="s" state="M"/>
    <connection from=":E_w0" to="EC" fromLane="0" toLane="0" dir="s" state="M"/>
    <connection from="CE" to=":E_w0" fromLane="0" toLane="0" dir="s" state="M"/>
    <connection from=":N_w0" to="NC" fromLane="0" toLane="0" dir="s" state="M"/>
    <connection from="CN" to=":N_w0" fromLane="0" toLane="0" dir="s" state="M"/>
    <connection from=":S_w0" to="SC" fromLane="0" toLane="0" dir="s" state="M"/>
    <connection from="CS" to=":S_w0" fromLane="0" toLane="0" dir="s" state="M"/>
    <connection from=":W_w0" to="WC" fromLane="0" toLane="0" dir="s" state="M"/>
    <connection from="CW" to=":W_w0" fromLane="0" toLane="0" dir="s" state="M"/>
</net>
