<?xml version="1.0" encoding="UTF-8"?>

<!-- generated on Wed Jun  7 08:58:07 2017 by SUMO netconvert Version dev-SVN-r24560
<?xml version="1.0" encoding="UTF-8"?>

<configuration xmlns:xsi="http://www.w3.org/2001/XMLSchema-instance" xsi:noNamespaceSchemaLocation="http://sumo.dlr.de/xsd/netconvertConfiguration.xsd">

    <input>
        <osm-files value="osm.xml"/>
    </input>

    <output>
        <output-file value="net.net.xml"/>
        <ptstop-output value="additional.xml"/>
    </output>

    <projection>
        <proj.utm value="true"/>
    </projection>

    <processing>
        <osm.stop-output.length value="200"/>
    </processing>

    <report>
        <xml-validation value="never"/>
    </report>

</configuration>
-->

<additional xmlns:xsi="http://www.w3.org/2001/XMLSchema-instance" xsi:noNamespaceSchemaLocation="http://sumo.dlr.de/xsd/additional_file.xsd">
    <busStop id="1422539746" name="Lübbenau, Gleis 1" lane="254150069_0" startPos="316.66" endPos="516.66" friendlyPos="true"/>
    <busStop id="1422539747" name="Lübbenau, Gleis 2" lane="56392722#0_0" startPos="533.06" endPos="676.76" friendlyPos="true"/>
    <busStop id="1422539748" name="Lübbenau, Gleis 4" lane="254150073#1_0" startPos="422.21" endPos="622.21" friendlyPos="true"/>
</additional>
