<?xml version="1.0" encoding="UTF-8"?>

<!-- generated on 2022-05-17 13:17:11 by Eclipse SUMO netconvert Version v1_13_0+0276-8159c4e
This data file and the accompanying materials
are made available under the terms of the Eclipse Public License v2.0
which accompanies this distribution, and is available at
http://www.eclipse.org/legal/epl-v20.html
This file may also be made available under the following Secondary
Licenses when the conditions for such availability set forth in the Eclipse
Public License 2.0 are satisfied: GNU General Public License, version 2
or later which is available at
https://www.gnu.org/licenses/old-licenses/gpl-2.0-standalone.html
SPDX-License-Identifier: EPL-2.0 OR GPL-2.0-or-later
<configuration xmlns:xsi="http://www.w3.org/2001/XMLSchema-instance" xsi:noNamespaceSchemaLocation="http://sumo.dlr.de/xsd/netconvertConfiguration.xsd">

    <input>
        <node-files value="input_plain.nod.xml"/>
        <edge-files value="input_plain.edg.xml"/>
    </input>

    <output>
        <write-license value="true"/>
    </output>

    <tls_building>
        <tls.default-type value="NEMA"/>
    </tls_building>

    <report>
        <xml-validation value="never"/>
    </report>

</configuration>
-->

<net version="1.9" junctionCornerDetail="5" limitTurnSpeed="5.50" xmlns:xsi="http://www.w3.org/2001/XMLSchema-instance" xsi:noNamespaceSchemaLocation="http://sumo.dlr.de/xsd/net_file.xsd">

    <location netOffset="100.00,100.00" convBoundary="0.00,0.00,200.00,200.00" origBoundary="-10000000000.00,-10000000000.00,10000000000.00,10000000000.00" projParameter="!"/>

    <edge id=":C_0" function="internal">
        <lane id=":C_0_0" index="0" speed="7.33" length="11.73" shape="95.20,110.40 94.85,106.55 93.80,103.80 92.05,102.15 89.60,101.60"/>
    </edge>
    <edge id=":C_1" function="internal">
        <lane id=":C_1_0" index="0" speed="13.89" length="21.09" shape="95.20,110.40 95.70,103.63 96.80,98.12 97.90,93.55 98.40,89.60"/>
    </edge>
    <edge id=":C_2" function="internal">
        <lane id=":C_2_0" index="0" speed="9.26" length="7.32" shape="98.40,110.40 99.15,105.15 100.19,103.42"/>
    </edge>
    <edge id=":C_3" function="internal">
        <lane id=":C_3_0" index="0" speed="3.65" length="1.44" shape="98.40,110.40 99.20,109.20"/>
    </edge>
    <edge id=":C_16" function="internal">
        <lane id=":C_16_0" index="0" speed="9.26" length="12.03" shape="100.19,103.42 101.40,101.40 105.15,99.15 110.40,98.40"/>
    </edge>
    <edge id=":C_17" function="internal">
        <lane id=":C_17_0" index="0" speed="3.65" length="3.23" shape="99.20,109.20 100.00,108.80 100.80,109.20 101.60,110.40"/>
    </edge>
    <edge id=":C_4" function="internal">
        <lane id=":C_4_0" index="0" speed="7.33" length="11.73" shape="110.40,104.80 106.55,105.15 103.80,106.20 102.15,107.95 101.60,110.40"/>
    </edge>
    <edge id=":C_5" function="internal">
        <lane id=":C_5_0" index="0" speed="13.89" length="21.09" shape="110.40,104.80 103.63,104.30 98.12,103.20 93.55,102.10 89.60,101.60"/>
    </edge>
    <edge id=":C_6" function="internal">
        <lane id=":C_6_0" index="0" speed="9.26" length="7.32" shape="110.40,101.60 105.15,100.85 103.42,99.81"/>
    </edge>
    <edge id=":C_7" function="internal">
        <lane id=":C_7_0" index="0" speed="3.65" length="1.44" shape="110.40,101.60 109.20,100.80"/>
    </edge>
    <edge id=":C_18" function="internal">
        <lane id=":C_18_0" index="0" speed="9.26" length="12.03" shape="103.42,99.81 101.40,98.60 99.15,94.85 98.40,89.60"/>
    </edge>
    <edge id=":C_19" function="internal">
        <lane id=":C_19_0" index="0" speed="3.65" length="3.23" shape="109.20,100.80 108.80,100.00 109.20,99.20 110.40,98.40"/>
    </edge>
    <edge id=":C_8" function="internal">
        <lane id=":C_8_0" index="0" speed="7.33" length="11.73" shape="104.80,89.60 105.15,93.45 106.20,96.20 107.95,97.85 110.40,98.40"/>
    </edge>
    <edge id=":C_9" function="internal">
        <lane id=":C_9_0" index="0" speed="13.89" length="21.09" shape="104.80,89.60 104.30,96.37 103.20,101.88 102.10,106.45 101.60,110.40"/>
    </edge>
    <edge id=":C_10" function="internal">
        <lane id=":C_10_0" index="0" speed="9.26" length="7.32" shape="101.60,89.60 100.85,94.85 99.81,96.58"/>
    </edge>
    <edge id=":C_11" function="internal">
        <lane id=":C_11_0" index="0" speed="3.65" length="1.44" shape="101.60,89.60 100.80,90.80"/>
    </edge>
    <edge id=":C_20" function="internal">
        <lane id=":C_20_0" index="0" speed="9.26" length="12.03" shape="99.81,96.58 98.60,98.60 94.85,100.85 89.60,101.60"/>
    </edge>
    <edge id=":C_21" function="internal">
        <lane id=":C_21_0" index="0" speed="3.65" length="3.23" shape="100.80,90.80 100.00,91.20 99.20,90.80 98.40,89.60"/>
    </edge>
    <edge id=":C_12" function="internal">
        <lane id=":C_12_0" index="0" speed="7.33" length="11.73" shape="89.60,95.20 93.45,94.85 96.20,93.80 97.85,92.05 98.40,89.60"/>
    </edge>
    <edge id=":C_13" function="internal">
        <lane id=":C_13_0" index="0" speed="13.89" length="21.09" shape="89.60,95.20 96.37,95.70 101.88,96.80 106.45,97.90 110.40,98.40"/>
    </edge>
    <edge id=":C_14" function="internal">
        <lane id=":C_14_0" index="0" speed="9.26" length="7.32" shape="89.60,98.40 94.85,99.15 96.58,100.19"/>
    </edge>
    <edge id=":C_15" function="internal">
        <lane id=":C_15_0" index="0" speed="3.65" length="1.44" shape="89.60,98.40 90.80,99.20"/>
    </edge>
    <edge id=":C_22" function="internal">
        <lane id=":C_22_0" index="0" speed="9.26" length="12.03" shape="96.58,100.19 98.60,101.40 100.85,105.15 101.60,110.40"/>
    </edge>
    <edge id=":C_23" function="internal">
        <lane id=":C_23_0" index="0" speed="3.65" length="3.23" shape="90.80,99.20 91.20,100.00 90.80,100.80 89.60,101.60"/>
    </edge>
    <edge id=":E_0" function="internal">
        <lane id=":E_0_0" index="0" speed="3.65" length="4.67" shape="200.00,98.40 201.20,99.20 201.60,100.00 201.20,100.80 200.00,101.60"/>
    </edge>
    <edge id=":N_0" function="internal">
        <lane id=":N_0_0" index="0" speed="3.65" length="4.67" shape="101.60,200.00 100.80,201.20 100.00,201.60 99.20,201.20 98.40,200.00"/>
    </edge>
    <edge id=":S_0" function="internal">
        <lane id=":S_0_0" index="0" speed="3.65" length="4.67" shape="98.40,0.00 99.20,-1.20 100.00,-1.60 100.80,-1.20 101.60,0.00"/>
    </edge>
    <edge id=":W_0" function="internal">
        <lane id=":W_0_0" index="0" speed="3.65" length="4.67" shape="0.00,101.60 -1.20,100.80 -1.60,100.00 -1.20,99.20 0.00,98.40"/>
    </edge>

    <edge id="CE" from="C" to="E" priority="2">
        <lane id="CE_0" index="0" speed="13.89" length="89.60" shape="110.40,98.40 200.00,98.40"/>
    </edge>
    <edge id="CN" from="C" to="N" priority="1">
        <lane id="CN_0" index="0" speed="13.89" length="89.60" shape="101.60,110.40 101.60,200.00"/>
    </edge>
    <edge id="CS" from="C" to="S" priority="1">
        <lane id="CS_0" index="0" speed="13.89" length="89.60" shape="98.40,89.60 98.40,0.00"/>
    </edge>
    <edge id="CW" from="C" to="W" priority="2">
        <lane id="CW_0" index="0" speed="13.89" length="89.60" shape="89.60,101.60 0.00,101.60"/>
    </edge>
    <edge id="EC" from="E" to="C" priority="2">
        <lane id="EC_0" index="0" speed="13.89" length="89.60" shape="200.00,104.80 110.40,104.80"/>
        <lane id="EC_1" index="1" speed="13.89" length="89.60" shape="200.00,101.60 110.40,101.60"/>
    </edge>
    <edge id="NC" from="N" to="C" priority="1">
        <lane id="NC_0" index="0" speed="13.89" length="89.60" shape="95.20,200.00 95.20,110.40"/>
        <lane id="NC_1" index="1" speed="13.89" length="89.60" shape="98.40,200.00 98.40,110.40"/>
    </edge>
    <edge id="SC" from="S" to="C" priority="1">
        <lane id="SC_0" index="0" speed="13.89" length="89.60" shape="104.80,0.00 104.80,89.60"/>
        <lane id="SC_1" index="1" speed="13.89" length="89.60" shape="101.60,0.00 101.60,89.60"/>
    </edge>
    <edge id="WC" from="W" to="C" priority="2">
        <lane id="WC_0" index="0" speed="13.89" length="89.60" shape="0.00,95.20 89.60,95.20"/>
        <lane id="WC_1" index="1" speed="13.89" length="89.60" shape="0.00,98.40 89.60,98.40"/>
    </edge>

    <tlLogic id="C" type="NEMA" programID="0" offset="0">
        <phase duration="90" state="rrrrrrrrrrrrrrGG" minDur="5" maxDur="50" vehext="2" yellow="3" red="2" name="1"/>
        <phase duration="90" state="rrrrGGggrrrrrrrr" minDur="5" maxDur="50" vehext="2" yellow="3" red="2" name="2"/>
        <phase duration="90" state="rrrrrrGGrrrrrrrr" minDur="5" maxDur="50" vehext="2" yellow="3" red="2" name="5"/>
        <phase duration="90" state="rrrrrrrrrrrrGGgg" minDur="5" maxDur="50" vehext="2" yellow="3" red="2" name="6"/>
        <phase duration="90" state="rrrrrrrrrrGGrrrr" minDur="5" maxDur="50" vehext="2" yellow="3" red="2" name="3"/>
        <phase duration="90" state="GGggrrrrrrrrrrrr" minDur="5" maxDur="50" vehext="2" yellow="3" red="2" name="4"/>
        <phase duration="90" state="rrGGrrrrrrrrrrrr" minDur="5" maxDur="50" vehext="2" yellow="3" red="2" name="7"/>
        <phase duration="90" state="rrrrrrrrGGggrrrr" minDur="5" maxDur="50" vehext="2" yellow="3" red="2" name="8"/>
        <param key="barrier2Phases" value="2,6"/>
        <param key="barrierPhases" value="4,8"/>
        <param key="ring1" value="1,2,3,4"/>
        <param key="ring2" value="5,6,7,8"/>
    </tlLogic>

    <junction id="C" type="traffic_light" x="100.00" y="100.00" incLanes="NC_0 NC_1 EC_0 EC_1 SC_0 SC_1 WC_0 WC_1" intLanes=":C_0_0 :C_1_0 :C_16_0 :C_17_0 :C_4_0 :C_5_0 :C_18_0 :C_19_0 :C_8_0 :C_9_0 :C_20_0 :C_21_0 :C_12_0 :C_13_0 :C_22_0 :C_23_0" shape="93.60,110.40 103.20,110.40 104.00,108.18 105.00,107.40 106.40,106.84 108.20,106.51 110.40,106.40 110.40,96.80 108.18,96.00 107.40,95.00 106.84,93.60 106.51,91.80 106.40,89.60 96.80,89.60 96.00,91.82 95.00,92.60 93.60,93.16 91.80,93.49 89.60,93.60 89.60,103.20 91.82,104.00 92.60,105.00 93.16,106.40 93.49,108.20">
        <request index="0"  response="0000000000100000" foes="1000010000100000" cont="0"/>
        <request index="1"  response="0111000001100000" foes="0111110001100000" cont="0"/>
        <request index="2"  response="0110001101100000" foes="0110001111100000" cont="1"/>
        <request index="3"  response="0100001000010000" foes="0100001000010000" cont="1"/>
        <request index="4"  response="0000000000000000" foes="0100001000001000" cont="0"/>
        <request index="5"  response="0000010000000100" foes="1100011000000111" cont="0"/>
        <request index="6"  response="0011010000000100" foes="0011111000000110" cont="1"/>
        <request index="7"  response="0010000100000100" foes="0010000100000100" cont="1"/>
        <request index="8"  response="0010000000000000" foes="0010000010000100" cont="0"/>
        <request index="9"  response="0110000001110000" foes="0110000001111100" cont="0"/>
        <request index="10" response="0110000001100011" foes="1110000001100011" cont="1"/>
        <request index="11" response="0001000001000010" foes="0001000001000010" cont="1"/>
        <request index="12" response="0000000000000000" foes="0000100001000010" cont="0"/>
        <request index="13" response="0000010000000100" foes="0000011111000110" cont="0"/>
        <request index="14" response="0000010000110100" foes="0000011000111110" cont="1"/>
        <request index="15" response="0000010000100001" foes="0000010000100001" cont="1"/>
    </junction>
    <junction id="E" type="priority" x="200.00" y="100.00" incLanes="CE_0" intLanes=":E_0_0" shape="200.00,100.00 200.00,96.80 200.00,100.00">
        <request index="0" response="0" foes="0" cont="0"/>
    </junction>
    <junction id="N" type="priority" x="100.00" y="200.00" incLanes="CN_0" intLanes=":N_0_0" shape="100.00,200.00 103.20,200.00 100.00,200.00">
        <request index="0" response="0" foes="0" cont="0"/>
    </junction>
    <junction id="S" type="priority" x="100.00" y="0.00" incLanes="CS_0" intLanes=":S_0_0" shape="100.00,0.00 96.80,0.00 100.00,0.00">
        <request index="0" response="0" foes="0" cont="0"/>
    </junction>
    <junction id="W" type="priority" x="0.00" y="100.00" incLanes="CW_0" intLanes=":W_0_0" shape="0.00,100.00 0.00,103.20 0.00,100.00">
        <request index="0" response="0" foes="0" cont="0"/>
    </junction>

    <junction id=":C_16_0" type="internal" x="100.19" y="103.42" incLanes=":C_2_0 SC_0" intLanes=":C_5_0 :C_6_0 :C_7_0 :C_8_0 :C_9_0 :C_13_0 :C_14_0"/>
    <junction id=":C_17_0" type="internal" x="99.20" y="109.20" incLanes=":C_3_0 EC_0 SC_0 WC_1" intLanes=":C_4_0 :C_9_0 :C_14_0"/>
    <junction id=":C_18_0" type="internal" x="103.42" y="99.81" incLanes=":C_6_0 WC_0" intLanes=":C_1_0 :C_2_0 :C_9_0 :C_10_0 :C_11_0 :C_12_0 :C_13_0"/>
    <junction id=":C_19_0" type="internal" x="109.20" y="100.80" incLanes=":C_7_0 NC_1 SC_0 WC_0" intLanes=":C_2_0 :C_8_0 :C_13_0"/>
    <junction id=":C_20_0" type="internal" x="99.81" y="96.58" incLanes=":C_10_0 NC_0" intLanes=":C_0_0 :C_1_0 :C_5_0 :C_6_0 :C_13_0 :C_14_0 :C_15_0"/>
    <junction id=":C_21_0" type="internal" x="100.80" y="90.80" incLanes=":C_11_0 EC_1 NC_0 WC_0" intLanes=":C_1_0 :C_6_0 :C_12_0"/>
    <junction id=":C_22_0" type="internal" x="96.58" y="100.19" incLanes=":C_14_0 EC_0" intLanes=":C_1_0 :C_2_0 :C_3_0 :C_4_0 :C_5_0 :C_9_0 :C_10_0"/>
    <junction id=":C_23_0" type="internal" x="90.80" y="99.20" incLanes=":C_15_0 EC_0 NC_0 SC_1" intLanes=":C_0_0 :C_5_0 :C_10_0"/>

    <connection from="CE" to="EC" fromLane="0" toLane="1" via=":E_0_0" dir="t" state="M"/>
    <connection from="CN" to="NC" fromLane="0" toLane="1" via=":N_0_0" dir="t" state="M"/>
    <connection from="CS" to="SC" fromLane="0" toLane="1" via=":S_0_0" dir="t" state="M"/>
    <connection from="CW" to="WC" fromLane="0" toLane="1" via=":W_0_0" dir="t" state="M"/>
    <connection from="EC" to="CN" fromLane="0" toLane="0" via=":C_4_0" tl="C" linkIndex="4" dir="r" state="O"/>
    <connection from="EC" to="CW" fromLane="0" toLane="0" via=":C_5_0" tl="C" linkIndex="5" dir="s" state="O"/>
    <connection from="EC" to="CS" fromLane="1" toLane="0" via=":C_6_0" tl="C" linkIndex="6" dir="l" state="o"/>
    <connection from="EC" to="CE" fromLane="1" toLane="0" via=":C_7_0" tl="C" linkIndex="7" dir="t" state="o"/>
    <connection from="NC" to="CW" fromLane="0" toLane="0" via=":C_0_0" tl="C" linkIndex="0" dir="r" state="o"/>
    <connection from="NC" to="CS" fromLane="0" toLane="0" via=":C_1_0" tl="C" linkIndex="1" dir="s" state="o"/>
    <connection from="NC" to="CE" fromLane="1" toLane="0" via=":C_2_0" tl="C" linkIndex="2" dir="l" state="o"/>
    <connection from="NC" to="CN" fromLane="1" toLane="0" via=":C_3_0" tl="C" linkIndex="3" dir="t" state="o"/>
    <connection from="SC" to="CE" fromLane="0" toLane="0" via=":C_8_0" tl="C" linkIndex="8" dir="r" state="o"/>
    <connection from="SC" to="CN" fromLane="0" toLane="0" via=":C_9_0" tl="C" linkIndex="9" dir="s" state="o"/>
    <connection from="SC" to="CW" fromLane="1" toLane="0" via=":C_10_0" tl="C" linkIndex="10" dir="l" state="o"/>
    <connection from="SC" to="CS" fromLane="1" toLane="0" via=":C_11_0" tl="C" linkIndex="11" dir="t" state="o"/>
    <connection from="WC" to="CS" fromLane="0" toLane="0" via=":C_12_0" tl="C" linkIndex="12" dir="r" state="O"/>
    <connection from="WC" to="CE" fromLane="0" toLane="0" via=":C_13_0" tl="C" linkIndex="13" dir="s" state="O"/>
    <connection from="WC" to="CN" fromLane="1" toLane="0" via=":C_14_0" tl="C" linkIndex="14" dir="l" state="o"/>
    <connection from="WC" to="CW" fromLane="1" toLane="0" via=":C_15_0" tl="C" linkIndex="15" dir="t" state="o"/>

    <connection from=":C_0" to="CW" fromLane="0" toLane="0" dir="r" state="M"/>
    <connection from=":C_1" to="CS" fromLane="0" toLane="0" dir="s" state="M"/>
    <connection from=":C_2" to="CE" fromLane="0" toLane="0" via=":C_16_0" dir="l" state="m"/>
    <connection from=":C_16" to="CE" fromLane="0" toLane="0" dir="l" state="M"/>
    <connection from=":C_3" to="CN" fromLane="0" toLane="0" via=":C_17_0" dir="t" state="m"/>
    <connection from=":C_17" to="CN" fromLane="0" toLane="0" dir="t" state="M"/>
    <connection from=":C_4" to="CN" fromLane="0" toLane="0" dir="r" state="M"/>
    <connection from=":C_5" to="CW" fromLane="0" toLane="0" dir="s" state="M"/>
    <connection from=":C_6" to="CS" fromLane="0" toLane="0" via=":C_18_0" dir="l" state="m"/>
    <connection from=":C_18" to="CS" fromLane="0" toLane="0" dir="l" state="M"/>
    <connection from=":C_7" to="CE" fromLane="0" toLane="0" via=":C_19_0" dir="t" state="m"/>
    <connection from=":C_19" to="CE" fromLane="0" toLane="0" dir="t" state="M"/>
    <connection from=":C_8" to="CE" fromLane="0" toLane="0" dir="r" state="M"/>
    <connection from=":C_9" to="CN" fromLane="0" toLane="0" dir="s" state="M"/>
    <connection from=":C_10" to="CW" fromLane="0" toLane="0" via=":C_20_0" dir="l" state="m"/>
    <connection from=":C_20" to="CW" fromLane="0" toLane="0" dir="l" state="M"/>
    <connection from=":C_11" to="CS" fromLane="0" toLane="0" via=":C_21_0" dir="t" state="m"/>
    <connection from=":C_21" to="CS" fromLane="0" toLane="0" dir="t" state="M"/>
    <connection from=":C_12" to="CS" fromLane="0" toLane="0" dir="r" state="M"/>
    <connection from=":C_13" to="CE" fromLane="0" toLane="0" dir="s" state="M"/>
    <connection from=":C_14" to="CN" fromLane="0" toLane="0" via=":C_22_0" dir="l" state="m"/>
    <connection from=":C_22" to="CN" fromLane="0" toLane="0" dir="l" state="M"/>
    <connection from=":C_15" to="CW" fromLane="0" toLane="0" via=":C_23_0" dir="t" state="m"/>
    <connection from=":C_23" to="CW" fromLane="0" toLane="0" dir="t" state="M"/>
    <connection from=":E_0" to="EC" fromLane="0" toLane="1" dir="t" state="M"/>
    <connection from=":N_0" to="NC" fromLane="0" toLane="1" dir="t" state="M"/>
    <connection from=":S_0" to="SC" fromLane="0" toLane="1" dir="t" state="M"/>
    <connection from=":W_0" to="WC" fromLane="0" toLane="1" dir="t" state="M"/>

</net>
