<?xml version="1.0" encoding="UTF-8"?>

<configuration>

    <input>
        <net-file value="net.netedit"/>
        <additional-files value="additionals.netedit"/>
		<route-files value="routes.netedit"/>
    </input>
	
	<time>
        <begin value="0"/>
		<end value="1500"/>
    </time>
	
</configuration>