<?xml version="1.0" encoding="UTF-8"?>
<routes xmlns:xsi="http://www.w3.org/2001/XMLSchema-instance" xsi:noNamespaceSchemaLocation="http://sumo.dlr.de/xsd/routes_file.xsd">
	
	<vType id="DEFAULT_VEHTYPE" sigma="0">
    </vType>
	
    <route id="route1" edges="a">
		<stop index="0" parkingArea="ParkAreaA" duration="200"/>
    </route>

    <flow id="flow1" begin="0" end="35" number="1" route="route1"/>
	
</routes>
