<?xml version="1.0"?>

<!-- generated on 08/11/08 13:14:52 by SUMO netconvert Version dev-SVN-r5964
<configuration>

   <input>
      <xml-node-files>jtrrouter.nod.xml</xml-node-files>
      <xml-edge-files>jtrrouter.edg.xml</xml-edge-files>
   </input>

   <output>
      <output-file>jtrrouter.net.xml</output-file>
   </output>

   <processing>
      <add-internal-links>true</add-internal-links>
   </processing>

   <report>
      <verbose>true</verbose>
   </report>

</configuration>
-->

<net>

   <net-offset>50.00,400.00</net-offset>
   <conv-boundary>0.00,0.00,100.00,800.00</conv-boundary>
   <orig-boundary>-50.00,-400.00,50.00,400.00</orig-boundary>
   <orig-proj>!</orig-proj>

   <edge id=":absBeg_0" function="internal">
      <lanes>
         <lane id=":absBeg_0_0" depart="0" maxspeed="36.00" length="4.82" >48.35,0.00 49.18,-1.24 50.00,-1.65 50.83,-1.24 51.65,0.00</lane>
      </lanes>
   </edge>

   <edge id=":absEnd_0" function="internal">
      <lanes>
         <lane id=":absEnd_0_0" depart="0" maxspeed="36.00" length="4.82" >51.65,800.00 50.82,801.24 50.00,801.65 49.17,801.24 48.35,800.00</lane>
      </lanes>
   </edge>

   <edge id=":beg_0" function="internal">
      <lanes>
         <lane id=":beg_0_0" depart="0" maxspeed="36.00" length="5.00" >48.35,204.75 48.16,203.39 47.58,202.42 46.61,201.84 45.25,201.65</lane>
      </lanes>
   </edge>

   <edge id=":beg_1" function="internal">
      <lanes>
         <lane id=":beg_1_0" depart="0" maxspeed="36.00" length="9.50" >48.35,204.75 48.35,195.25</lane>
      </lanes>
   </edge>

   <edge id=":beg_2" function="internal">
      <lanes>
         <lane id=":beg_2_0" depart="0" maxspeed="36.00" length="10.32" >48.35,204.75 48.75,201.95 49.95,199.95 51.95,198.75 54.75,198.35</lane>
      </lanes>
   </edge>

   <edge id=":beg_3" function="internal">
      <lanes>
         <lane id=":beg_3_0" depart="0" maxspeed="36.00" length="4.82" >48.35,204.75 49.18,203.51 50.00,203.10 50.83,203.51 51.65,204.75</lane>
      </lanes>
   </edge>

   <edge id=":beg_4" function="internal">
      <lanes>
         <lane id=":beg_4_0" depart="0" maxspeed="36.00" length="5.00" >54.75,201.65 53.39,201.84 52.43,202.42 51.84,203.39 51.65,204.75</lane>
      </lanes>
   </edge>

   <edge id=":beg_5" function="internal">
      <lanes>
         <lane id=":beg_5_0" depart="0" maxspeed="36.00" length="9.50" >54.75,201.65 45.25,201.65</lane>
      </lanes>
   </edge>

   <edge id=":beg_6" function="internal">
      <lanes>
         <lane id=":beg_6_0" depart="0" maxspeed="36.00" length="10.32" >54.75,201.65 51.95,201.25 49.95,200.05 48.75,198.05 48.35,195.25</lane>
      </lanes>
   </edge>

   <edge id=":beg_7" function="internal">
      <lanes>
         <lane id=":beg_7_0" depart="0" maxspeed="36.00" length="4.82" >54.75,201.65 53.51,200.83 53.10,200.00 53.51,199.18 54.75,198.35</lane>
      </lanes>
   </edge>

   <edge id=":beg_8" function="internal">
      <lanes>
         <lane id=":beg_8_0" depart="0" maxspeed="36.00" length="5.00" >51.65,195.25 51.84,196.61 52.43,197.58 53.39,198.16 54.75,198.35</lane>
      </lanes>
   </edge>

   <edge id=":beg_9" function="internal">
      <lanes>
         <lane id=":beg_9_0" depart="0" maxspeed="36.00" length="9.50" >51.65,195.25 51.65,204.75</lane>
      </lanes>
   </edge>

   <edge id=":beg_10" function="internal">
      <lanes>
         <lane id=":beg_10_0" depart="0" maxspeed="36.00" length="10.32" >51.65,195.25 51.25,198.05 50.05,200.05 48.05,201.25 45.25,201.65</lane>
      </lanes>
   </edge>

   <edge id=":beg_11" function="internal">
      <lanes>
         <lane id=":beg_11_0" depart="0" maxspeed="36.00" length="4.82" >51.65,195.25 50.82,196.49 50.00,196.90 49.17,196.49 48.35,195.25</lane>
      </lanes>
   </edge>

   <edge id=":beg_12" function="internal">
      <lanes>
         <lane id=":beg_12_0" depart="0" maxspeed="36.00" length="5.00" >45.25,198.35 46.61,198.16 47.58,197.58 48.16,196.61 48.35,195.25</lane>
      </lanes>
   </edge>

   <edge id=":beg_13" function="internal">
      <lanes>
         <lane id=":beg_13_0" depart="0" maxspeed="36.00" length="9.50" >45.25,198.35 54.75,198.35</lane>
      </lanes>
   </edge>

   <edge id=":beg_14" function="internal">
      <lanes>
         <lane id=":beg_14_0" depart="0" maxspeed="36.00" length="10.32" >45.25,198.35 48.05,198.75 50.05,199.95 51.25,201.95 51.65,204.75</lane>
      </lanes>
   </edge>

   <edge id=":beg_15" function="internal">
      <lanes>
         <lane id=":beg_15_0" depart="0" maxspeed="36.00" length="4.82" >45.25,198.35 46.49,199.17 46.90,200.00 46.49,200.82 45.25,201.65</lane>
      </lanes>
   </edge>

   <edge id=":begleft_0" function="internal">
      <lanes>
         <lane id=":begleft_0_0" depart="0" maxspeed="36.00" length="7.90" >-1.65,203.25 -1.34,201.11 -0.43,199.58 1.11,198.66 3.25,198.35</lane>
      </lanes>
   </edge>

   <edge id=":begleft_1" function="internal">
      <lanes>
         <lane id=":begleft_1_0" depart="0" maxspeed="36.00" length="4.82" >-1.65,203.25 -0.82,202.01 0.00,201.60 0.83,202.01 1.65,203.25</lane>
      </lanes>
   </edge>

   <edge id=":begleft_2" function="internal">
      <lanes>
         <lane id=":begleft_2_0" depart="0" maxspeed="36.00" length="2.58" >3.25,201.65 2.55,201.75 2.05,202.05 1.75,202.55 1.65,203.25</lane>
      </lanes>
   </edge>

   <edge id=":begleft_3" function="internal">
      <lanes>
         <lane id=":begleft_3_0" depart="0" maxspeed="36.00" length="4.82" >3.25,201.65 2.01,200.83 1.60,200.00 2.01,199.18 3.25,198.35</lane>
      </lanes>
   </edge>

   <edge id=":begright_0" function="internal">
      <lanes>
         <lane id=":begright_0_0" depart="0" maxspeed="36.00" length="2.58" >98.35,203.25 98.25,202.55 97.95,202.05 97.45,201.75 96.75,201.65</lane>
      </lanes>
   </edge>

   <edge id=":begright_1" function="internal">
      <lanes>
         <lane id=":begright_1_0" depart="0" maxspeed="36.00" length="4.82" >98.35,203.25 99.17,202.01 100.00,201.60 100.82,202.01 101.65,203.25</lane>
      </lanes>
   </edge>

   <edge id=":begright_2" function="internal">
      <lanes>
         <lane id=":begright_2_0" depart="0" maxspeed="36.00" length="7.90" >96.75,198.35 98.89,198.66 100.42,199.58 101.34,201.11 101.65,203.25</lane>
      </lanes>
   </edge>

   <edge id=":begright_3" function="internal">
      <lanes>
         <lane id=":begright_3_0" depart="0" maxspeed="36.00" length="4.82" >96.75,198.35 97.99,199.17 98.40,200.00 97.99,200.82 96.75,201.65</lane>
      </lanes>
   </edge>

   <edge id=":end_0" function="internal">
      <lanes>
         <lane id=":end_0_0" depart="0" maxspeed="36.00" length="5.00" >48.35,604.75 48.16,603.39 47.58,602.43 46.61,601.84 45.25,601.65</lane>
      </lanes>
   </edge>

   <edge id=":end_1" function="internal">
      <lanes>
         <lane id=":end_1_0" depart="0" maxspeed="36.00" length="9.50" >48.35,604.75 48.35,595.25</lane>
      </lanes>
   </edge>

   <edge id=":end_2" function="internal">
      <lanes>
         <lane id=":end_2_0" depart="0" maxspeed="36.00" length="7.14" >48.35,604.75 48.75,601.95 50.25,599.77</lane>
      </lanes>
   </edge>

   <edge id=":end_16" function="internal">
      <lanes>
         <lane id=":end_16_0" depart="0" maxspeed="36.00" length="3.18" >50.25,599.77 51.95,598.75 54.75,598.35</lane>
      </lanes>
   </edge>

   <edge id=":end_3" function="internal">
      <lanes>
         <lane id=":end_3_0" depart="0" maxspeed="36.00" length="0.10" >48.35,604.75 49.12,603.60</lane>
      </lanes>
   </edge>

   <edge id=":end_17" function="internal">
      <lanes>
         <lane id=":end_17_0" depart="0" maxspeed="36.00" length="4.72" >49.12,603.60 49.18,603.51 50.00,603.10 50.83,603.51 51.65,604.75</lane>
      </lanes>
   </edge>

   <edge id=":end_4" function="internal">
      <lanes>
         <lane id=":end_4_0" depart="0" maxspeed="36.00" length="5.00" >54.75,601.65 53.39,601.84 52.43,602.43 51.84,603.39 51.65,604.75</lane>
      </lanes>
   </edge>

   <edge id=":end_5" function="internal">
      <lanes>
         <lane id=":end_5_0" depart="0" maxspeed="36.00" length="9.50" >54.75,601.65 45.25,601.65</lane>
      </lanes>
   </edge>

   <edge id=":end_6" function="internal">
      <lanes>
         <lane id=":end_6_0" depart="0" maxspeed="36.00" length="3.18" >54.75,601.65 50.25,600.23</lane>
      </lanes>
   </edge>

   <edge id=":end_18" function="internal">
      <lanes>
         <lane id=":end_18_0" depart="0" maxspeed="36.00" length="7.14" >50.25,600.23 49.95,600.05 48.75,598.05 48.35,595.25</lane>
      </lanes>
   </edge>

   <edge id=":end_7" function="internal">
      <lanes>
         <lane id=":end_7_0" depart="0" maxspeed="36.00" length="0.10" >54.75,601.65 53.60,600.88</lane>
      </lanes>
   </edge>

   <edge id=":end_19" function="internal">
      <lanes>
         <lane id=":end_19_0" depart="0" maxspeed="36.00" length="4.72" >53.60,600.88 53.51,600.82 53.10,600.00 53.51,599.17 54.75,598.35</lane>
      </lanes>
   </edge>

   <edge id=":end_8" function="internal">
      <lanes>
         <lane id=":end_8_0" depart="0" maxspeed="36.00" length="5.00" >51.65,595.25 51.84,596.61 52.43,597.57 53.39,598.16 54.75,598.35</lane>
      </lanes>
   </edge>

   <edge id=":end_9" function="internal">
      <lanes>
         <lane id=":end_9_0" depart="0" maxspeed="36.00" length="9.50" >51.65,595.25 51.65,604.75</lane>
      </lanes>
   </edge>

   <edge id=":end_10" function="internal">
      <lanes>
         <lane id=":end_10_0" depart="0" maxspeed="36.00" length="7.14" >51.65,595.25 51.25,598.05 49.75,600.23</lane>
      </lanes>
   </edge>

   <edge id=":end_20" function="internal">
      <lanes>
         <lane id=":end_20_0" depart="0" maxspeed="36.00" length="3.18" >49.75,600.23 48.05,601.25 45.25,601.65</lane>
      </lanes>
   </edge>

   <edge id=":end_11" function="internal">
      <lanes>
         <lane id=":end_11_0" depart="0" maxspeed="36.00" length="0.10" >51.65,595.25 50.88,596.40</lane>
      </lanes>
   </edge>

   <edge id=":end_21" function="internal">
      <lanes>
         <lane id=":end_21_0" depart="0" maxspeed="36.00" length="4.72" >50.88,596.40 50.82,596.49 50.00,596.90 49.17,596.49 48.35,595.25</lane>
      </lanes>
   </edge>

   <edge id=":end_12" function="internal">
      <lanes>
         <lane id=":end_12_0" depart="0" maxspeed="36.00" length="5.00" >45.25,598.35 46.61,598.16 47.58,597.57 48.16,596.61 48.35,595.25</lane>
      </lanes>
   </edge>

   <edge id=":end_13" function="internal">
      <lanes>
         <lane id=":end_13_0" depart="0" maxspeed="36.00" length="9.50" >45.25,598.35 54.75,598.35</lane>
      </lanes>
   </edge>

   <edge id=":end_14" function="internal">
      <lanes>
         <lane id=":end_14_0" depart="0" maxspeed="36.00" length="3.18" >45.25,598.35 49.75,599.77</lane>
      </lanes>
   </edge>

   <edge id=":end_22" function="internal">
      <lanes>
         <lane id=":end_22_0" depart="0" maxspeed="36.00" length="7.14" >49.75,599.77 50.05,599.95 51.25,601.95 51.65,604.75</lane>
      </lanes>
   </edge>

   <edge id=":end_15" function="internal">
      <lanes>
         <lane id=":end_15_0" depart="0" maxspeed="36.00" length="0.10" >45.25,598.35 46.40,599.12</lane>
      </lanes>
   </edge>

   <edge id=":end_23" function="internal">
      <lanes>
         <lane id=":end_23_0" depart="0" maxspeed="36.00" length="4.72" >46.40,599.12 46.49,599.18 46.90,600.00 46.49,600.83 45.25,601.65</lane>
      </lanes>
   </edge>

   <edge id=":endleft_0" function="internal">
      <lanes>
         <lane id=":endleft_0_0" depart="0" maxspeed="36.00" length="7.90" >3.25,601.65 1.11,601.34 -0.43,600.43 -1.34,598.89 -1.65,596.75</lane>
      </lanes>
   </edge>

   <edge id=":endleft_1" function="internal">
      <lanes>
         <lane id=":endleft_1_0" depart="0" maxspeed="36.00" length="4.82" >3.25,601.65 2.01,600.82 1.60,600.00 2.01,599.17 3.25,598.35</lane>
      </lanes>
   </edge>

   <edge id=":endleft_2" function="internal">
      <lanes>
         <lane id=":endleft_2_0" depart="0" maxspeed="36.00" length="2.58" >1.65,596.75 1.75,597.45 2.05,597.95 2.55,598.25 3.25,598.35</lane>
      </lanes>
   </edge>

   <edge id=":endleft_3" function="internal">
      <lanes>
         <lane id=":endleft_3_0" depart="0" maxspeed="36.00" length="4.82" >1.65,596.75 0.82,597.99 -0.00,598.40 -0.83,597.99 -1.65,596.75</lane>
      </lanes>
   </edge>

   <edge id=":endright_0" function="internal">
      <lanes>
         <lane id=":endright_0_0" depart="0" maxspeed="36.00" length="7.90" >101.65,596.75 101.34,598.89 100.43,600.43 98.89,601.34 96.75,601.65</lane>
      </lanes>
   </edge>

   <edge id=":endright_1" function="internal">
      <lanes>
         <lane id=":endright_1_0" depart="0" maxspeed="36.00" length="4.82" >101.65,596.75 100.83,597.99 100.00,598.40 99.18,597.99 98.35,596.75</lane>
      </lanes>
   </edge>

   <edge id=":endright_2" function="internal">
      <lanes>
         <lane id=":endright_2_0" depart="0" maxspeed="36.00" length="2.58" >96.75,598.35 97.45,598.25 97.95,597.95 98.25,597.45 98.35,596.75</lane>
      </lanes>
   </edge>

   <edge id=":endright_3" function="internal">
      <lanes>
         <lane id=":endright_3_0" depart="0" maxspeed="36.00" length="4.82" >96.75,598.35 97.99,599.18 98.40,600.00 97.99,600.83 96.75,601.65</lane>
      </lanes>
   </edge>


   <node_count>8</node_count>


   <edge id="-beg" from="beg" to="absBeg" priority="-1" type="" function="normal">
      <lanes>
         <lane id="-beg_0" depart="1" vclasses="" maxspeed="36.00" length="195.25">48.35,195.25 48.35,0.00</lane>
      </lanes>
   </edge>

   <edge id="-beg2left" from="begleft" to="beg" priority="-1" type="" function="normal">
      <lanes>
         <lane id="-beg2left_0" depart="1" vclasses="" maxspeed="36.00" length="42.00">3.25,198.35 45.25,198.35</lane>
      </lanes>
   </edge>

   <edge id="-beg2right" from="begright" to="beg" priority="-1" type="" function="normal">
      <lanes>
         <lane id="-beg2right_0" depart="1" vclasses="" maxspeed="36.00" length="42.00">96.75,201.65 54.75,201.65</lane>
      </lanes>
   </edge>

   <edge id="-end" from="absEnd" to="end" priority="-1" type="" function="normal">
      <lanes>
         <lane id="-end_0" depart="1" vclasses="" maxspeed="36.00" length="195.25">48.35,800.00 48.35,604.75</lane>
      </lanes>
   </edge>

   <edge id="-left" from="endleft" to="begleft" priority="-1" type="" function="normal">
      <lanes>
         <lane id="-left_0" depart="1" vclasses="" maxspeed="36.00" length="393.50">-1.65,596.75 -1.65,203.25</lane>
      </lanes>
   </edge>

   <edge id="-left2end" from="end" to="endleft" priority="-1" type="" function="normal">
      <lanes>
         <lane id="-left2end_0" depart="1" vclasses="" maxspeed="36.00" length="42.00">45.25,601.65 3.25,601.65</lane>
      </lanes>
   </edge>

   <edge id="-middle" from="end" to="beg" priority="-1" type="" function="normal">
      <lanes>
         <lane id="-middle_0" depart="1" vclasses="" maxspeed="36.00" length="390.50">48.35,595.25 48.35,204.75</lane>
      </lanes>
   </edge>

   <edge id="-right" from="endright" to="begright" priority="-1" type="" function="normal">
      <lanes>
         <lane id="-right_0" depart="1" vclasses="" maxspeed="36.00" length="393.50">98.35,596.75 98.35,203.25</lane>
      </lanes>
   </edge>

   <edge id="-right2end" from="end" to="endright" priority="-1" type="" function="normal">
      <lanes>
         <lane id="-right2end_0" depart="1" vclasses="" maxspeed="36.00" length="42.00">54.75,598.35 96.75,598.35</lane>
      </lanes>
   </edge>

   <edge id="beg" from="absBeg" to="beg" priority="-1" type="" function="normal">
      <lanes>
         <lane id="beg_0" depart="1" vclasses="" maxspeed="36.00" length="195.25">51.65,0.00 51.65,195.25</lane>
      </lanes>
   </edge>

   <edge id="beg2left" from="beg" to="begleft" priority="-1" type="" function="normal">
      <lanes>
         <lane id="beg2left_0" depart="1" vclasses="" maxspeed="36.00" length="42.00">45.25,201.65 3.25,201.65</lane>
      </lanes>
   </edge>

   <edge id="beg2right" from="beg" to="begright" priority="-1" type="" function="normal">
      <lanes>
         <lane id="beg2right_0" depart="1" vclasses="" maxspeed="36.00" length="42.00">54.75,198.35 96.75,198.35</lane>
      </lanes>
   </edge>

   <edge id="end" from="end" to="absEnd" priority="-1" type="" function="normal">
      <lanes>
         <lane id="end_0" depart="1" vclasses="" maxspeed="36.00" length="195.25">51.65,604.75 51.65,800.00</lane>
      </lanes>
   </edge>

   <edge id="left" from="begleft" to="endleft" priority="-1" type="" function="normal">
      <lanes>
         <lane id="left_0" depart="1" vclasses="" maxspeed="36.00" length="393.50">1.65,203.25 1.65,596.75</lane>
      </lanes>
   </edge>

   <edge id="left2end" from="endleft" to="end" priority="-1" type="" function="normal">
      <lanes>
         <lane id="left2end_0" depart="1" vclasses="" maxspeed="36.00" length="42.00">3.25,598.35 45.25,598.35</lane>
      </lanes>
   </edge>

   <edge id="middle" from="beg" to="end" priority="-1" type="" function="normal">
      <lanes>
         <lane id="middle_0" depart="1" vclasses="" maxspeed="36.00" length="390.50">51.65,204.75 51.65,595.25</lane>
      </lanes>
   </edge>

   <edge id="right" from="begright" to="endright" priority="-1" type="" function="normal">
      <lanes>
         <lane id="right_0" depart="1" vclasses="" maxspeed="36.00" length="393.50">101.65,203.25 101.65,596.75</lane>
      </lanes>
   </edge>

   <edge id="right2end" from="endright" to="end" priority="-1" type="" function="normal">
      <lanes>
         <lane id="right2end_0" depart="1" vclasses="" maxspeed="36.00" length="42.00">96.75,601.65 54.75,601.65</lane>
      </lanes>
   </edge>


   <row-logic>
      <key>absBeg</key>
      <requestsize>1</requestsize>
      <lanenumber>1</lanenumber>
      <logic>
         <logicitem request="0" response="0" foes="0" cont="0"/>
      </logic>
   </row-logic>

   <row-logic>
      <key>absEnd</key>
      <requestsize>1</requestsize>
      <lanenumber>1</lanenumber>
      <logic>
         <logicitem request="0" response="0" foes="0" cont="0"/>
      </logic>
   </row-logic>

   <row-logic>
      <key>beg</key>
      <requestsize>16</requestsize>
      <lanenumber>4</lanenumber>
      <logic>
         <logicitem request="0" response="0000000000000000" foes="1000010000100000" cont="0"/>
         <logicitem request="1" response="0000000000000000" foes="0111110001100000" cont="0"/>
         <logicitem request="2" response="0000001100000000" foes="0110001111100000" cont="0"/>
         <logicitem request="3" response="0100001000010000" foes="0100001000010000" cont="0"/>
         <logicitem request="4" response="0000001000000000" foes="0100001000001000" cont="0"/>
         <logicitem request="5" response="0000011000000111" foes="1100011000000111" cont="0"/>
         <logicitem request="6" response="0011011000000110" foes="0011111000000110" cont="0"/>
         <logicitem request="7" response="0010000100000100" foes="0010000100000100" cont="0"/>
         <logicitem request="8" response="0000000000000000" foes="0010000010000100" cont="0"/>
         <logicitem request="9" response="0000000000000000" foes="0110000001111100" cont="0"/>
         <logicitem request="10" response="0000000000000011" foes="1110000001100011" cont="0"/>
         <logicitem request="11" response="0001000001000010" foes="0001000001000010" cont="0"/>
         <logicitem request="12" response="0000000000000010" foes="0000100001000010" cont="0"/>
         <logicitem request="13" response="0000011100000110" foes="0000011111000110" cont="0"/>
         <logicitem request="14" response="0000011000110110" foes="0000011000111110" cont="0"/>
         <logicitem request="15" response="0000010000100001" foes="0000010000100001" cont="0"/>
      </logic>
   </row-logic>

   <row-logic>
      <key>begleft</key>
      <requestsize>4</requestsize>
      <lanenumber>2</lanenumber>
      <logic>
         <logicitem request="0" response="0000" foes="1000" cont="0"/>
         <logicitem request="1" response="0100" foes="0100" cont="0"/>
         <logicitem request="2" response="0000" foes="0010" cont="0"/>
         <logicitem request="3" response="0001" foes="0001" cont="0"/>
      </logic>
   </row-logic>

   <row-logic>
      <key>begright</key>
      <requestsize>4</requestsize>
      <lanenumber>2</lanenumber>
      <logic>
         <logicitem request="0" response="0000" foes="1000" cont="0"/>
         <logicitem request="1" response="0100" foes="0100" cont="0"/>
         <logicitem request="2" response="0000" foes="0010" cont="0"/>
         <logicitem request="3" response="0001" foes="0001" cont="0"/>
      </logic>
   </row-logic>

   <row-logic>
      <key>end</key>
      <requestsize>16</requestsize>
      <lanenumber>4</lanenumber>
      <logic>
         <logicitem request="0" response="0000000000000000" foes="1000010000100000" cont="0"/>
         <logicitem request="1" response="0000000000000000" foes="0111110001100000" cont="0"/>
         <logicitem request="2" response="0000001100000000" foes="0110001111100000" cont="1"/>
         <logicitem request="3" response="0100001000010000" foes="0100001000010000" cont="1"/>
         <logicitem request="4" response="0000001000000000" foes="0100001000001000" cont="0"/>
         <logicitem request="5" response="0000011000000111" foes="1100011000000111" cont="0"/>
         <logicitem request="6" response="0011011000000110" foes="0011111000000110" cont="1"/>
         <logicitem request="7" response="0010000100000100" foes="0010000100000100" cont="1"/>
         <logicitem request="8" response="0000000000000000" foes="0010000010000100" cont="0"/>
         <logicitem request="9" response="0000000000000000" foes="0110000001111100" cont="0"/>
         <logicitem request="10" response="0000000000000011" foes="1110000001100011" cont="1"/>
         <logicitem request="11" response="0001000001000010" foes="0001000001000010" cont="1"/>
         <logicitem request="12" response="0000000000000010" foes="0000100001000010" cont="0"/>
         <logicitem request="13" response="0000011100000110" foes="0000011111000110" cont="0"/>
         <logicitem request="14" response="0000011000110110" foes="0000011000111110" cont="1"/>
         <logicitem request="15" response="0000010000100001" foes="0000010000100001" cont="1"/>
      </logic>
   </row-logic>

   <row-logic>
      <key>endleft</key>
      <requestsize>4</requestsize>
      <lanenumber>2</lanenumber>
      <logic>
         <logicitem request="0" response="0000" foes="1000" cont="0"/>
         <logicitem request="1" response="0100" foes="0100" cont="0"/>
         <logicitem request="2" response="0000" foes="0010" cont="0"/>
         <logicitem request="3" response="0001" foes="0001" cont="0"/>
      </logic>
   </row-logic>

   <row-logic>
      <key>endright</key>
      <requestsize>4</requestsize>
      <lanenumber>2</lanenumber>
      <logic>
         <logicitem request="0" response="0000" foes="1000" cont="0"/>
         <logicitem request="1" response="0100" foes="0100" cont="0"/>
         <logicitem request="2" response="0000" foes="0010" cont="0"/>
         <logicitem request="3" response="0001" foes="0001" cont="0"/>
      </logic>
   </row-logic>


   <tl-logic type="static">
      <key>end</key>
      <subkey>0</subkey>
      <phaseno>8</phaseno>
      <offset>0</offset>
      <phase duration="31" phase="0000111100001111" brake="1111110011111100" yellow="0000000000000000"/>
      <phase duration="12" phase="0000110000001100" brake="1111111111111111" yellow="0000001100000011"/>
      <phase duration="6" phase="0000110000001100" brake="1111001111110011" yellow="0000000000000000"/>
      <phase duration="12" phase="0000000000000000" brake="1111111111111111" yellow="0000110000001100"/>
      <phase duration="31" phase="1111000011110000" brake="1100111111001111" yellow="0000000000000000"/>
      <phase duration="12" phase="1100000011000000" brake="1111111111111111" yellow="0011000000110000"/>
      <phase duration="6" phase="1100000011000000" brake="0011111100111111" yellow="0000000000000000"/>
      <phase duration="12" phase="0000000000000000" brake="1111111111111111" yellow="1100000011000000"/>
   </tl-logic>


   <junction id="absBeg" type="priority" x="50.00" y="0.00">
      <inclanes>-beg_0</inclanes>
      <intlanes>:absBeg_0_0</intlanes>
      <shape>50.05,-0.00 53.25,-0.00 46.75,0.00 49.95,0.00</shape>
   </junction>

   <junction id="absEnd" type="priority" x="50.00" y="800.00">
      <inclanes>end_0</inclanes>
      <intlanes>:absEnd_0_0</intlanes>
      <shape>49.95,800.00 46.75,800.00 53.25,800.00 50.05,800.00</shape>
   </junction>

   <junction id="beg" type="priority" x="50.00" y="200.00">
      <inclanes>-middle_0 -beg2right_0 beg_0 -beg2left_0</inclanes>
      <intlanes>:beg_0_0 :beg_1_0 :beg_2_0 :beg_3_0 :beg_4_0 :beg_5_0 :beg_6_0 :beg_7_0 :beg_8_0 :beg_9_0 :beg_10_0 :beg_11_0 :beg_12_0 :beg_13_0 :beg_14_0 :beg_15_0</intlanes>
      <shape>46.75,204.75 53.25,204.75 54.75,203.25 54.75,196.75 53.25,195.25 46.75,195.25 45.25,196.75 45.25,203.25</shape>
   </junction>

   <junction id="begleft" type="priority" x="0.00" y="200.00">
      <inclanes>-left_0 beg2left_0</inclanes>
      <intlanes>:begleft_0_0 :begleft_1_0 :begleft_2_0 :begleft_3_0</intlanes>
      <shape>-3.25,203.25 3.25,203.25 3.25,196.75</shape>
   </junction>

   <junction id="begright" type="priority" x="100.00" y="200.00">
      <inclanes>-right_0 beg2right_0</inclanes>
      <intlanes>:begright_0_0 :begright_1_0 :begright_2_0 :begright_3_0</intlanes>
      <shape>96.75,203.25 103.25,203.25 96.75,196.75 96.75,203.25</shape>
   </junction>

   <junction id="end" type="priority" x="50.00" y="600.00">
      <inclanes>-end_0 right2end_0 middle_0 left2end_0</inclanes>
      <intlanes>:end_0_0 :end_1_0 :end_16_0 :end_17_0 :end_4_0 :end_5_0 :end_18_0 :end_19_0 :end_8_0 :end_9_0 :end_20_0 :end_21_0 :end_12_0 :end_13_0 :end_22_0 :end_23_0</intlanes>
      <shape>46.75,604.75 53.25,604.75 54.75,603.25 54.75,596.75 53.25,595.25 46.75,595.25 45.25,596.75 45.25,603.25</shape>
   </junction>

   <junction id="endleft" type="priority" x="0.00" y="600.00">
      <inclanes>-left2end_0 left_0</inclanes>
      <intlanes>:endleft_0_0 :endleft_1_0 :endleft_2_0 :endleft_3_0</intlanes>
      <shape>3.25,603.25 3.25,596.75 -3.25,596.75</shape>
   </junction>

   <junction id="endright" type="priority" x="100.00" y="600.00">
      <inclanes>right_0 -right2end_0</inclanes>
      <intlanes>:endright_0_0 :endright_1_0 :endright_2_0 :endright_3_0</intlanes>
      <shape>103.25,596.75 96.75,596.75 96.75,603.25</shape>
   </junction>


   <junction id=":end_16_0" type="internal" x="51.65" y="598.93">
      <inclanes>:end_2_0 middle_0</inclanes>
      <intlanes>:end_8_0 :end_9_0</intlanes>
      <shape></shape>
   </junction>

   <junction id=":end_17_0" type="internal" x="48.41" y="604.67">
      <inclanes>:end_3_0 middle_0</inclanes>
      <intlanes>:end_9_0</intlanes>
      <shape></shape>
   </junction>

   <junction id=":end_18_0" type="internal" x="51.65" y="601.07">
      <inclanes>:end_6_0 left2end_0</inclanes>
      <intlanes>:end_12_0 :end_13_0</intlanes>
      <shape></shape>
   </junction>

   <junction id=":end_19_0" type="internal" x="54.67" y="601.59">
      <inclanes>:end_7_0 left2end_0</inclanes>
      <intlanes>:end_13_0</intlanes>
      <shape></shape>
   </junction>

   <junction id=":end_20_0" type="internal" x="48.35" y="601.07">
      <inclanes>:end_10_0 -end_0</inclanes>
      <intlanes>:end_0_0 :end_1_0</intlanes>
      <shape></shape>
   </junction>

   <junction id=":end_21_0" type="internal" x="51.59" y="595.33">
      <inclanes>:end_11_0 -end_0</inclanes>
      <intlanes>:end_1_0</intlanes>
      <shape></shape>
   </junction>

   <junction id=":end_22_0" type="internal" x="48.35" y="598.93">
      <inclanes>:end_14_0 right2end_0</inclanes>
      <intlanes>:end_4_0 :end_5_0</intlanes>
      <shape></shape>
   </junction>

   <junction id=":end_23_0" type="internal" x="45.33" y="598.41">
      <inclanes>:end_15_0 right2end_0</inclanes>
      <intlanes>:end_5_0</intlanes>
      <shape></shape>
   </junction>


   <succ edge="-beg" lane="-beg_0" junction="absBeg">
      <succlane lane="beg_0" via=":absBeg_0_0" yield="0" dir="t" state="M"/>
   </succ>

   <succ edge="-beg2left" lane="-beg2left_0" junction="beg">
      <succlane lane="-beg_0" via=":beg_12_0" yield="1" dir="r" state="m"/>
      <succlane lane="beg2right_0" via=":beg_13_0" yield="1" dir="s" state="m"/>
      <succlane lane="middle_0" via=":beg_14_0" yield="1" dir="l" state="m"/>
      <succlane lane="beg2left_0" via=":beg_15_0" yield="1" dir="t" state="m"/>
   </succ>

   <succ edge="-beg2right" lane="-beg2right_0" junction="beg">
      <succlane lane="middle_0" via=":beg_4_0" yield="1" dir="r" state="m"/>
      <succlane lane="beg2left_0" via=":beg_5_0" yield="1" dir="s" state="m"/>
      <succlane lane="-beg_0" via=":beg_6_0" yield="1" dir="l" state="m"/>
      <succlane lane="beg2right_0" via=":beg_7_0" yield="1" dir="t" state="m"/>
   </succ>

   <succ edge="-end" lane="-end_0" junction="end">
      <succlane lane="-left2end_0" via=":end_0_0" tl="end" linkno="0" yield="1" dir="r" state="t"/>
      <succlane lane="-middle_0" via=":end_1_0" tl="end" linkno="1" yield="1" dir="s" state="t"/>
      <succlane lane="-right2end_0" via=":end_2_0" tl="end" linkno="2" yield="1" dir="l" state="t" int_end="x"/>
      <succlane lane="end_0" via=":end_3_0" tl="end" linkno="3" yield="1" dir="t" state="t" int_end="x"/>
   </succ>

   <succ edge="-left" lane="-left_0" junction="begleft">
      <succlane lane="-beg2left_0" via=":begleft_0_0" yield="0" dir="l" state="M"/>
      <succlane lane="left_0" via=":begleft_1_0" yield="1" dir="t" state="m"/>
   </succ>

   <succ edge="-left2end" lane="-left2end_0" junction="endleft">