<?xml version="1.0" encoding="UTF-8"?>

<!-- generated on 2022-06-28 14:04:04 by Eclipse SUMO netedit Version v1_13_0+1268-87dc14c6d66
-->

<additional xmlns:xsi="http://www.w3.org/2001/XMLSchema-instance" xsi:noNamespaceSchemaLocation="http://sumo.dlr.de/xsd/additional_file.xsd">
    <!-- Detectors -->
    <laneAreaDetector id="E2_01" lane="gneE0_0" pos="10.00" length="10.00" file="fileA.txt"/>
    <laneAreaDetector id="E2_02" lane="gneE0_0" pos="11.00" length="10.00" tl="gneJ0" period="100.00" file="fileA.txt"/>
    <laneAreaDetector id="E2_04" lane="gneE0_0" pos="13.00" length="10.00" tl="gneJ0" file="fileA.txt"/>
</additional>
