<?xml version="1.0" encoding="UTF-8"?>

<!-- generated on 2022-06-28 13:39:16 by Eclipse SUMO netedit Version v1_13_0+1265-d2398f6c6e5
-->

<additional xmlns:xsi="http://www.w3.org/2001/XMLSchema-instance" xsi:noNamespaceSchemaLocation="http://sumo.dlr.de/xsd/additional_file.xsd">
    <!-- Detectors -->
    <e2Detector id="E2_01" lane="gneE0_0" pos="10.00" length="10.00" file="fileA.txt"/>
    <e2Detector id="E2_02" lane="gneE0_0" pos="11.00" length="10.00" tl="gneJ0" file="fileA.txt"/>
    <e2Detector id="E2_04" lane="gneE0_0" pos="13.00" length="10.00" tl="gneJ0" file="fileA.txt"/>
</additional>
