<?xml version="1.0" encoding="UTF-8"?>

<!-- generated on 16.09.2019 14:13:20 by Eclipse SUMO netedit Version v1_3_1+0313-ccb31df3eb
<configuration xmlns:xsi="http://www.w3.org/2001/XMLSchema-instance" xsi:noNamespaceSchemaLocation="http://sumo.dlr.de/xsd/netconvertConfiguration.xsd">

    <input>
        <sumo-net-file value="C:/Users/SUMO-Test/.texttest/tmp/netedit.gui.3_from_16Sep101846.2696/netedit.gui/netElements/junctions/delete\input_net.net.xml"/>
    </input>

    <output>
        <output-file value="C:/Users/SUMO-Test/.texttest/tmp/netedit.gui.3_from_16Sep101846.2696/netedit.gui/netElements/junctions/delete\net.net.xml"/>
    </output>

    <processing>
        <geometry.max-grade.fix value="false"/>
        <offset.disable-normalization value="true"/>
        <lefthand value="false"/>
    </processing>

    <junctions>
        <no-turnarounds value="true"/>
        <junctions.corner-detail value="5"/>
        <junctions.limit-turn-speed value="5.5"/>
        <rectangular-lane-cut value="false"/>
    </junctions>

    <pedestrian>
        <walkingareas value="false"/>
    </pedestrian>

    <netedit>
        <additional-files value="C:/Users/SUMO-Test/.texttest/tmp/netedit.gui.3_from_16Sep101846.2696/netedit.gui/netElements/junctions/delete\additionals.xml"/>
        <additionals-output value="C:/Users/SUMO-Test/.texttest/tmp/netedit.gui.3_from_16Sep101846.2696/netedit.gui/netElements/junctions/delete\additionals.xml"/>
        <route-files value="C:/Users/SUMO-Test/.texttest/tmp/netedit.gui.3_from_16Sep101846.2696/netedit.gui/netElements/junctions/delete\routes.xml"/>
        <demandelements-output value="C:/Users/SUMO-Test/.texttest/tmp/netedit.gui.3_from_16Sep101846.2696/netedit.gui/netElements/junctions/delete\routes.xml"/>
    </netedit>

    <visualisation>
        <gui-settings-file value="C:/Users/SUMO-Test/.texttest/tmp/netedit.gui.3_from_16Sep101846.2696/netedit.gui/netElements/junctions/delete\gui-settings.xml"/>
        <window-size value="700,500"/>
        <window-pos value="50,50"/>
        <gui-testing value="true"/>
        <gui-testing-debug value="true"/>
    </visualisation>

    <report>
        <no-warnings value="true"/>
        <error-log value="C:/Users/SUMO-Test/.texttest/tmp/netedit.gui.3_from_16Sep101846.2696/netedit.gui/netElements/junctions/delete\log.txt"/>
    </report>

</configuration>
-->

<net version="1.6" junctionCornerDetail="5" limitTurnSpeed="5.50" xmlns:xsi="http://www.w3.org/2001/XMLSchema-instance" xsi:noNamespaceSchemaLocation="http://sumo.dlr.de/xsd/net_file.xsd">

    <location netOffset="3.00,-25.00" convBoundary="0.00,0.00,100.00,60.00" origBoundary="-10000000000.00,-10000000000.00,10000000000.00,10000000000.00" projParameter="!"/>

    <edge id=":gneJ11_0" function="internal">
        <lane id=":gneJ11_0_0" index="0" speed="13.89" length="0.10" shape="70.00,41.60 70.00,41.60"/>
    </edge>
    <edge id=":gneJ11_1" function="internal">
        <lane id=":gneJ11_1_0" index="0" speed="13.89" length="0.10" shape="70.00,38.40 70.00,38.40"/>
    </edge>
    <edge id=":gneJ12_0" function="internal">
        <lane id=":gneJ12_0_0" index="0" speed="6.08" length="7.74" shape="91.60,36.80 91.30,38.90 90.40,40.40 88.90,41.30 86.80,41.60"/>
    </edge>
    <edge id=":gneJ12_1" function="internal">
        <lane id=":gneJ12_1_0" index="0" speed="3.90" length="2.58" shape="86.80,38.40 87.50,38.30 88.00,38.00 88.30,37.50 88.40,36.80"/>
    </edge>
    <edge id=":gneJ13_0" function="internal">
        <lane id=":gneJ13_0_0" index="0" speed="13.89" length="0.10" shape="88.40,20.00 88.40,20.00"/>
    </edge>
    <edge id=":gneJ13_1" function="internal">
        <lane id=":gneJ13_1_0" index="0" speed="13.89" length="0.10" shape="91.60,20.00 91.60,20.00"/>
    </edge>
    <edge id=":gneJ14_0" function="internal">
        <lane id=":gneJ14_0_0" index="0" speed="3.90" length="2.58" shape="88.40,3.20 88.30,2.50 88.00,2.00 87.50,1.70 86.80,1.60"/>
    </edge>
    <edge id=":gneJ14_1" function="internal">
        <lane id=":gneJ14_1_0" index="0" speed="6.08" length="7.74" shape="86.80,-1.60 88.90,-1.30 90.40,-0.40 91.30,1.10 91.60,3.20"/>
    </edge>
    <edge id=":gneJ15_0" function="internal">
        <lane id=":gneJ15_0_0" index="0" speed="13.89" length="0.10" shape="70.00,1.60 70.00,1.60"/>
    </edge>
    <edge id=":gneJ15_1" function="internal">
        <lane id=":gneJ15_1_0" index="0" speed="13.89" length="0.10" shape="70.00,-1.60 70.00,-1.60"/>
    </edge>
    <edge id=":gneJ16_0" function="internal">
        <lane id=":gneJ16_0_0" index="0" speed="6.08" length="7.74" shape="48.40,3.20 48.70,1.10 49.60,-0.40 51.10,-1.30 53.20,-1.60"/>
    </edge>
    <edge id=":gneJ16_1" function="internal">
        <lane id=":gneJ16_1_0" index="0" speed="3.90" length="2.58" shape="53.20,1.60 52.50,1.70 52.00,2.00 51.70,2.50 51.60,3.20"/>
    </edge>
    <edge id=":gneJ17_0" function="internal">
        <lane id=":gneJ17_0_0" index="0" speed="13.89" length="0.10" shape="48.40,20.00 48.40,20.00"/>
    </edge>
    <edge id=":gneJ17_1" function="internal">
        <lane id=":gneJ17_1_0" index="0" speed="13.89" length="0.10" shape="51.60,20.00 51.60,20.00"/>
    </edge>
    <edge id=":gneJ18_0" function="internal">
        <lane id=":gneJ18_0_0" index="0" speed="6.08" length="7.74" shape="53.20,41.60 51.10,41.30 49.60,40.40 48.70,38.90 48.40,36.80"/>
    </edge>
    <edge id=":gneJ18_1" function="internal">
        <lane id=":gneJ18_1_0" index="0" speed="3.90" length="2.58" shape="51.60,36.80 51.70,37.50 52.00,38.00 52.50,38.30 53.20,38.40"/>
    </edge>

    <edge id="-gneE10" from="gneJ14" to="gneJ13" priority="1">
        <lane id="-gneE10_0" index="0" speed="13.89" length="16.80" shape="91.60,3.20 91.60,20.00"/>
    </edge>
    <edge id="-gneE11" from="gneJ15" to="gneJ14" priority="1">
        <lane id="-gneE11_0" index="0" speed="13.89" length="16.80" shape="70.00,-1.60 86.80,-1.60"/>
    </edge>
    <edge id="-gneE12" from="gneJ16" to="gneJ15" priority="1">
        <lane id="-gneE12_0" index="0" speed="13.89" length="16.80" shape="53.20,-1.60 70.00,-1.60"/>
    </edge>
    <edge id="-gneE13" from="gneJ17" to="gneJ16" priority="1">
        <lane id="-gneE13_0" index="0" speed="13.89" length="16.80" shape="48.40,20.00 48.40,3.20"/>
    </edge>
    <edge id="-gneE14" from="gneJ18" to="gneJ17" priority="1">
        <lane id="-gneE14_0" index="0" speed="13.89" length="16.80" shape="48.40,36.80 48.40,20.00"/>
    </edge>
    <edge id="-gneE15" from="gneJ11" to="gneJ18" priority="1">
        <lane id="-gneE15_0" index="0" speed="13.89" length="16.80" shape="70.00,41.60 53.20,41.60"/>
    </edge>
    <edge id="-gneE8" from="gneJ12" to="gneJ11" priority="1">
        <lane id="-gneE8_0" index="0" speed="13.89" length="16.80" shape="86.80,41.60 70.00,41.60"/>
    </edge>
    <edge id="-gneE9" from="gneJ13" to="gneJ12" priority="1">
        <lane id="-gneE9_0" index="0" speed="13.89" length="16.80" shape="91.60,20.00 91.60,36.80"/>
    </edge>
    <edge id="gneE10" from="gneJ13" to="gneJ14" priority="1">
        <lane id="gneE10_0" index="0" speed="13.89" length="16.80" shape="88.40,20.00 88.40,3.20"/>
    </edge>
    <edge id="gneE11" from="gneJ14" to="gneJ15" priority="1">
        <lane id="gneE11_0" index="0" speed="13.89" length="16.80" shape="86.80,1.60 70.00,1.60"/>
    </edge>
    <edge id="gneE12" from="gneJ15" to="gneJ16" priority="1">
        <lane id="gneE12_0" index="0" speed="13.89" length="16.80" shape="70.00,1.60 53.20,1.60"/>
    </edge>
    <edge id="gneE13" from="gneJ16" to="gneJ17" priority="1">
        <lane id="gneE13_0" index="0" speed="13.89" length="16.80" shape="51.60,3.20 51.60,20.00"/>
    </edge>
    <edge id="gneE14" from="gneJ17" to="gneJ18" priority="1">
        <lane id="gneE14_0" index="0" speed="13.89" length="16.80" shape="51.60,20.00 51.60,36.80"/>
    </edge>
    <edge id="gneE15" from="gneJ18" to="gneJ11" priority="1">
        <lane id="gneE15_0" index="0" speed="13.89" length="16.80" shape="53.20,38.40 70.00,38.40"/>
    </edge>
    <edge id="gneE8" from="gneJ11" to="gneJ12" priority="1">
        <lane id="gneE8_0" index="0" speed="13.89" length="16.80" shape="70.00,38.40 86.80,38.40"/>
    </edge>
    <edge id="gneE9" from="gneJ12" to="gneJ13" priority="1">
        <lane id="gneE9_0" index="0" speed="13.89" length="16.80" shape="88.40,36.80 88.40,20.00"/>
    </edge>

    <junction id="gneJ1" type="dead_end" x="20.00" y="60.00" incLanes="" intLanes="" shape="20.00,60.00"/>
    <junction id="gneJ11" type="priority" x="70.00" y="40.00" incLanes="-gneE8_0 gneE15_0" intLanes=":gneJ11_0_0 :gneJ11_1_0" shape="70.00,43.20 70.00,36.80 70.00,43.20">
        <request index="0" response="00" foes="00" cont="0"/>
        <request index="1" response="00" foes="00" cont="0"/>
    </junction>
    <junction id="gneJ12" type="priority" x="90.00" y="40.00" incLanes="-gneE9_0 gneE8_0" intLanes=":gneJ12_0_0 :gneJ12_1_0" shape="93.20,36.80 86.80,36.80 86.80,43.20 90.36,42.49 91.60,41.60 92.49,40.36 93.02,38.76">
        <request index="0" response="00" foes="00" cont="0"/>
        <request index="1" response="00" foes="00" cont="0"/>
    </junction>
    <junction id="gneJ13" type="priority" x="90.00" y="20.00" incLanes="gneE9_0 -gneE10_0" intLanes=":gneJ13_0_0 :gneJ13_1_0" shape="86.80,20.00 93.20,20.00 86.80,20.00">
        <request index="0" response="00" foes="00" cont="0"/>
        <request index="1" response="00" foes="00" cont="0"/>
    </junction>
    <junction id="gneJ14" type="priority" x="90.00" y="0.00" incLanes="gneE10_0 -gneE11_0" intLanes=":gneJ14_0_0 :gneJ14_1_0" shape="86.80,3.20 93.20,3.20 92.49,-0.36 91.60,-1.60 90.36,-2.49 88.76,-3.02 86.80,-3.20">
        <request index="0" response="00" foes="00" cont="0"/>
        <request index="1" response="00" foes="00" cont="0"/>
    </junction>
    <junction id="gneJ15" type="priority" x="70.00" y="0.00" incLanes="gneE11_0 -gneE12_0" intLanes=":gneJ15_0_0 :gneJ15_1_0" shape="70.00,3.20 70.00,-3.20 70.00,3.20">
        <request index="0" response="00" foes="00" cont="0"/>
        <request index="1" response="00" foes="00" cont="0"/>
    </junction>
    <junction id="gneJ16" type="priority" x="50.00" y="0.00" incLanes="-gneE13_0 gneE12_0" intLanes=":gneJ16_0_0 :gneJ16_1_0" shape="46.80,3.20 53.20,3.20 53.20,-3.20 49.64,-2.49 48.40,-1.60 47.51,-0.36 46.98,1.24">
        <request index="0" response="00" foes="00" cont="0"/>
        <request index="1" response="00" foes="00" cont="0"/>
    </junction>
    <junction id="gneJ17" type="priority" x="50.00" y="20.00" incLanes="-gneE14_0 gneE13_0" intLanes=":gneJ17_0_0 :gneJ17_1_0" shape="46.80,20.00 53.20,20.00 46.80,20.00">
        <request index="0" response="00" foes="00" cont="0"/>
        <request index="1" response="00" foes="00" cont="0"/>
    </junction>
    <junction id="gneJ18" type="priority" x="50.00" y="40.00" incLanes="-gneE15_0 gneE14_0" intLanes=":gneJ18_0_0 :gneJ18_1_0" shape="53.20,43.20 53.20,36.80 46.80,36.80 47.51,40.36 48.40,41.60 49.64,42.49 51.24,43.02">
        <request index="0" response="00" foes="00" cont="0"/>
        <request index="1" response="00" foes="00" cont="0"/>
    </junction>
    <junction id="gneJ3" type="dead_end" x="60.00" y="60.00" incLanes="" intLanes="" shape="60.00,60.00"/>
    <junction id="gneJ5" type="dead_end" x="100.00" y="60.00" incLanes="" intLanes="" shape="100.00,60.00"/>
    <junction id="gneJ7" type="dead_end" x="20.00" y="40.00" incLanes="" intLanes="" shape="20.00,40.00"/>
    <junction id="gneJ9" type="dead_end" x="0.00" y="20.00" incLanes="" intLanes="" shape="0.00,20.00"/>

    <connection from="-gneE10" to="-gneE9" fromLane="0" toLane="0" via=":gneJ13_1_0" dir="s" state="M"/>
    <connection from="-gneE11" to="-gneE10" fromLane="0" toLane="0" via=":gneJ14_1_0" dir="l" state="M"/>
    <connection from="-gneE12" to="-gneE11" fromLane="0" toLane="0" via=":gneJ15_1_0" dir="s" state="M"/>
    <connection from="-gneE13" to="-gneE12" fromLane="0" toLane="0" via=":gneJ16_0_0" dir="l" state="M"/>
    <connection from="-gneE14" to="-gneE13" fromLane="0" toLane="0" via=":gneJ17_0_0" dir="s" state="M"/>
    <connection from="-gneE15" to="-gneE14" fromLane="0" toLane="0" via=":gneJ18_0_0" dir="l" state="M"/>
    <connection from="-gneE8" to="-gneE15" fromLane="0" toLane="0" via=":gneJ11_0_0" dir="s" state="M"/>
    <connection from="-gneE9" to="-gneE8" fromLane="0" toLane="0" via=":gneJ12_0_0" dir="l" state="M"/>
    <connection from="gneE10" to="gneE11" fromLane="0" toLane="0" via=":gneJ14_0_0" dir="r" state="M"/>
    <connection from="gneE11" to="gneE12" fromLane="0" toLane="0" via=":gneJ15_0_0" dir="s" state="M"/>
    <connection from="gneE12" to="gneE13" fromLane="0" toLane="0" via=":gneJ16_1_0" dir="r" state="M"/>
    <connection from="gneE13" to="gneE14" fromLane="0" toLane="0" via=":gneJ17_1_0" dir="s" state="M"/>
    <connection from="gneE14" to="gneE15" fromLane="0" toLane="0" via=":gneJ18_1_0" dir="r" state="M"/>
    <connection from="gneE15" to="gneE8" fromLane="0" toLane="0" via=":gneJ11_1_0" dir="s" state="M"/>
    <connection from="gneE8" to="gneE9" fromLane="0" toLane="0" via=":gneJ12_1_0" dir="r" state="M"/>
    <connection from="gneE9" to="gneE10" fromLane="0" toLane="0" via=":gneJ13_0_0" dir="s" state="M"/>

    <connection from=":gneJ11_0" to="-gneE15" fromLane="0" toLane="0" dir="s" state="M"/>
    <connection from=":gneJ11_1" to="gneE8" fromLane="0" toLane="0" dir="s" state="M"/>
    <connection from=":gneJ12_0" to="-gneE8" fromLane="0" toLane="0" dir="l" state="M"/>
    <connection from=":gneJ12_1" to="gneE9" fromLane="0" toLane="0" dir="r" state="M"/>
    <connection from=":gneJ13_0" to="gneE10" fromLane="0" toLane="0" dir="s" state="M"/>
    <connection from=":gneJ13_1" to="-gneE9" fromLane="0" toLane="0" dir="s" state="M"/>
    <connection from=":gneJ14_0" to="gneE11" fromLane="0" toLane="0" dir="r" state="M"/>
    <connection from=":gneJ14_1" to="-gneE10" fromLane="0" toLane="0" dir="l" state="M"/>
    <connection from=":gneJ15_0" to="gneE12" fromLane="0" toLane="0" dir="s" state="M"/>
    <connection from=":gneJ15_1" to="-gneE11" fromLane="0" toLane="0" dir="s" state="M"/>
    <connection from=":gneJ16_0" to="-gneE12" fromLane="0" toLane="0" dir="l" state="M"/>
    <connection from=":gneJ16_1" to="gneE13" fromLane="0" toLane="0" dir="r" state="M"/>
    <connection from=":gneJ17_0" to="-gneE13" fromLane="0" toLane="0" dir="s" state="M"/>
    <connection from=":gneJ17_1" to="gneE14" fromLane="0" toLane="0" dir="s" state="M"/>
    <connection from=":gneJ18_0" to="-gneE14" fromLane="0" toLane="0" dir="l" state="M"/>
    <connection from=":gneJ18_1" to="gneE15" fromLane="0" toLane="0" dir="r" state="M"/>

</net>
