<?xml version="1.0" encoding="UTF-8"?>

<!-- generated on Wed 11 Nov 2015 02:21:36 PM CET by Netedit Version dev-SVN-r19316I
<?xml version="1.0" encoding="UTF-8"?>

<configuration xmlns:xsi="http://www.w3.org/2001/XMLSchema-instance" xsi:noNamespaceSchemaLocation="http://sumo.dlr.de/xsd/netedit.exeConfiguration.xsd">

    <input>
        <sumo-net-file value="net.net.xml"/>
    </input>

    <output>
        <output-file value="net.net.xml"/>
    </output>

    <processing>
        <no-internal-links value="true"/>
        <no-turnarounds value="true"/>
        <offset.disable-normalization value="true"/>
    </processing>

</configuration>
-->

<net version="0.13" xmlns:xsi="http://www.w3.org/2001/XMLSchema-instance" xsi:noNamespaceSchemaLocation="http://sumo.dlr.de/xsd/net_file.xsd">

    <location netOffset="0.00,0.00" convBoundary="0.00,0.00,200.00,0.00" origBoundary="-10000000000.00,-10000000000.00,10000000000.00,10000000000.00" projParameter="!"/>

    <edge id="-VODUGES_beg" from="E" to="W" priority="1">
        <lane id="-VODUGES_beg_0" index="0" speed="13.89" length="200.00" shape="200.00,1.65 0.00,1.65"/>
    </edge>
    <edge id="VODUGES_beg" from="W" to="E" priority="1">
        <lane id="VODUGES_beg_0" index="0" speed="13.89" length="200.00" shape="0.00,-1.65 200.00,-1.65"/>
    </edge>

    <junction id="E" type="dead_end" x="200.00" y="0.00" incLanes="VODUGES_beg_0" intLanes="" shape="200.00,0.05 200.00,3.25 200.00,-3.25 200.00,-0.05"/>
    <junction id="W" type="dead_end" x="0.00" y="0.00" incLanes="-VODUGES_beg_0" intLanes="" shape="0.00,-0.05 0.00,-3.25 0.00,3.25 0.00,0.05"/>

</net>
