<?xml version="1.0" encoding="UTF-8"?>
<!-- generated on 2022-06-08 07:11:39.588182 by route2OD.py v1_13_0+0588-020f56a
<configuration>
    <output-file value="od.xml"/>
    <route-file value="input_routes.rou.xml"/>
    <taz-files value="input_additional2.add.xml"/>
</configuration>

-->
<data xmlns:xsi="http://www.w3.org/2001/XMLSchema-instance" xsi:noNamespaceSchemaLocation="http://sumo.dlr.de/xsd/datamode_file.xsd">
</data>
