<?xml version="1.0" encoding="UTF-8"?>

<!-- generated on Tue Feb 19 09:11:14 2019 by Eclipse SUMO netconvert Version v1_1_0+0919-80296dbfce
<configuration xmlns:xsi="http://www.w3.org/2001/XMLSchema-instance" xsi:noNamespaceSchemaLocation="http://sumo.dlr.de/xsd/netconvertConfiguration.xsd">

    <input>
        <node-files value=".\netedit\netElements\edges\load\numlanes\input_net.nod.xml"/>
        <edge-files value=".\netedit\netElements\edges\load\numlanes\input_net.edg.xml"/>
        <connection-files value=".\netedit\netElements\edges\load\numlanes\input_net.con.xml"/>
    </input>

    <output>
        <output-file value=".\netedit\netElements\edges\load\numlanes\input_net.net.xml"/>
    </output>

    <report>
        <verbose value="true"/>
    </report>

</configuration>
-->

<net version="1.1" junctionCornerDetail="5" limitTurnSpeed="5.50" xmlns:xsi="http://www.w3.org/2001/XMLSchema-instance" xsi:noNamespaceSchemaLocation="http://sumo.dlr.de/xsd/net_file.xsd">

    <location netOffset="0.00,-50.00" convBoundary="0.00,0.00,50.00,0.00" origBoundary="-10000000000.00,-10000000000.00,10000000000.00,10000000000.00" projParameter="!"/>

    <edge id="gneE12" from="gneJ21" to="gneJ22" priority="-1">
        <lane id="gneE12_0" index="0" speed="13.89" length="50.00" shape="0.00,-4.80 50.00,-4.80"/>
        <lane id="gneE12_1" index="1" speed="13.89" length="50.00" shape="0.00,-1.60 50.00,-1.60"/>
    </edge>
    <edge id="gneE13" from="gneJ22" to="gneJ21" priority="-1">
        <lane id="gneE13_0" index="0" speed="13.89" length="50.00" shape="50.00,11.20 0.00,11.20"/>
        <lane id="gneE13_1" index="1" speed="13.89" length="50.00" shape="50.00,8.00 0.00,8.00"/>
        <lane id="gneE13_2" index="2" speed="13.89" length="50.00" shape="50.00,4.80 0.00,4.80"/>
        <lane id="gneE13_3" index="3" speed="13.89" length="50.00" shape="50.00,1.60 0.00,1.60"/>
    </edge>

    <junction id="gneJ21" type="dead_end" x="0.00" y="0.00" incLanes="gneE13_0 gneE13_1 gneE13_2 gneE13_3" intLanes="" shape="0.00,0.00 0.00,12.80 0.00,0.00"/>
    <junction id="gneJ22" type="dead_end" x="50.00" y="0.00" incLanes="gneE12_0 gneE12_1" intLanes="" shape="50.00,0.00 50.00,-6.40 50.00,0.00"/>

</net>
