<?xml version="1.0" encoding="UTF-8"?>

<!-- generated on Wed Apr 17 09:47:43 2019 by Eclipse SUMO od2trips Version UNKNOWN
This data file and the accompanying materials
are made available under the terms of the Eclipse Public License v2.0
which accompanies this distribution, and is available at
http://www.eclipse.org/legal/epl-v20.html
SPDX-License-Identifier: EPL-2.0
<configuration xmlns:xsi="http://www.w3.org/2001/XMLSchema-instance" xsi:noNamespaceSchemaLocation="http://sumo.dlr.de/xsd/od2tripsConfiguration.xsd">

    <input>
        <taz-files value="input_taz.taz.xml"/>
        <od-amitran-files value="input_od.xml"/>
    </input>

    <output>
        <write-license value="true"/>
        <flow-output value="trips.trips.xml"/>
        <persontrips value="true"/>
    </output>

    <processing>
        <spread.uniform value="true"/>
        <no-step-log value="true"/>
    </processing>

    <report>
        <xml-validation value="never"/>
    </report>

</configuration>
-->

<routes xmlns:xsi="http://www.w3.org/2001/XMLSchema-instance" xsi:noNamespaceSchemaLocation="http://sumo.dlr.de/xsd/routes_file.xsd">
    <personFlow id="0" begin="0" end="86400000" number="100">
        <personTrip from="1" to="2" arrivalPos="random"/>
    </personFlow>
</routes>
