<trips>
    <vType id="0"/>
	<trip depart="0" from="beg" to="rend" type="0"/>
	<trip depart="0" from="beg" to="rend" type="0"/>
	<trip depart="0" from="beg" to="rend" type="0"/>
	<trip depart="0" from="beg" to="rend" type="0"/>
	<trip depart="0" from="beg" to="rend" type="0"/>
	<trip depart="0" from="beg" to="rend" type="0"/>
	<trip depart="0" from="beg" to="rend" type="0"/>
	<trip depart="0" from="beg" to="rend" type="0"/>
	<trip depart="0" from="beg" to="rend" type="0"/>
	<trip depart="0" from="beg" to="rend" type="0"/>
</trips>
