<?xml version="1.0" encoding="UTF-8"?>

<!-- generated on 2021-09-16 13:09:50 by Eclipse SUMO netedit Version v1_10_0+0721-94326db740
<configuration xmlns:xsi="http://www.w3.org/2001/XMLSchema-instance" xsi:noNamespaceSchemaLocation="http://sumo.dlr.de/xsd/netconvertConfiguration.xsd">

    <input>
        <sumo-net-file value="C:\Users\SUMO-Test\.texttest\tmp\netedit.gui.16Sep123546.5868\netedit.gui\demandElements\vehicletype\load\carfollowingmodel_params\tmp1\input_net.net.xml"/>
    </input>

    <output>
        <output-file value="C:\Users\SUMO-Test\.texttest\tmp\netedit.gui.16Sep123546.5868\netedit.gui\demandElements\vehicletype\load\carfollowingmodel_params\tmp1\net.net.xml"/>
    </output>

    <processing>
        <geometry.min-radius.fix.railways value="false"/>
        <geometry.max-grade.fix value="false"/>
        <offset.disable-normalization value="true"/>
        <lefthand value="false"/>
    </processing>

    <junctions>
        <no-turnarounds value="true"/>
        <junctions.corner-detail value="5"/>
        <junctions.limit-turn-speed value="5.5"/>
        <rectangular-lane-cut value="false"/>
    </junctions>

    <pedestrian>
        <walkingareas value="false"/>
    </pedestrian>

    <netedit>
        <additional-files value="C:\Users\SUMO-Test\.texttest\tmp\netedit.gui.16Sep123546.5868\netedit.gui\demandElements\vehicletype\load\carfollowingmodel_params\tmp1\additionals.xml"/>
        <additionals-output value="C:\Users\SUMO-Test\.texttest\tmp\netedit.gui.16Sep123546.5868\netedit.gui\demandElements\vehicletype\load\carfollowingmodel_params\tmp1\additionals.xml"/>
        <route-files value="C:\Users\SUMO-Test\.texttest\tmp\netedit.gui.16Sep123546.5868\netedit.gui\demandElements\vehicletype\load\carfollowingmodel_params\tmp1\routes.xml"/>
        <demandelements-output value="C:\Users\SUMO-Test\.texttest\tmp\netedit.gui.16Sep123546.5868\netedit.gui\demandElements\vehicletype\load\carfollowingmodel_params\tmp1\routes.xml"/>
        <data-files value="C:\Users\SUMO-Test\.texttest\tmp\netedit.gui.16Sep123546.5868\netedit.gui\demandElements\vehicletype\load\carfollowingmodel_params\tmp1\datas.xml"/>
        <dataelements-output value="C:\Users\SUMO-Test\.texttest\tmp\netedit.gui.16Sep123546.5868\netedit.gui\demandElements\vehicletype\load\carfollowingmodel_params\tmp1\datas.xml"/>
    </netedit>

    <visualisation>
        <gui-settings-file value="C:\Users\SUMO-Test\.texttest\tmp\netedit.gui.16Sep123546.5868\netedit.gui\demandElements\vehicletype\load\carfollowingmodel_params\tmp1\gui-settings.xml"/>
        <window-size value="936,697"/>
        <window-pos value="50,50"/>
        <gui-testing value="true"/>
        <gui-testing-debug value="true"/>
        <gui-testing-debug-gl value="true"/>
        <gui-testing.setting-output value="C:\Users\SUMO-Test\.texttest\tmp\netedit.gui.16Sep123546.5868\netedit.gui\demandElements\vehicletype\load\carfollowingmodel_params\tmp1\guisettingsoutput.xml"/>
    </visualisation>

    <report>
        <no-warnings value="true"/>
        <aggregate-warnings value="5"/>
        <error-log value="C:\Users\SUMO-Test\.texttest\tmp\netedit.gui.16Sep123546.5868\netedit.gui\demandElements\vehicletype\load\carfollowingmodel_params\tmp1\log.txt"/>
    </report>

</configuration>
-->

<routes xmlns:xsi="http://www.w3.org/2001/XMLSchema-instance" xsi:noNamespaceSchemaLocation="http://sumo.dlr.de/xsd/routes_file.xsd">
    <vType id="vType1" carFollowModel="Daniel1" tmp1="-3"/>
    <vType id="vType2" carFollowModel="Daniel1" tmp1="0"/>
    <vType id="vType3" carFollowModel="Daniel1" tmp1="12"/>
    <vType id="vType4" carFollowModel="Daniel1" tmp1="4.5"/>
</routes>
