<?xml version="1.0" encoding="UTF-8"?>

<!-- generated on Wed Mar 29 17:27:51 2017 by SUMO netconvert Version dev-SVN-r23697
<?xml version="1.0" encoding="UTF-8"?>

<configuration xmlns:xsi="http://www.w3.org/2001/XMLSchema-instance" xsi:noNamespaceSchemaLocation="http://sumo.dlr.de/xsd/netconvertConfiguration.xsd">

    <input>
        <sumo-net-file value="input_net.net.xml"/>
    </input>

    <output>
        <output-file value="net.net.xml"/>
        <opendrive-output value="foreign.net"/>
        <output.original-names value="true"/>
    </output>

    <processing>
        <no-internal-links value="false"/>
        <no-turnarounds value="true"/>
        <offset.disable-normalization value="true"/>
        <lefthand value="false"/>
        <junctions.corner-detail value="0"/>
        <junctions.scurve-stretch value="1"/>
        <rectangular-lane-cut value="true"/>
    </processing>

    <report>
        <xml-validation value="never"/>
    </report>

</configuration>
-->

<net version="0.27" rectangularLaneCut="true" xmlns:xsi="http://www.w3.org/2001/XMLSchema-instance" xsi:noNamespaceSchemaLocation="http://sumo.dlr.de/xsd/net_file.xsd">

    <location netOffset="1000.00,0.00" convBoundary="-100.00,0.00,2000.00,100.00" origBoundary="-1000.00,0.00,1000.00,100.00" projParameter="!"/>

    <edge id=":1_0" function="internal">
        <lane id=":1_0_0" index="0" speed="30.00" length="58.75" shape="29.34,8.25 -29.34,4.95"/>
        <lane id=":1_0_1" index="1" speed="30.00" length="58.75" shape="29.34,4.95 -29.34,1.65"/>
        <lane id=":1_0_2" index="2" speed="30.00" length="58.75" shape="29.34,1.65 -29.34,1.65"/>
    </edge>
    <edge id=":2_0" function="internal">
        <lane id=":2_0_0" index="0" speed="30.00" length="7.33" shape="507.57,11.55 505.41,11.65 503.96,11.96 502.54,12.45 500.47,13.13"/>
    </edge>
    <edge id=":2_1" function="internal">
        <lane id=":2_1_0" index="0" speed="30.00" length="3.12" shape="507.57,8.25 504.44,8.25"/>
        <lane id=":2_1_1" index="1" speed="30.00" length="3.12" shape="507.57,4.95 504.44,4.95"/>
        <lane id=":2_1_2" index="2" speed="30.00" length="3.12" shape="507.57,1.65 504.44,1.65"/>
    </edge>
    <edge id=":3_0" function="internal">
        <lane id=":3_0_0" index="0" speed="30.00" length="0.30" shape="1000.15,8.25 999.85,8.25"/>
        <lane id=":3_0_1" index="1" speed="30.00" length="0.30" shape="1000.15,4.95 999.85,4.95"/>
        <lane id=":3_0_2" index="2" speed="30.00" length="0.30" shape="1000.15,1.65 999.85,1.65"/>
    </edge>
    <edge id=":4_0" function="internal">
        <lane id=":4_0_0" index="0" speed="30.00" length="7.33" shape="1499.53,13.13 1497.46,12.45 1496.04,11.96 1494.59,11.65 1492.43,11.55"/>
    </edge>
    <edge id=":4_1" function="internal">
        <lane id=":4_1_0" index="0" speed="30.00" length="3.12" shape="1495.56,8.25 1492.43,8.25"/>
        <lane id=":4_1_1" index="1" speed="30.00" length="3.12" shape="1495.56,4.95 1492.43,4.95"/>
        <lane id=":4_1_2" index="2" speed="30.00" length="3.12" shape="1495.56,1.65 1492.43,1.65"/>
    </edge>
    <edge id=":s2-AddedOnRampNode_0" function="internal">
        <lane id=":s2-AddedOnRampNode_0_0" index="0" speed="30.00" length="3.00" shape="1401.50,8.25 1398.50,8.25"/>
        <lane id=":s2-AddedOnRampNode_0_1" index="1" speed="30.00" length="3.00" shape="1401.50,4.95 1398.50,4.95"/>
        <lane id=":s2-AddedOnRampNode_0_2" index="2" speed="30.00" length="3.00" shape="1401.50,1.65 1398.50,1.65"/>
    </edge>
    <edge id=":s3-AddedOffRampNode_0" function="internal">
        <lane id=":s3-AddedOffRampNode_0_0" index="0" speed="30.00" length="58.71" shape="629.34,8.25 570.66,11.55"/>
        <lane id=":s3-AddedOffRampNode_0_1" index="1" speed="30.00" length="58.71" shape="629.34,8.25 570.66,8.25"/>
        <lane id=":s3-AddedOffRampNode_0_2" index="2" speed="30.00" length="58.71" shape="629.34,4.95 570.66,4.95"/>
        <lane id=":s3-AddedOffRampNode_0_3" index="3" speed="30.00" length="58.71" shape="629.34,1.65 570.66,1.65"/>
    </edge>

    <edge id="gneE0" from="1" to="gneJ0" priority="1" shape="-29.34,0.00 -100.00,0.00">
        <lane id="gneE0_0" index="0" speed="30.00" length="70.66" shape="-29.34,4.95 -100.00,4.95"/>
        <lane id="gneE0_1" index="1" speed="30.00" length="70.66" shape="-29.34,1.65 -100.00,1.65"/>
    </edge>
    <edge id="off" from="2" to="2a" priority="-1" shape="500.00,11.55 200.00,100.00">
        <lane id="off_0" index="0" speed="30.00" length="312.77" shape="500.47,13.13 200.47,101.58"/>
    </edge>
    <edge id="on" from="4a" to="4" priority="-1" shape="1800.00,100.00 1500.00,11.55">
        <lane id="on_0" index="0" speed="30.00" length="312.77" shape="1799.53,101.58 1499.53,13.13"/>
    </edge>
    <edge id="s1" from="5" to="4" priority="-1">
        <lane id="s1_0" index="0" speed="30.00" length="504.44" shape="2000.00,8.25 1495.56,8.25"/>
        <lane id="s1_1" index="1" speed="30.00" length="504.44" shape="2000.00,4.95 1495.56,4.95"/>
        <lane id="s1_2" index="2" speed="30.00" length="504.44" shape="2000.00,1.65 1495.56,1.65"/>
    </edge>
    <edge id="s2" from="s2-AddedOnRampNode" to="3" priority="-1">
        <lane id="s2_0" index="0" speed="30.00" length="398.35" shape="1398.50,8.25 1000.15,8.25"/>
        <lane id="s2_1" index="1" speed="30.00" length="398.35" shape="1398.50,4.95 1000.15,4.95"/>
        <lane id="s2_2" index="2" speed="30.00" length="398.35" shape="1398.50,1.65 1000.15,1.65"/>
    </edge>
    <edge id="s2-AddedOnRampEdge" from="4" to="s2-AddedOnRampNode" priority="-1">
        <lane id="s2-AddedOnRampEdge_0" index="0" speed="30.00" length="90.93" shape="1492.43,11.55 1401.50,11.55"/>
        <lane id="s2-AddedOnRampEdge_1" index="1" speed="30.00" length="90.93" shape="1492.43,8.25 1401.50,8.25"/>
        <lane id="s2-AddedOnRampEdge_2" index="2" speed="30.00" length="90.93" shape="1492.43,4.95 1401.50,4.95"/>
        <lane id="s2-AddedOnRampEdge_3" index="3" speed="30.00" length="90.93" shape="1492.43,1.65 1401.50,1.65"/>
    </edge>
    <edge id="s3" from="3" to="s3-AddedOffRampNode" priority="-1" shape="1000.00,0.00 629.34,0.00">
        <lane id="s3_0" index="0" speed="30.00" length="370.51" shape="999.85,8.25 629.34,8.25"/>
        <lane id="s3_1" index="1" speed="30.00" length="370.51" shape="999.85,4.95 629.34,4.95"/>
        <lane id="s3_2" index="2" speed="30.00" length="370.51" shape="999.85,1.65 629.34,1.65"/>
    </edge>
    <edge id="s3-AddedOffRampEdge" from="s3-AddedOffRampNode" to="2" priority="-1" shape="570.66,0.00 500.00,0.00">
        <lane id="s3-AddedOffRampEdge_0" index="0" speed="30.00" length="63.09" shape="570.66,11.55 507.57,11.55"/>
        <lane id="s3-AddedOffRampEdge_1" index="1" speed="30.00" length="63.09" shape="570.66,8.25 507.57,8.25"/>
        <lane id="s3-AddedOffRampEdge_2" index="2" speed="30.00" length="63.09" shape="570.66,4.95 507.57,4.95"/>
        <lane id="s3-AddedOffRampEdge_3" index="3" speed="30.00" length="63.09" shape="570.66,1.65 507.57,1.65"/>
    </edge>
    <edge id="s4" from="2" to="1" priority="-1" shape="500.00,0.00 29.34,0.00">
        <lane id="s4_0" index="0" speed="30.00" length="475.10" shape="504.44,8.25 29.34,8.25"/>
        <lane id="s4_1" index="1" speed="30.00" length="475.10" shape="504.44,4.95 29.34,4.95"/>
        <lane id="s4_2" index="2" speed="30.00" length="475.10" shape="504.44,1.65 29.34,1.65"/>
    </edge>

    <junction id="1" type="zipper" x="0.00" y="0.00" incLanes="s4_0 s4_1 s4_2" intLanes=":1_0_0 :1_0_1 :1_0_2" shape="29.34,9.85 29.34,0.05 -29.34,0.05 -29.34,6.55">
        <request index="0" response="000" foes="000" cont="0"/>
        <request index="1" response="100" foes="100" cont="0"/>
        <request index="2" response="010" foes="010" cont="0"/>
    </junction>
    <junction id="2" type="priority" x="500.00" y="0.00" incLanes="s3-AddedOffRampEdge_0 s3-AddedOffRampEdge_1 s3-AddedOffRampEdge_2 s3-AddedOffRampEdge_3" intLanes=":2_0_0 :2_1_0 :2_1_1 :2_1_2" shape="507.57,13.15 507.57,0.05 504.44,0.05 504.44,9.85 500.01,11.60 500.92,14.67">
        <request index="0" response="0000" foes="0000" cont="0"/>
        <request index="1" response="0000" foes="0000" cont="0"/>
        <request index="2" response="0000" foes="0000" cont="0"/>
        <request index="3" response="0000" foes="0000" cont="0"/>
    </junction>
    <junction id="2a" type="dead_end" x="200.00" y="100.00" incLanes="off_0" intLanes="" shape="200.92,103.12 200.01,100.05"/>
    <junction id="3" type="priority" x="1000.00" y="0.00" incLanes="s2_0 s2_1 s2_2" intLanes=":3_0_0 :3_0_1 :3_0_2" shape="1000.15,9.85 1000.15,0.05 999.85,0.05 999.85,9.85">
        <request index="0" response="000" foes="000" cont="0"/>
        <request index="1" response="000" foes="000" cont="0"/>
        <request index="2" response="000" foes="000" cont="0"/>
    </junction>
    <junction id="4" type="priority" x="1500.00" y="0.00" incLanes="on_0 s1_0 s1_1 s1_2" intLanes=":4_0_0 :4_1_0 :4_1_1 :4_1_2" shape="1499.08,14.67 1499.99,11.60 1495.56,9.85 1495.56,0.05 1492.43,0.05 1492.43,13.15">
        <request index="0" response="0000" foes="0000" cont="0"/>
        <request index="1" response="0000" foes="0000" cont="0"/>
        <request index="2" response="0000" foes="0000" cont="0"/>
        <request index="3" response="0000" foes="0000" cont="0"/>
    </junction>
    <junction id="4a" type="dead_end" x="1800.00" y="100.00" incLanes="" intLanes="" shape="1799.99,100.05 1799.08,103.12"/>
    <junction id="5" type="dead_end" x="2000.00" y="0.00" incLanes="" intLanes="" shape="2000.00,0.05 2000.00,9.85"/>
    <junction id="gneJ0" type="dead_end" x="-100.00" y="0.00" incLanes="gneE0_0 gneE0_1" intLanes="" shape="-100.00,6.55 -100.00,0.05"/>
    <junction id="s2-AddedOnRampNode" type="priority" x="1400.00" y="0.00" incLanes="s2-AddedOnRampEdge_0 s2-AddedOnRampEdge_1 s2-AddedOnRampEdge_2 s2-AddedOnRampEdge_3" intLanes=":s2-AddedOnRampNode_0_0 :s2-AddedOnRampNode_0_1 :s2-AddedOnRampNode_0_2" shape="1401.50,13.15 1401.50,0.05 1398.50,0.05 1398.50,9.85">
        <request index="0" response="000" foes="000" cont="0"/>
        <request index="1" response="000" foes="000" cont="0"/>
        <request index="2" response="000" foes="000" cont="0"/>
    </junction>
    <junction id="s3-AddedOffRampNode" type="priority" x="600.00" y="0.00" incLanes="s3_0 s3_1 s3_2" intLanes=":s3-AddedOffRampNode_0_0 :s3-AddedOffRampNode_0_1 :s3-AddedOffRampNode_0_2 :s3-AddedOffRampNode_0_3" shape="629.34,9.85 629.34,0.05 570.66,0.05 570.66,13.15">
        <request index="0" response="0000" foes="0000" cont="0"/>
        <request index="1" response="0000" foes="0000" cont="0"/>
        <request index="2" response="0000" foes="0000" cont="0"/>
        <request index="3" response="0000" foes="0000" cont="0"/>
    </junction>

    <connection from="on" to="s2-AddedOnRampEdge" fromLane="0" toLane="0" pass="1" via=":4_0_0" dir="s" state="M"/>
    <connection from="s1" to="s2-AddedOnRampEdge" fromLane="0" toLane="1" pass="1" via=":4_1_0" dir="s" state="M"/>
    <connection from="s1" to="s2-AddedOnRampEdge" fromLane="1" toLane="2" pass="1" via=":4_1_1" dir="s" state="M"/>
    <connection from="s1" to="s2-AddedOnRampEdge" fromLane="2" toLane="3" pass="1" via=":4_1_2" dir="s" state="M"/>
    <connection from="s2" to="s3" fromLane="0" toLane="0" via=":3_0_0" dir="s" state="M"/>
    <connection from="s2" to="s3" fromLane="1" toLane="1" via=":3_0_1" dir="s" state="M"/>
    <connection from="s2" to="s3" fromLane="2" toLane="2" via=":3_0_2" dir="s" state="M"/>
    <connection from="s2-AddedOnRampEdge" to="s2" fromLane="1" toLane="0" via=":s2-AddedOnRampNode_0_0" dir="s" state="M"/>
    <connection from="s2-AddedOnRampEdge" to="s2" fromLane="2" toLane="1" via=":s2-AddedOnRampNode_0_1" dir="s" state="M"/>
    <connection from="s2-AddedOnRampEdge" to="s2" fromLane="3" toLane="2" via=":s2-AddedOnRampNode_0_2" dir="s" state="M"/>
    <connection from="s3" to="s3-AddedOffRampEdge" fromLane="0" toLane="0" via=":s3-AddedOffRampNode_0_0" dir="s" state="M"/>
    <connection from="s3" to="s3-AddedOffRampEdge" fromLane="0" toLane="1" via=":s3-AddedOffRampNode_0_1" dir="s" state="M"/>
    <connection from="s3" to="s3-AddedOffRampEdge" fromLane="1" toLane="2" via=":s3-AddedOffRampNode_0_2" dir="s" state="M"/>
    <connection from="s3" to="s3-AddedOffRampEdge" fromLane="2" toLane="3" via=":s3-AddedOffRampNode_0_3" dir="s" state="M"/>
    <connection from="s3-AddedOffRampEdge" to="off" fromLane="0" toLane="0" via=":2_0_0" dir="s" state="M"/>
    <connection from="s3-AddedOffRampEdge" to="s4" fromLane="1" toLane="0" via=":2_1_0" dir="s" state="M"/>
    <connection from="s3-AddedOffRampEdge" to="s4" fromLane="2" toLane="1" via=":2_1_1" dir="s" state="M"/>
    <connection from="s3-AddedOffRampEdge" to="s4" fromLane="3" toLane="2" via=":2_1_2" dir="s" state="M"/>
    <connection from="s4" to="gneE0" fromLane="0" toLane="0" via=":1_0_0" dir="s" state="M"/>
    <connection from="s4" to="gneE0" fromLane="1" toLane="1" via=":1_0_1" dir="s" state="Z"/>
    <connection from="s4" to="gneE0" fromLane="2" toLane="1" via=":1_0_2" dir="s" state="Z"/>

    <connection from=":1_0" to="gneE0" fromLane="0" toLane="0" dir="s" state="M"/>
    <connection from=":1_0" to="gneE0" fromLane="1" toLane="1" dir="s" state="M"/>
    <connection from=":1_0" to="gneE0" fromLane="2" toLane="1" dir="s" state="M"/>
    <connection from=":2_0" to="off" fromLane="0" toLane="0" dir="s" state="M"/>
    <connection from=":2_1" to="s4" fromLane="0" toLane="0" dir="s" state="M"/>
    <connection from=":2_1" to="s4" fromLane="1" toLane="1" dir="s" state="M"/>
    <connection from=":2_1" to="s4" fromLane="2" toLane="2" dir="s" state="M"/>
    <connection from=":3_0" to="s3" fromLane="0" toLane="0" dir="s" state="M"/>
    <connection from=":3_0" to="s3" fromLane="1" toLane="1" dir="s" state="M"/>
    <connection from=":3_0" to="s3" fromLane="2" toLane="2" dir="s" state="M"/>
    <connection from=":4_0" to="s2-AddedOnRampEdge" fromLane="0" toLane="0" dir="s" state="M"/>
    <connection from=":4_1" to="s2-AddedOnRampEdge" fromLane="0" toLane="1" dir="s" state="M"/>
    <connection from=":4_1" to="s2-AddedOnRampEdge" fromLane="1" toLane="2" dir="s" state="M"/>
    <connection from=":4_1" to="s2-AddedOnRampEdge" fromLane="2" toLane="3" dir="s" state="M"/>
    <connection from=":s2-AddedOnRampNode_0" to="s2" fromLane="0" toLane="0" dir="s" state="M"/>
    <connection from=":s2-AddedOnRampNode_0" to="s2" fromLane="1" toLane="1" dir="s" state="M"/>
    <connection from=":s2-AddedOnRampNode_0" to="s2" fromLane="2" toLane="2" dir="s" state="M"/>
    <connection from=":s3-AddedOffRampNode_0" to="s3-AddedOffRampEdge" fromLane="0" toLane="0" dir="s" state="M"/>
    <connection from=":s3-AddedOffRampNode_0" to="s3-AddedOffRampEdge" fromLane="1" toLane="1" dir="s" state="M"/>
    <connection from=":s3-AddedOffRampNode_0" to="s3-AddedOffRampEdge" fromLane="2" toLane="2" dir="s" state="M"/>
    <connection from=":s3-AddedOffRampNode_0" to="s3-AddedOffRampEdge" fromLane="3" toLane="3" dir="s" state="M"/>

</net>
