<routes>

	<vehicle id="1" depart="0" route="1" departPos="free" departSpeed="10"/>
	<vehicle id="2" depart="0" route="1" departPos="free" departSpeed="10"/>
	<vehicle id="3" depart="0" route="1" departPos="free" departSpeed="10"/>

</routes>
