<?xml version="1.0"?>

<!-- generated on 03/18/10 14:24:04 by SUMO duarouter Version dev-SVN-r8460
<configuration>

    <input>
        <net-file value="input_net.net.xml"/>
        <flow-definition value="input_flows.flows.xml"/>
    </input>

    <output>
        <output-file value="routes.rou.xml"/>
    </output>

</configuration>
-->

<routes>
   <vtype id="0" vclass="passenger"/>
    <vehicle id="0_0" type="0" depart="0.00">
        <route edges="absBeg middle end absEnd"/>
    </vehicle>
</routes>
