<?xml version="1.0" encoding="UTF-8"?>

<!-- generated on 26.06.2018 14:58:17 by Eclipse SUMO netedit Version 88bb7b0b92
<configuration xmlns:xsi="http://www.w3.org/2001/XMLSchema-instance" xsi:noNamespaceSchemaLocation="http://sumo.dlr.de/xsd/netconvertConfiguration.xsd">

    <input>
        <sumo-additionals-file value="C:/Users/SUMO-Test/.texttest/tmp/netedit.gui.26Jun145422.948/netedit.gui/additionalElements/busstop/delete\input_additionals.add.xml"/>
        <sumo-net-file value="C:/Users/SUMO-Test/.texttest/tmp/netedit.gui.26Jun145422.948/netedit.gui/additionalElements/busstop/delete\input_net.net.xml"/>
    </input>

    <output>
        <additionals-output value="C:/Users/SUMO-Test/.texttest/tmp/netedit.gui.26Jun145422.948/netedit.gui/additionalElements/busstop/delete\additionals.xml"/>
        <shapes-output value="C:/Users/SUMO-Test/.texttest/tmp/netedit.gui.26Jun145422.948/netedit.gui/additionalElements/busstop/delete\shapes.xml"/>
        <output-file value="C:/Users/SUMO-Test/.texttest/tmp/netedit.gui.26Jun145422.948/netedit.gui/additionalElements/busstop/delete\net.net.xml"/>
    </output>

    <processing>
        <no-turnarounds value="true"/>
        <offset.disable-normalization value="true"/>
        <lefthand value="false"/>
        <junctions.corner-detail value="5"/>
        <rectangular-lane-cut value="false"/>
        <walkingareas value="false"/>
    </processing>

    <visualisation>
        <gui-settings-file value="C:/Users/SUMO-Test/.texttest/tmp/netedit.gui.26Jun145422.948/netedit.gui/additionalElements/busstop/delete\gui-settings.xml"/>
        <window-size value="700,500"/>
        <window-pos value="50,50"/>
        <gui-testing value="true"/>
        <gui-testing-debug value="true"/>
    </visualisation>

    <report>
        <no-warnings value="true"/>
        <error-log value="C:/Users/SUMO-Test/.texttest/tmp/netedit.gui.26Jun145422.948/netedit.gui/additionalElements/busstop/delete\log.txt"/>
    </report>

</configuration>
-->

<net version="0.27" junctionCornerDetail="5" xmlns:xsi="http://www.w3.org/2001/XMLSchema-instance" xsi:noNamespaceSchemaLocation="http://sumo.dlr.de/xsd/net_file.xsd">

    <location netOffset="25.00,0.00" convBoundary="0.00,0.00,50.00,0.00" origBoundary="-10000000000.00,-10000000000.00,10000000000.00,10000000000.00" projParameter="!"/>

    <edge id="gneE0" from="gneJ0" to="gneJ1" priority="1">
        <lane id="gneE0_0" index="0" speed="13.89" length="50.00" shape="0.00,-1.60 50.00,-1.60"/>
    </edge>

    <junction id="gneJ0" type="dead_end" x="0.00" y="0.00" incLanes="" intLanes="" shape="0.00,0.00 0.00,-3.20"/>
    <junction id="gneJ1" type="dead_end" x="50.00" y="0.00" incLanes="gneE0_0" intLanes="" shape="50.00,-3.20 50.00,0.00"/>

</net>
