<?xml version="1.0" encoding="UTF-8"?>

<!-- generated on 17.07.2019 12:52:39 by Eclipse SUMO netedit Version v1_2_0+1261-4ef77299f0
<configuration xmlns:xsi="http://www.w3.org/2001/XMLSchema-instance" xsi:noNamespaceSchemaLocation="http://sumo.dlr.de/xsd/netconvertConfiguration.xsd">

    <input>
        <sumo-net-file value="D:\sumo\tests\netedit\demandElements\route\load\input_net.net.xml"/>
    </input>

    <output>
        <output-file value="D:\sumo\tests\netedit\demandElements\route\load\input_net.net.xml"/>
    </output>

    <processing>
        <geometry.max-grade.fix value="false"/>
        <offset.disable-normalization value="true"/>
        <lefthand value="false"/>
    </processing>

    <junctions>
        <no-turnarounds value="true"/>
        <junctions.corner-detail value="5"/>
        <junctions.limit-turn-speed value="5.5"/>
        <rectangular-lane-cut value="false"/>
    </junctions>

    <pedestrian>
        <walkingareas value="false"/>
    </pedestrian>

    <netedit>
        <route-files value="D:\sumo\tests\netedit\demandElements\route\load\color\input_routes.rou.xml"/>
    </netedit>

</configuration>
-->

<routes xmlns:xsi="http://www.w3.org/2001/XMLSchema-instance" xsi:noNamespaceSchemaLocation="http://sumo.dlr.de/xsd/routes_file.xsd">
  <route edges="gneE2 gneE4 gneE5" color="yellow" id="route_0">
    <!-- generic parameter -->
    <param key="key1" value="value1"/>

    <!-- empty key -->
    <param value="value2"/>

    <!-- invalid key -->
    <param key="$$key with spaces%%" value="value3"/>

    <!-- duplicated key -->
    <param key="key1" value="value4"/>

    <!-- empty value -->
    <param key="key2"/>

    <!-- invalid value -->
    <param key="key3" value="$$value with spaces%%"/>

    <!-- invalid value -->
    <param key="key4" value="value5"/>

    <!-- empty generic parameter -->
    <param/>
  </route>
</routes>
