<?xml version="1.0" encoding="UTF-8"?>

<!-- generated on Wed Sep 28 13:45:04 2016 by SUMO netgenerate Version dev-SVN-r21560
<?xml version="1.0" encoding="UTF-8"?>

<configuration xmlns:xsi="http://www.w3.org/2001/XMLSchema-instance" xsi:noNamespaceSchemaLocation="http://sumo.dlr.de/xsd/netgenerateConfiguration.xsd">

    <grid_network>
        <grid value="true"/>
        <grid.number value="10"/>
        <grid.length value="400"/>
    </grid_network>

    <output>
        <output-file value="net.net.xml"/>
    </output>

    <processing>
        <no-internal-links value="true"/>
        <no-left-connections value="true"/>
    </processing>

    <report>
        <verbose value="true"/>
        <xml-validation value="never"/>
    </report>

</configuration>
-->

<net version="0.27" xmlns:xsi="http://www.w3.org/2001/XMLSchema-instance" xsi:noNamespaceSchemaLocation="http://sumo.dlr.de/xsd/net_file.xsd">

    <location netOffset="0.00,0.00" convBoundary="0.00,0.00,3600.00,3600.00" origBoundary="0.00,0.00,3600.00,3600.00" projParameter="!"/>

    <edge id="0/0to0/1" from="0/0" to="0/1" priority="-1">
        <lane id="0/0to0/1_0" index="0" speed="13.90" length="400.00" shape="1.65,3.25 1.65,395.25"/>
    </edge>
    <edge id="0/0to1/0" from="0/0" to="1/0" priority="-1">
        <lane id="0/0to1/0_0" index="0" speed="13.90" length="400.00" shape="3.25,-1.65 395.25,-1.65"/>
    </edge>
    <edge id="0/1to0/0" from="0/1" to="0/0" priority="-1">
        <lane id="0/1to0/0_0" index="0" speed="13.90" length="400.00" shape="-1.65,395.25 -1.65,3.25"/>
    </edge>
    <edge id="0/1to0/2" from="0/1" to="0/2" priority="-1">
        <lane id="0/1to0/2_0" index="0" speed="13.90" length="400.00" shape="1.65,404.75 1.65,795.25"/>
    </edge>
    <edge id="0/1to1/1" from="0/1" to="1/1" priority="-1">
        <lane id="0/1to1/1_0" index="0" speed="13.90" length="400.00" shape="4.75,398.35 395.25,398.35"/>
    </edge>
    <edge id="0/2to0/1" from="0/2" to="0/1" priority="-1">
        <lane id="0/2to0/1_0" index="0" speed="13.90" length="400.00" shape="-1.65,795.25 -1.65,404.75"/>
    </edge>
    <edge id="0/2to0/3" from="0/2" to="0/3" priority="-1">
        <lane id="0/2to0/3_0" index="0" speed="13.90" length="400.00" shape="1.65,804.75 1.65,1195.25"/>
    </edge>
    <edge id="0/2to1/2" from="0/2" to="1/2" priority="-1">
        <lane id="0/2to1/2_0" index="0" speed="13.90" length="400.00" shape="4.75,798.35 395.25,798.35"/>
    </edge>
    <edge id="0/3to0/2" from="0/3" to="0/2" priority="-1">
        <lane id="0/3to0/2_0" index="0" speed="13.90" length="400.00" shape="-1.65,1195.25 -1.65,804.75"/>
    </edge>
    <edge id="0/3to0/4" from="0/3" to="0/4" priority="-1">
        <lane id="0/3to0/4_0" index="0" speed="13.90" length="400.00" shape="1.65,1204.75 1.65,1595.25"/>
    </edge>
    <edge id="0/3to1/3" from="0/3" to="1/3" priority="-1">
        <lane id="0/3to1/3_0" index="0" speed="13.90" length="400.00" shape="4.75,1198.35 395.25,1198.35"/>
    </edge>
    <edge id="0/4to0/3" from="0/4" to="0/3" priority="-1">
        <lane id="0/4to0/3_0" index="0" speed="13.90" length="400.00" shape="-1.65,1595.25 -1.65,1204.75"/>
    </edge>
    <edge id="0/4to0/5" from="0/4" to="0/5" priority="-1">
        <lane id="0/4to0/5_0" index="0" speed="13.90" length="400.00" shape="1.65,1604.75 1.65,1995.25"/>
    </edge>
    <edge id="0/4to1/4" from="0/4" to="1/4" priority="-1">
        <lane id="0/4to1/4_0" index="0" speed="13.90" length="400.00" shape="4.75,1598.35 395.25,1598.35"/>
    </edge>
    <edge id="0/5to0/4" from="0/5" to="0/4" priority="-1">
        <lane id="0/5to0/4_0" index="0" speed="13.90" length="400.00" shape="-1.65,1995.25 -1.65,1604.75"/>
    </edge>
    <edge id="0/5to0/6" from="0/5" to="0/6" priority="-1">
        <lane id="0/5to0/6_0" index="0" speed="13.90" length="400.00" shape="1.65,2004.75 1.65,2395.25"/>
    </edge>
    <edge id="0/5to1/5" from="0/5" to="1/5" priority="-1">
        <lane id="0/5to1/5_0" index="0" speed="13.90" length="400.00" shape="4.75,1998.35 395.25,1998.35"/>
    </edge>
    <edge id="0/6to0/5" from="0/6" to="0/5" priority="-1">
        <lane id="0/6to0/5_0" index="0" speed="13.90" length="400.00" shape="-1.65,2395.25 -1.65,2004.75"/>
    </edge>
    <edge id="0/6to0/7" from="0/6" to="0/7" priority="-1">
        <lane id="0/6to0/7_0" index="0" speed="13.90" length="400.00" shape="1.65,2404.75 1.65,2795.25"/>
    </edge>
    <edge id="0/6to1/6" from="0/6" to="1/6" priority="-1">
        <lane id="0/6to1/6_0" index="0" speed="13.90" length="400.00" shape="4.75,2398.35 395.25,2398.35"/>
    </edge>
    <edge id="0/7to0/6" from="0/7" to="0/6" priority="-1">
        <lane id="0/7to0/6_0" index="0" speed="13.90" length="400.00" shape="-1.65,2795.25 -1.65,2404.75"/>
    </edge>
    <edge id="0/7to0/8" from="0/7" to="0/8" priority="-1">
        <lane id="0/7to0/8_0" index="0" speed="13.90" length="400.00" shape="1.65,2804.75 1.65,3195.25"/>
    </edge>
    <edge id="0/7to1/7" from="0/7" to="1/7" priority="-1">
        <lane id="0/7to1/7_0" index="0" speed="13.90" length="400.00" shape="4.75,2798.35 395.25,2798.35"/>
    </edge>
    <edge id="0/8to0/7" from="0/8" to="0/7" priority="-1">
        <lane id="0/8to0/7_0" index="0" speed="13.90" length="400.00" shape="-1.65,3195.25 -1.65,2804.75"/>
    </edge>
    <edge id="0/8to0/9" from="0/8" to="0/9" priority="-1">
        <lane id="0/8to0/9_0" index="0" speed="13.90" length="400.00" shape="1.65,3204.75 1.65,3596.75"/>
    </edge>
    <edge id="0/8to1/8" from="0/8" to="1/8" priority="-1">
        <lane id="0/8to1/8_0" index="0" speed="13.90" length="400.00" shape="4.75,3198.35 395.25,3198.35"/>
    </edge>
    <edge id="0/9to0/8" from="0/9" to="0/8" priority="-1">
        <lane id="0/9to0/8_0" index="0" speed="13.90" length="400.00" shape="-1.65,3596.75 -1.65,3204.75"/>
    </edge>
    <edge id="0/9to1/9" from="0/9" to="1/9" priority="-1">
        <lane id="0/9to1/9_0" index="0" speed="13.90" length="400.00" shape="3.25,3598.35 395.25,3598.35"/>
    </edge>
    <edge id="1/0to0/0" from="1/0" to="0/0" priority="-1">
        <lane id="1/0to0/0_0" index="0" speed="13.90" length="400.00" shape="395.25,1.65 3.25,1.65"/>
    </edge>
    <edge id="1/0to1/1" from="1/0" to="1/1" priority="-1">
        <lane id="1/0to1/1_0" index="0" speed="13.90" length="400.00" shape="401.65,4.75 401.65,395.25"/>
    </edge>
    <edge id="1/0to2/0" from="1/0" to="2/0" priority="-1">
        <lane id="1/0to2/0_0" index="0" speed="13.90" length="400.00" shape="404.75,-1.65 795.25,-1.65"/>
    </edge>
    <edge id="1/1to0/1" from="1/1" to="0/1" priority="-1">
        <lane id="1/1to0/1_0" index="0" speed="13.90" length="400.00" shape="395.25,401.65 4.75,401.65"/>
    </edge>
    <edge id="1/1to1/0" from="1/1" to="1/0" priority="-1">
        <lane id="1/1to1/0_0" index="0" speed="13.90" length="400.00" shape="398.35,395.25 398.35,4.75"/>
    </edge>
    <edge id="1/1to1/2" from="1/1" to="1/2" priority="-1">
        <lane id="1/1to1/2_0" index="0" speed="13.90" length="400.00" shape="401.65,404.75 401.65,795.25"/>
    </edge>
    <edge id="1/1to2/1" from="1/1" to="2/1" priority="-1">
        <lane id="1/1to2/1_0" index="0" speed="13.90" length="400.00" shape="404.75,398.35 795.25,398.35"/>
    </edge>
    <edge id="1/2to0/2" from="1/2" to="0/2" priority="-1">
        <lane id="1/2to0/2_0" index="0" speed="13.90" length="400.00" shape="395.25,801.65 4.75,801.65"/>
    </edge>
    <edge id="1/2to1/1" from="1/2" to="1/1" priority="-1">
        <lane id="1/2to1/1_0" index="0" speed="13.90" length="400.00" shape="398.35,795.25 398.35,404.75"/>
    </edge>
    <edge id="1/2to1/3" from="1/2" to="1/3" priority="-1">
        <lane id="1/2to1/3_0" index="0" speed="13.90" length="400.00" shape="401.65,804.75 401.65,1195.25"/>
    </edge>
    <edge id="1/2to2/2" from="1/2" to="2/2" priority="-1">
        <lane id="1/2to2/2_0" index="0" speed="13.90" length="400.00" shape="404.75,798.35 795.25,798.35"/>
    </edge>
    <edge id="1/3to0/3" from="1/3" to="0/3" priority="-1">
        <lane id="1/3to0/3_0" index="0" speed="13.90" length="400.00" shape="395.25,1201.65 4.75,1201.65"/>
    </edge>
    <edge id="1/3to1/2" from="1/3" to="1/2" priority="-1">
        <lane id="1/3to1/2_0" index="0" speed="13.90" length="400.00" shape="398.35,1195.25 398.35,804.75"/>
    </edge>
    <edge id="1/3to1/4" from="1/3" to="1/4" priority="-1">
        <lane id="1/3to1/4_0" index="0" speed="13.90" length="400.00" shape="401.65,1204.75 401.65,1595.25"/>
    </edge>
    <edge id="1/3to2/3" from="1/3" to="2/3" priority="-1">
        <lane id="1/3to2/3_0" index="0" speed="13.90" length="400.00" shape="404.75,1198.35 795.25,1198.35"/>
    </edge>
    <edge id="1/4to0/4" from="1/4" to="0/4" priority="-1">
        <lane id="1/4to0/4_0" index="0" speed="13.90" length="400.00" shape="395.25,1601.65 4.75,1601.65"/>
    </edge>
    <edge id="1/4to1/3" from="1/4" to="1/3" priority="-1">
        <lane id="1/4to1/3_0" index="0" speed="13.90" length="400.00" shape="398.35,1595.25 398.35,1204.75"/>
    </edge>
    <edge id="1/4to1/5" from="1/4" to="1/5" priority="-1">
        <lane id="1/4to1/5_0" index="0" speed="13.90" length="400.00" shape="401.65,1604.75 401.65,1995.25"/>
    </edge>
    <edge id="1/4to2/4" from="1/4" to="2/4" priority="-1">
        <lane id="1/4to2/4_0" index="0" speed="13.90" length="400.00" shape="404.75,1598.35 795.25,1598.35"/>
    </edge>
    <edge id="1/5to0/5" from="1/5" to="0/5" priority="-1">
        <lane id="1/5to0/5_0" index="0" speed="13.90" length="400.00" shape="395.25,2001.65 4.75,2001.65"/>
    </edge>
    <edge id="1/5to1/4" from="1/5" to="1/4" priority="-1">
        <lane id="1/5to1/4_0" index="0" speed="13.90" length="400.00" shape="398.35,1995.25 398.35,1604.75"/>
    </edge>
    <edge id="1/5to1/6" from="1/5" to="1/6" priority="-1">
        <lane id="1/5to1/6_0" index="0" speed="13.90" length="400.00" shape="401.65,2004.75 401.65,2395.25"/>
    </edge>
    <edge id="1/5to2/5" from="1/5" to="2/5" priority="-1">
        <lane id="1/5to2/5_0" index="0" speed="13.90" length="400.00" shape="404.75,1998.35 795.25,1998.35"/>
    </edge>
    <edge id="1/6to0/6" from="1/6" to="0/6" priority="-1">
        <lane id="1/6to0/6_0" index="0" speed="13.90" length="400.00" shape="395.25,2401.65 4.75,2401.65"/>
    </edge>
    <edge id="1/6to1/5" from="1/6" to="1/5" priority="-1">
        <lane id="1/6to1/5_0" index="0" speed="13.90" length="400.00" shape="398.35,2395.25 398.35,2004.75"/>
    </edge>
    <edge id="1/6to1/7" from="1/6" to="1/7" priority="-1">
        <lane id="1/6to1/7_0" index="0" speed="13.90" length="400.00" shape="401.65,2404.75 401.65,2795.25"/>
    </edge>
    <edge id="1/6to2/6" from="1/6" to="2/6" priority="-1">
        <lane id="1/6to2/6_0" index="0" speed="13.90" length="400.00" shape="404.75,2398.35 795.25,2398.35"/>
    </edge>
    <edge id="1/7to0/7" from="1/7" to="0/7" priority="-1">
        <lane id="1/7to0/7_0" index="0" speed="13.90" length="400.00" shape="395.25,2801.65 4.75,2801.65"/>
    </edge>
    <edge id="1/7to1/6" from="1/7" to="1/6" priority="-1">
        <lane id="1/7to1/6_0" index="0" speed="13.90" length="400.00" shape="398.35,2795.25 398.35,2404.75"/>
    </edge>
    <edge id="1/7to1/8" from="1/7" to="1/8" priority="-1">
        <lane id="1/7to1/8_0" index="0" speed="13.90" length="400.00" shape="401.65,2804.75 401.65,3195.25"/>
    </edge>
    <edge id="1/7to2/7" from="1/7" to="2/7" priority="-1">
        <lane id="1/7to2/7_0" index="0" speed="13.90" length="400.00" shape="404.75,2798.35 795.25,2798.35"/>
    </edge>
    <edge id="1/8to0/8" from="1/8" to="0/8" priority="-1">
        <lane id="1/8to0/8_0" index="0" speed="13.90" length="400.00" shape="395.25,3201.65 4.75,3201.65"/>
    </edge>
    <edge id="1/8to1/7" from="1/8" to="1/7" priority="-1">
        <lane id="1/8to1/7_0" index="0" speed="13.90" length="400.00" shape="398.35,3195.25 398.35,2804.75"/>
    </edge>
    <edge id="1/8to1/9" from="1/8" to="1/9" priority="-1">
        <lane id="1/8to1/9_0" index="0" speed="13.90" length="400.00" shape="401.65,3204.75 401.65,3595.25"/>
    </edge>
    <edge id="1/8to2/8" from="1/8" to="2/8" priority="-1">
        <lane id="1/8to2/8_0" index="0" speed="13.90" length="400.00" shape="404.75,3198.35 795.25,3198.35"/>
    </edge>
    <edge id="1/9to0/9" from="1/9" to="0/9" priority="-1">
        <lane id="1/9to0/9_0" index="0" speed="13.90" length="400.00" shape="395.25,3601.65 3.25,3601.65"/>
    </edge>
    <edge id="1/9to1/8" from="1/9" to="1/8" priority="-1">
        <lane id="1/9to1/8_0" index="0" speed="13.90" length="400.00" shape="398.35,3595.25 398.35,3204.75"/>
    </edge>
    <edge id="1/9to2/9" from="1/9" to="2/9" priority="-1">
        <lane id="1/9to2/9_0" index="0" speed="13.90" length="400.00" shape="404.75,3598.35 795.25,3598.35"/>
    </edge>
    <edge id="2/0to1/0" from="2/0" to="1/0" priority="-1">
        <lane id="2/0to1/0_0" index="0" speed="13.90" length="400.00" shape="795.25,1.65 404.75,1.65"/>
    </edge>
    <edge id="2/0to2/1" from="2/0" to="2/1" priority="-1">
        <lane id="2/0to2/1_0" index="0" speed="13.90" length="400.00" shape="801.65,4.75 801.65,395.25"/>
    </edge>
    <edge id="2/0to3/0" from="2/0" to="3/0" priority="-1">
        <lane id="2/0to3/0_0" index="0" speed="13.90" length="400.00" shape="804.75,-1.65 1195.25,-1.65"/>
    </edge>
    <edge id="2/1to1/1" from="2/1" to="1/1" priority="-1">
        <lane id="2/1to1/1_0" index="0" speed="13.90" length="400.00" shape="795.25,401.65 404.75,401.65"/>
    </edge>
    <edge id="2/1to2/0" from="2/1" to="2/0" priority="-1">
        <lane id="2/1to2/0_0" index="0" speed="13.90" length="400.00" shape="798.35,395.25 798.35,4.75"/>
    </edge>
    <edge id="2/1to2/2" from="2/1" to="2/2" priority="-1">
        <lane id="2/1to2/2_0" index="0" speed="13.90" length="400.00" shape="801.65,404.75 801.65,795.25"/>
    </edge>
    <edge id="2/1to3/1" from="2/1" to="3/1" priority="-1">
        <lane id="2/1to3/1_0" index="0" speed="13.90" length="400.00" shape="804.75,398.35 1195.25,398.35"/>
    </edge>
    <edge id="2/2to1/2" from="2/2" to="1/2" priority="-1">
        <lane id="2/2to1/2_0" index="0" speed="13.90" length="400.00" shape="795.25,801.65 404.75,801.65"/>
    </edge>
    <edge id="2/2to2/1" from="2/2" to="2/1" priority="-1">
        <lane id="2/2to2/1_0" index="0" speed="13.90" length="400.00" shape="798.35,795.25 798.35,404.75"/>
    </edge>
    <edge id="2/2to2/3" from="2/2" to="2/3" priority="-1">
        <lane id="2/2to2/3_0" index="0" speed="13.90" length="400.00" shape="801.65,804.75 801.65,1195.25"/>
    </edge>
    <edge id="2/2to3/2" from="2/2" to="3/2" priority="-1">
        <lane id="2/2to3/2_0" index="0" speed="13.90" length="400.00" shape="804.75,798.35 1195.25,798.35"/>
    </edge>
    <edge id="2/3to1/3" from="2/3" to="1/3" priority="-1">
        <lane id="2/3to1/3_0" index="0" speed="13.90" length="400.00" shape="795.25,1201.65 404.75,1201.65"/>
    </edge>
    <edge id="2/3to2/2" from="2/3" to="2/2" priority="-1">
        <lane id="2/3to2/2_0" index="0" speed="13.90" length="400.00" shape="798.35,1195.25 798.35,804.75"/>
    </edge>
    <edge id="2/3to2/4" from="2/3" to="2/4" priority="-1">
        <lane id="2/3to2/4_0" index="0" speed="13.90" length="400.00" shape="801.65,1204.75 801.65,1595.25"/>
    </edge>
    <edge id="2/3to3/3" from="2/3" to="3/3" priority="-1">
        <lane id="2/3to3/3_0" index="0" speed="13.90" length="400.00" shape="804.75,1198.35 1195.25,1198.35"/>
    </edge>
    <edge id="2/4to1/4" from="2/4" to="1/4" priority="-1">
        <lane id="2/4to1/4_0" index="0" speed="13.90" length="400.00" shape="795.25,1601.65 404.75,1601.65"/>
    </edge>
    <edge id="2/4to2/3" from="2/4" to="2/3" priority="-1">
        <lane id="2/4to2/3_0" index="0" speed="13.90" length="400.00" shape="798.35,1595.25 798.35,1204.75"/>
    </edge>
    <edge id="2/4to2/5" from="2/4" to="2/5" priority="-1">
        <lane id="2/4to2/5_0" index="0" speed="13.90" length="400.00" shape="801.65,1604.75 801.65,1995.25"/>
    </edge>
    <edge id="2/4to3/4" from="2/4" to="3/4" priority="-1">
        <lane id="2/4to3/4_0" index="0" speed="13.90" length="400.00" shape="804.75,1598.35 1195.25,1598.35"/>
    </edge>
    <edge id="2/5to1/5" from="2/5" to="1/5" priority="-1">
        <lane id="2/5to1/5_0" index="0" speed="13.90" length="400.00" shape="795.25,2001.65 404.75,2001.65"/>
    </edge>
    <edge id="2/5to2/4" from="2/5" to="2/4" priority="-1">
        <lane id="2/5to2/4_0" index="0" speed="13.90" length="400.00" shape="798.35,1995.25 798.35,1604.75"/>
    </edge>
    <edge id="2/5to2/6" from="2/5" to="2/6" priority="-1">
        <lane id="2/5to2/6_0" index="0" speed="13.90" length="400.00" shape="801.65,2004.75 801.65,2395.25"/>
    </edge>
    <edge id="2/5to3/5" from="2/5" to="3/5" priority="-1">
        <lane id="2/5to3/5_0" index="0" speed="13.90" length="400.00" shape="804.75,1998.35 1195.25,1998.35"/>
    </edge>
    <edge id="2/6to1/6" from="2/6" to="1/6" priority="-1">
        <lane id="2/6to1/6_0" index="0" speed="13.90" length="400.00" shape="795.25,2401.65 404.75,2401.65"/>
    </edge>
    <edge id="2/6to2/5" from="2/6" to="2/5" priority="-1">
        <lane id="2/6to2/5_0" index="0" speed="13.90" length="400.00" shape="798.35,2395.25 798.35,2004.75"/>
    </edge>
    <edge id="2/6to2/7" from="2/6" to="2/7" priority="-1">
        <lane id="2/6to2/7_0" index="0" speed="13.90" length="400.00" shape="801.65,2404.75 801.65,2795.25"/>
    </edge>
    <edge id="2/6to3/6" from="2/6" to="3/6" priority="-1">
        <lane id="2/6to3/6_0" index="0" speed="13.90" length="400.00" shape="804.75,2398.35 1195.25,2398.35"/>
    </edge>
    <edge id="2/7to1/7" from="2/7" to="1/7" priority="-1">
        <lane id="2/7to1/7_0" index="0" speed="13.90" length="400.00" shape="795.25,2801.65 404.75,2801.65"/>
    </edge>
    <edge id="2/7to2/6" from="2/7" to="2/6" priority="-1">
        <lane id="2/7to2/6_0" index="0" speed="13.90" length="400.00" shape="798.35,2795.25 798.35,2404.75"/>
    </edge>
    <edge id="2/7to2/8" from="2/7" to="2/8" priority="-1">
        <lane id="2/7to2/8_0" index="0" speed="13.90" length="400.00" shape="801.65,2804.75 801.65,3195.25"/>
    </edge>
    <edge id="2/7to3/7" from="2/7" to="3/7" priority="-1">
        <lane id="2/7to3/7_0" index="0" speed="13.90" length="400.00" shape="804.75,2798.35 1195.25,2798.35"/>
    </edge>
    <edge id="2/8to1/8" from="2/8" to="1/8" priority="-1">
        <lane id="2/8to1/8_0" index="0" speed="13.90" length="400.00" shape="795.25,3201.65 404.75,3201.65"/>
    </edge>
    <edge id="2/8to2/7" from="2/8" to="2/7" priority="-1">
        <lane id="2/8to2/7_0" index="0" speed="13.90" length="400.00" shape="798.35,3195.25 798.35,2804.75"/>
    </edge>
    <edge id="2/8to2/9" from="2/8" to="2/9" priority="-1">
        <lane id="2/8to2/9_0" index="0" speed="13.90" length="400.00" shape="801.65,3204.75 801.65,3595.25"/>
    </edge>
    <edge id="2/8to3/8" from="2/8" to="3/8" priority="-1">
        <lane id="2/8to3/8_0" index="0" speed="13.90" length="400.00" shape="804.75,3198.35 1195.25,3198.35"/>
    </edge>
    <edge id="2/9to1/9" from="2/9" to="1/9" priority="-1">
        <lane id="2/9to1/9_0" index="0" speed="13.90" length="400.00" shape="795.25,3601.65 404.75,3601.65"/>
    </edge>
    <edge id="2/9to2/8" from="2/9" to="2/8" priority="-1">
        <lane id="2/9to2/8_0" index="0" speed="13.90" length="400.00" shape="798.35,3595.25 798.35,3204.75"/>
    </edge>
    <edge id="2/9to3/9" from="2/9" to="3/9" priority="-1">
        <lane id="2/9to3/9_0" index="0" speed="13.90" length="400.00" shape="804.75,3598.35 1195.25,3598.35"/>
    </edge>
    <edge id="3/0to2/0" from="3/0" to="2/0" priority="-1">
        <lane id="3/0to2/0_0" index="0" speed="13.90" length="400.00" shape="1195.25,1.65 804.75,1.65"/>
    </edge>
    <edge id="3/0to3/1" from="3/0" to="3/1" priority="-1">
        <lane id="3/0to3/1_0" index="0" speed="13.90" length="400.00" shape="1201.65,4.75 1201.65,395.25"/>
    </edge>
    <edge id="3/0to4/0" from="3/0" to="4/0" priority="-1">
        <lane id="3/0to4/0_0" index="0" speed="13.90" length="400.00" shape="1204.75,-1.65 1595.25,-1.65"/>
    </edge>
    <edge id="3/1to2/1" from="3/1" to="2/1" priority="-1">
        <lane id="3/1to2/1_0" index="0" speed="13.90" length="400.00" shape="1195.25,401.65 804.75,401.65"/>
    </edge>
    <edge id="3/1to3/0" from="3/1" to="3/0" priority="-1">
        <lane id="3/1to3/0_0" index="0" speed="13.90" length="400.00" shape="1198.35,395.25 1198.35,4.75"/>
    </edge>
    <edge id="3/1to3/2" from="3/1" to="3/2" priority="-1">
        <lane id="3/1to3/2_0" index="0" speed="13.90" length="400.00" shape="1201.65,404.75 1201.65,795.25"/>
    </edge>
    <edge id="3/1to4/1" from="3/1" to="4/1" priority="-1">
        <lane id="3/1to4/1_0" index="0" speed="13.90" length="400.00" shape="1204.75,398.35 1595.25,398.35"/>
    </edge>
    <edge id="3/2to2/2" from="3/2" to="2/2" priority="-1">
        <lane id="3/2to2/2_0" index="0" speed="13.90" length="400.00" shape="1195.25,801.65 804.75,801.65"/>
    </edge>
    <edge id="3/2to3/1" from="3/2" to="3/1" priority="-1">
        <lane id="3/2to3/1_0" index="0" speed="13.90" length="400.00" shape="1198.35,795.25 1198.35,404.75"/>
    </edge>
    <edge id="3/2to3/3" from="3/2" to="3/3" priority="-1">
        <lane id="3/2to3/3_0" index="0" speed="13.90" length="400.00" shape="1201.65,804.75 1201.65,1195.25"/>
    </edge>
    <edge id="3/2to4/2" from="3/2" to="4/2" priority="-1">
        <lane id="3/2to4/2_0" index="0" speed="13.90" length="400.00" shape="1204.75,798.35 1595.25,798.35"/>
    </edge>
    <edge id="3/3to2/3" from="3/3" to="2/3" priority="-1">
        <lane id="3/3to2/3_0" index="0" speed="13.90" length="400.00" shape="1195.25,1201.65 804.75,1201.65"/>
    </edge>
    <edge id="3/3to3/2" from="3/3" to="3/2" priority="-1">
        <lane id="3/3to3/2_0" index="0" speed="13.90" length="400.00" shape="1198.35,1195.25 1198.35,804.75"/>
    </edge>
    <edge id="3/3to3/4" from="3/3" to="3/4" priority="-1">
        <lane id="3/3to3/4_0" index="0" speed="13.90" length="400.00" shape="1201.65,1204.75 1201.65,1595.25"/>
    </edge>
    <edge id="3/3to4/3" from="3/3" to="4/3" priority="-1">
        <lane id="3/3to4/3_0" index="0" speed="13.90" length="400.00" shape="1204.75,1198.35 1595.25,1198.35"/>
    </edge>
    <edge id="3/4to2/4" from="3/4" to="2/4" priority="-1">
        <lane id="3/4to2/4_0" index="0" speed="13.90" length="400.00" shape="1195.25,1601.65 804.75,1601.65"/>
    </edge>
    <edge id="3/4to3/3" from="3/4" to="3/3" priority="-1">
        <lane id="3/4to3/3_0" index="0" speed="13.90" length="400.00" shape="1198.35,1595.25 1198.35,1204.75"/>
    </edge>
    <edge id="3/4to3/5" from="3/4" to="3/5" priority="-1">
        <lane id="3/4to3/5_0" index="0" speed="13.90" length="400.00" shape="1201.65,1604.75 1201.65,1995.25"/>
    </edge>
    <edge id="3/4to4/4" from="3/4" to="4/4" priority="-1">
        <lane id="3/4to4/4_0" index="0" speed="13.90" length="400.00" shape="1204.75,1598.35 1595.25,1598.35"/>
    </edge>
    <edge id="3/5to2/5" from="3/5" to="2/5" priority="-1">
        <lane id="3/5to2/5_0" index="0" speed="13.90" length="400.00" shape="1195.25,2001.65 804.75,2001.65"/>
    </edge>
    <edge id="3/5to3/4" from="3/5" to="3/4" priority="-1">
        <lane id="3/5to3/4_0" index="0" speed="13.90" length="400.00" shape="1198.35,1995.25 1198.35,1604.75"/>
    </edge>
    <edge id="3/5to3/6" from="3/5" to="3/6" priority="-1">
        <lane id="3/5to3/6_0" index="0" speed="13.90" length="400.00" shape="1201.65,2004.75 1201.65,2395.25"/>
    </edge>
    <edge id="3/5to4/5" from="3/5" to="4/5" priority="-1">
        <lane id="3/5to4/5_0" index="0" speed="13.90" length="400.00" shape="1204.75,1998.35 1595.25,1998.35"/>
    </edge>
    <edge id="3/6to2/6" from="3/6" to="2/6" priority="-1">
        <lane id="3/6to2/6_0" index="0" speed="13.90" length="400.00" shape="1195.25,2401.65 804.75,2401.65"/>
    </edge>
    <edge id="3/6to3/5" from="3/6" to="3/5" priority="-1">
        <lane id="3/6to3/5_0" index="0" speed="13.90" length="400.00" shape="1198.35,2395.25 1198.35,2004.75"/>
    </edge>
    <edge id="3/6to3/7" from="3/6" to="3/7" priority="-1">
        <lane id="3/6to3/7_0" index="0" speed="13.90" length="400.00" shape="1201.65,2404.75 1201.65,2795.25"/>
    </edge>
    <edge id="3/6to4/6" from="3/6" to="4/6" priority="-1">
        <lane id="3/6to4/6_0" index="0" speed="13.90" length="400.00" shape="1204.75,2398.35 1595.25,2398.35"/>
    </edge>
    <edge id="3/7to2/7" from="3/7" to="2/7" priority="-1">
        <lane id="3/7to2/7_0" index="0" speed="13.90" length="400.00" shape="1195.25,2801.65 804.75,2801.65"/>
    </edge>
    <edge id="3/7to3/6" from="3/7" to="3/6" priority="-1">
        <lane id="3/7to3/6_0" index="0" speed="13.90" length="400.00" shape="1198.35,2795.25 1198.35,2404.75"/>
    </edge>
    <edge id="3/7to3/8" from="3/7" to="3/8" priority="-1">
        <lane id="3/7to3/8_0" index="0" speed="13.90" length="400.00" shape="1201.65,2804.75 1201.65,3195.25"/>
    </edge>
    <edge id="3/7to4/7" from="3/7" to="4/7" priority="-1">
        <lane id="3/7to4/7_0" index="0" speed="13.90" length="400.00" shape="1204.75,2798.35 1595.25,2798.35"/>
    </edge>
    <edge id="3/8to2/8" from="3/8" to="2/8" priority="-1">
        <lane id="3/8to2/8_0" index="0" speed="13.90" length="400.00" shape="1195.25,3201.65 804.75,3201.65"/>
    </edge>
    <edge id="3/8to3/7" from="3/8" to="3/7" priority="-1">
        <lane id="3/8to3/7_0" index="0" speed="13.90" length="400.00" shape="1198.35,3195.25 1198.35,2804.75"/>
    </edge>
    <edge id="3/8to3/9" from="3/8" to="3/9" priority="-1">
        <lane id="3/8to3/9_0" index="0" speed="13.90" length="400.00" shape="1201.65,3204.75 1201.65,3595.25"/>
    </edge>
    <edge id="3/8to4/8" from="3/8" to="4/8" priority="-1">
        <lane id="3/8to4/8_0" index="0" speed="13.90" length="400.00" shape="1204.75,3198.35 1595.25,3198.35"/>
    </edge>
    <edge id="3/9to2/9" from="3/9" to="2/9" priority="-1">
        <lane id="3/9to2/9_0" index="0" speed="13.90" length="400.00" shape="1195.25,3601.65 804.75,3601.65"/>
    </edge>
    <edge id="3/9to3/8" from="3/9" to="3/8" priority="-1">
        <lane id="3/9to3/8_0" index="0" speed="13.90" length="400.00" shape="1198.35,3595.25 1198.35,3204.75"/>
    </edge>
    <edge id="3/9to4/9" from="3/9" to="4/9" priority="-1">
        <lane id="3/9to4/9_0" index="0" speed="13.90" length="400.00" shape="1204.75,3598.35 1595.25,3598.35"/>
    </edge>
    <edge id="4/0to3/0" from="4/0" to="3/0" priority="-1">
        <lane id="4/0to3/0_0" index="0" speed="13.90" length="400.00" shape="1595.25,1.65 1204.75,1.65"/>
    </edge>
    <edge id="4/0to4/1" from="4/0" to="4/1" priority="-1">
        <lane id="4/0to4/1_0" index="0" speed="13.90" length="400.00" shape="1601.65,4.75 1601.65,395.25"/>
    </edge>
    <edge id="4/0to5/0" from="4/0" to="5/0" priority="-1">
        <lane id="4/0to5/0_0" index="0" speed="13.90" length="400.00" shape="1604.75,-1.65 1995.25,-1.65"/>
    </edge>
    <edge id="4/1to3/1" from="4/1" to="3/1" priority="-1">
        <lane id="4/1to3/1_0" index="0" speed="13.90" length="400.00" shape="1595.25,401.65 1204.75,401.65"/>
    </edge>
    <edge id="4/1to4/0" from="4/1" to="4/0" priority="-1">
        <lane id="4/1to4/0_0" index="0" speed="13.90" length="400.00" shape="1598.35,395.25 1598.35,4.75"/>
    </edge>
    <edge id="4/1to4/2" from="4/1" to="4/2" priority="-1">
        <lane id="4/1to4/2_0" index="0" speed="13.90" length="400.00" shape="1601.65,404.75 1601.65,795.25"/>
    </edge>
    <edge id="4/1to5/1" from="4/1" to="5/1" priority="-1">
        <lane id="4/1to5/1_0" index="0" speed="13.90" length="400.00" shape="1604.75,398.35 1995.25,398.35"/>
    </edge>
    <edge id="4/2to3/2" from="4/2" to="3/2" priority="-1">
        <lane id="4/2to3/2_0" index="0" speed="13.90" length="400.00" shape="1595.25,801.65 1204.75,801.65"/>
    </edge>
    <edge id="4/2to4/1" from="4/2" to="4/1" priority="-1">
        <lane id="4/2to4/1_0" index="0" speed="13.90" length="400.00" shape="1598.35,795.25 1598.35,404.75"/>
    </edge>
    <edge id="4/2to4/3" from="4/2" to="4/3" priority="-1">
        <lane id="4/2to4/3_0" index="0" speed="13.90" length="400.00" shape="1601.65,804.75 1601.65,1195.25"/>
    </edge>
    <edge id="4/2to5/2" from="4/2" to="5/2" priority="-1">
        <lane id="4/2to5/2_0" index="0" speed="13.90" length="400.00" shape="1604.75,798.35 1995.25,798.35"/>
    </edge>
    <edge id="4/3to3/3" from="4/3" to="3/3" priority="-1">
        <lane id="4/3to3/3_0" index="0" speed="13.90" length="400.00" shape="1595.25,1201.65 1204.75,1201.65"/>
    </edge>
    <edge id="4/3to4/2" from="4/3" to="4/2" priority="-1">
        <lane id="4/3to4/2_0" index="0" speed="13.90" length="400.00" shape="1598.35,1195.25 1598.35,804.75"/>
    </edge>
    <edge id="4/3to4/4" from="4/3" to="4/4" priority="-1">
        <lane id="4/3to4/4_0" index="0" speed="13.90" length="400.00" shape="1601.65,1204.75 1601.65,1595.25"/>
    </edge>
    <edge id="4/3to5/3" from="4/3" to="5/3" priority="-1">
        <lane id="4/3to5/3_0" index="0" speed="13.90" length="400.00" shape="1604.75,1198.35 1995.25,1198.35"/>
    </edge>
    <edge id="4/4to3/4" from="4/4" to="3/4" priority="-1">
        <lane id="4/4to3/4_0" index="0" speed="13.90" length="400.00" shape="1595.25,1601.65 1204.75,1601.65"/>
    </edge>
    <edge id="4/4to4/3" from="4/4" to="4/3" priority="-1">
        <lane id="4/4to4/3_0" index="0" speed="13.90" length="400.00" shape="1598.35,1595.25 1598.35,1204.75"/>
    </edge>
    <edge id="4/4to4/5" from="4/4" to="4/5" priority="-1">
        <lane id="4/4to4/5_0" index="0" speed="13.90" length="400.00" shape="1601.65,1604.75 1601.65,1995.25"/>
    </edge>
    <edge id="4/4to5/4" from="4/4" to="5/4" priority="-1">