<routes xmlns:xsi="http://www.w3.org/2001/XMLSchema-instance" xsi:noNamespaceSchemaLocation="https://sumo.dlr.de/xsd/routes_file.xsd">
    <vType id="DEFAULT_VEHTYPE" sigma="0"/>
    <trip id="0" from="4/1to3/1" to="1/1to0/1" depart="0" departSpeed="10" departPos="100"/>
</routes>
