<?xml version="1.0" encoding="UTF-8"?>

<!-- generated on 2021-06-09 09:58:13 by Eclipse SUMO netedit Version v1_9_2+0417-67838dc053
<configuration xmlns:xsi="http://www.w3.org/2001/XMLSchema-instance" xsi:noNamespaceSchemaLocation="http://sumo.dlr.de/xsd/netconvertConfiguration.xsd">

    <input>
        <sumo-net-file value="C:\Users\SUMO-Test\.texttest\tmp\netedit.gui.1_from_09Jun093102.7304\netedit.gui\additionalElements\containerstop\inspect_selection\name\input_net.net.xml"/>
    </input>

    <output>
        <output-file value="C:\Users\SUMO-Test\.texttest\tmp\netedit.gui.1_from_09Jun093102.7304\netedit.gui\additionalElements\containerstop\inspect_selection\name\net.net.xml"/>
    </output>

    <processing>
        <geometry.min-radius.fix.railways value="false"/>
        <geometry.max-grade.fix value="false"/>
        <offset.disable-normalization value="true"/>
        <lefthand value="false"/>
    </processing>

    <junctions>
        <no-turnarounds value="true"/>
        <junctions.corner-detail value="5"/>
        <junctions.limit-turn-speed value="5.5"/>
        <rectangular-lane-cut value="false"/>
    </junctions>

    <pedestrian>
        <walkingareas value="false"/>
    </pedestrian>

    <netedit>
        <additional-files value="C:\Users\SUMO-Test\.texttest\tmp\netedit.gui.1_from_09Jun093102.7304\netedit.gui\additionalElements\containerstop\inspect_selection\name\additionals.xml"/>
        <additionals-output value="C:\Users\SUMO-Test\.texttest\tmp\netedit.gui.1_from_09Jun093102.7304\netedit.gui\additionalElements\containerstop\inspect_selection\name\additionals.xml"/>
        <route-files value="C:\Users\SUMO-Test\.texttest\tmp\netedit.gui.1_from_09Jun093102.7304\netedit.gui\additionalElements\containerstop\inspect_selection\name\routes.xml"/>
        <demandelements-output value="C:\Users\SUMO-Test\.texttest\tmp\netedit.gui.1_from_09Jun093102.7304\netedit.gui\additionalElements\containerstop\inspect_selection\name\routes.xml"/>
        <data-files value="C:\Users\SUMO-Test\.texttest\tmp\netedit.gui.1_from_09Jun093102.7304\netedit.gui\additionalElements\containerstop\inspect_selection\name\datas.xml"/>
        <dataelements-output value="C:\Users\SUMO-Test\.texttest\tmp\netedit.gui.1_from_09Jun093102.7304\netedit.gui\additionalElements\containerstop\inspect_selection\name\datas.xml"/>
    </netedit>

    <visualisation>
        <gui-settings-file value="C:\Users\SUMO-Test\.texttest\tmp\netedit.gui.1_from_09Jun093102.7304\netedit.gui\additionalElements\containerstop\inspect_selection\name\gui-settings.xml"/>
        <window-size value="936,697"/>
        <window-pos value="50,50"/>
        <gui-testing value="true"/>
        <gui-testing-debug value="true"/>
        <gui-testing.setting-output value="C:\Users\SUMO-Test\.texttest\tmp\netedit.gui.1_from_09Jun093102.7304\netedit.gui\additionalElements\containerstop\inspect_selection\name\guisettingsoutput.xml"/>
    </visualisation>

    <report>
        <no-warnings value="true"/>
        <aggregate-warnings value="5"/>
        <error-log value="C:\Users\SUMO-Test\.texttest\tmp\netedit.gui.1_from_09Jun093102.7304\netedit.gui\additionalElements\containerstop\inspect_selection\name\log.txt"/>
    </report>

</configuration>
-->

<additional xmlns:xsi="http://www.w3.org/2001/XMLSchema-instance" xsi:noNamespaceSchemaLocation="http://sumo.dlr.de/xsd/additional_file.xsd">
    <containerStop id="containerStopA" lane="gneE0_0" startPos="5.00" endPos="10.00" name="common ContainerStop Name" friendlyPos="1" lines="line1 line2" containerCapacity="10" parkingLength="12.00">
        <param key="KeyA1" value="valueA1"/>
        <param key="KeyA2" value="valueA3"/>
        <param key="KeyA3" value="valueA2"/>
    </containerStop>
    <containerStop id="containerStopB" lane="gneE0_0" startPos="15.00" endPos="20.00" name="common ContainerStop Name" lines="line3 line4" containerCapacity="20" parkingLength="15.00">
        <param key="KeyB1" value="valueB1"/>
        <param key="KeyB2" value="valueB3"/>
        <param key="KeyB3" value="valueB2"/>
    </containerStop>
</additional>
