<edges version="0.13" xmlns:xsi="http://www.w3.org/2001/XMLSchema-instance" xsi:noNamespaceSchemaLocation="http://sumo.sf.net/xsd/edges_file.xsd">
    <!-- Copied Elements -->
    <!-- Deleted Elements -->
    <!-- Created Elements -->
    <!-- Changed Elements -->
</edges>
