<tlLogics version="0.25" xmlns:xsi="http://www.w3.org/2001/XMLSchema-instance" xsi:noNamespaceSchemaLocation="http://sumo.dlr.de/xsd/tllogic_file.xsd">
    <!-- Copied Elements -->
    <!-- Deleted Elements -->
    <!-- Created Elements -->
    <!-- Changed Elements -->
</tlLogics>
