<?xml version="1.0" encoding="UTF-8"?>

<!-- generated on 2022-06-03 16:46:07 by Eclipse SUMO netedit Version v1_13_0+0610-e5b7f68bfcb
-->

<additional xmlns:xsi="http://www.w3.org/2001/XMLSchema-instance" xsi:noNamespaceSchemaLocation="http://sumo.dlr.de/xsd/additional_file.xsd">
    <!-- Detectors -->
    <e2Detector id="e2MultilaneDetector_0" lanes="gneE2_0 gneE3_0" pos="15.00" endPos="15.00" period="900.00" file="e2MultilaneDetector_0.xml">
        <param key="$$key with spaces%%" value="value4"/>
        <param key="key1" value="value5"/>
        <param key="key2" value=""/>
        <param key="key3" value="$$value with spaces%%"/>
    </e2Detector>
</additional>
