<?xml version="1.0" encoding="UTF-8"?>

<!-- generated on 19.06.2019 08:25:47 by Eclipse SUMO netedit Version v1_2_0+0826-9f68c0f442
<configuration xmlns:xsi="http://www.w3.org/2001/XMLSchema-instance" xsi:noNamespaceSchemaLocation="http://sumo.dlr.de/xsd/netconvertConfiguration.xsd">

    <input>
        <sumo-net-file value="C:/Users/SUMO-Test/.texttest/tmp/netedit.gui.1_from_18Jun145924.2292/netedit.gui/netElements/lanes/contextual_menu/transform_restricted_lane/sidewalk\input_net.net.xml"/>
    </input>

    <output>
        <output-file value="C:/Users/SUMO-Test/.texttest/tmp/netedit.gui.1_from_18Jun145924.2292/netedit.gui/netElements/lanes/contextual_menu/transform_restricted_lane/sidewalk\net.net.xml"/>
    </output>

    <processing>
        <geometry.max-grade.fix value="false"/>
        <offset.disable-normalization value="true"/>
        <lefthand value="false"/>
    </processing>

    <junctions>
        <no-internal-links value="false"/>
        <no-turnarounds value="true"/>
        <junctions.corner-detail value="5"/>
        <junctions.limit-turn-speed value="5.5"/>
        <rectangular-lane-cut value="false"/>
    </junctions>

    <pedestrian>
        <walkingareas value="false"/>
    </pedestrian>

    <netedit>
        <additional-files value="C:/Users/SUMO-Test/.texttest/tmp/netedit.gui.1_from_18Jun145924.2292/netedit.gui/netElements/lanes/contextual_menu/transform_restricted_lane/sidewalk\additionals.xml"/>
        <additionals-output value="C:/Users/SUMO-Test/.texttest/tmp/netedit.gui.1_from_18Jun145924.2292/netedit.gui/netElements/lanes/contextual_menu/transform_restricted_lane/sidewalk\additionals.xml"/>
        <route-files value="C:/Users/SUMO-Test/.texttest/tmp/netedit.gui.1_from_18Jun145924.2292/netedit.gui/netElements/lanes/contextual_menu/transform_restricted_lane/sidewalk\routes.xml"/>
        <demandelements-output value="C:/Users/SUMO-Test/.texttest/tmp/netedit.gui.1_from_18Jun145924.2292/netedit.gui/netElements/lanes/contextual_menu/transform_restricted_lane/sidewalk\routes.xml"/>
    </netedit>

    <visualisation>
        <gui-settings-file value="C:/Users/SUMO-Test/.texttest/tmp/netedit.gui.1_from_18Jun145924.2292/netedit.gui/netElements/lanes/contextual_menu/transform_restricted_lane/sidewalk\gui-settings.xml"/>
        <window-size value="700,500"/>
        <window-pos value="50,50"/>
        <gui-testing value="true"/>
        <gui-testing-debug value="true"/>
        <gui-testing-debug-gl value="true"/>
    </visualisation>

    <report>
        <no-warnings value="true"/>
        <error-log value="C:/Users/SUMO-Test/.texttest/tmp/netedit.gui.1_from_18Jun145924.2292/netedit.gui/netElements/lanes/contextual_menu/transform_restricted_lane/sidewalk\log.txt"/>
    </report>

</configuration>
-->

<net version="1.6" junctionCornerDetail="5" limitTurnSpeed="5.50" xmlns:xsi="http://www.w3.org/2001/XMLSchema-instance" xsi:noNamespaceSchemaLocation="http://sumo.dlr.de/xsd/net_file.xsd">

    <location netOffset="25.00,0.00" convBoundary="0.00,0.00,50.00,20.00" origBoundary="-10000000000.00,-10000000000.00,10000000000.00,10000000000.00" projParameter="!"/>

    <edge id=":gneJ0_0" function="internal">
        <lane id=":gneJ0_0_0" index="0" speed="6.08" length="7.74" shape="-1.60,3.20 -1.30,1.10 -0.40,-0.40 1.10,-1.30 3.20,-1.60"/>
    </edge>
    <edge id=":gneJ0_1" function="internal">
        <lane id=":gneJ0_1_0" index="0" speed="3.90" length="2.58" shape="3.20,1.60 2.50,1.70 2.00,2.00 1.70,2.50 1.60,3.20"/>
    </edge>
    <edge id=":gneJ0_2" function="internal">
        <lane id=":gneJ0_2_0" index="0" speed="3.65" length="2.08" shape="3.20,1.60 2.00,0.80 1.71,0.23"/>
    </edge>
    <edge id=":gneJ0_3" function="internal">
        <lane id=":gneJ0_3_0" index="0" speed="3.65" length="2.59" shape="1.71,0.23 1.60,-0.00 2.00,-0.80 3.20,-1.60"/>
    </edge>
    <edge id=":gneJ0_w0" function="walkingarea">
        <lane id=":gneJ0_w0_0" index="0" allow="pedestrian" speed="1.00" length="4.26" width="3.20" shape="-3.20,3.20 0.00,3.20 0.00,3.20 3.20,3.20 3.20,3.20 3.20,0.00 3.20,0.00 3.20,-3.20 -3.02,1.24 -2.49,-0.36 -1.60,-1.60 -0.36,-2.49 1.24,-3.02"/>
    </edge>
    <edge id=":gneJ1_0" function="internal">
        <lane id=":gneJ1_0_0" index="0" speed="3.90" length="2.58" shape="48.40,3.20 48.30,2.50 48.00,2.00 47.50,1.70 46.80,1.60"/>
    </edge>
    <edge id=":gneJ1_1" function="internal">
        <lane id=":gneJ1_1_0" index="0" speed="6.08" length="7.74" shape="46.80,-1.60 48.90,-1.30 50.40,-0.40 51.30,1.10 51.60,3.20"/>
    </edge>
    <edge id=":gneJ1_2" function="internal">
        <lane id=":gneJ1_2_0" index="0" speed="3.65" length="2.66" shape="46.80,-1.60 48.00,-0.80 48.40,0.00 48.26,0.29"/>
    </edge>
    <edge id=":gneJ1_3" function="internal">
        <lane id=":gneJ1_3_0" index="0" speed="3.65" length="2.01" shape="48.26,0.29 48.00,0.80 46.80,1.60"/>
    </edge>
    <edge id=":gneJ1_w0" function="walkingarea">
        <lane id=":gneJ1_w0_0" index="0" allow="pedestrian" speed="1.00" length="4.26" width="3.20" shape="46.80,3.20 50.00,3.20 50.00,3.20 53.20,3.20 46.80,-3.20 46.80,0.00 46.80,0.00 46.80,3.20"/>
    </edge>
    <edge id=":gneJ2_0" function="internal">
        <lane id=":gneJ2_0_0" index="0" allow="pedestrian" speed="4.84" length="4.53" width="2.00" shape="1.60,16.50 1.79,17.59 2.37,18.38 3.34,18.84 4.70,19.00"/>
    </edge>
    <edge id=":gneJ2_w0" function="walkingarea">
        <lane id=":gneJ2_w0_0" index="0" allow="pedestrian" speed="1.00" length="5.11" width="3.20" shape="4.70,23.20 4.70,20.00 4.70,20.00 4.70,18.00 3.20,16.50 0.00,16.50 0.00,16.50 -3.20,16.50 2.29,23.01 0.31,22.46 -1.23,21.53 -2.32,20.22 -2.98,18.55"/>
    </edge>
    <edge id=":gneJ3_0" function="internal">
        <lane id=":gneJ3_0_0" index="0" speed="6.57" length="9.21" shape="51.60,16.50 51.21,18.73 50.03,20.32 48.06,21.28 45.30,21.60"/>
    </edge>
    <edge id=":gneJ3_w0" function="walkingarea">
        <lane id=":gneJ3_w0_0" index="0" allow="pedestrian" speed="1.00" length="5.11" width="3.20" shape="53.20,16.50 50.00,16.50 50.00,16.50 46.80,16.50 45.30,18.00 45.30,20.00 45.30,20.00 45.30,23.20 52.98,18.55 52.32,20.22 51.23,21.53 49.69,22.46 47.71,23.01"/>
    </edge>

    <edge id="-gneE2" from="gneJ3" to="gneJ2" priority="1">
        <lane id="-gneE2_0" index="0" speed="13.89" length="40.60" shape="45.30,21.60 4.70,21.60"/>
    </edge>
    <edge id="gneE0" from="gneJ0" to="gneJ1" priority="1">
        <lane id="gneE0_0" index="0" speed="13.89" length="43.60" shape="3.20,-1.60 46.80,-1.60"/>
    </edge>
    <edge id="gneE1" from="gneJ1" to="gneJ0" priority="1">
        <lane id="gneE1_0" index="0" speed="13.89" length="43.60" shape="46.80,1.60 3.20,1.60"/>
    </edge>
    <edge id="gneE2" from="gneJ2" to="gneJ3" priority="1">
        <lane id="gneE2_0" index="0" allow="pedestrian" speed="13.89" length="40.60" width="2.00" shape="4.70,19.00 45.30,19.00"/>
    </edge>
    <edge id="gneE4" from="gneJ3" to="gneJ1" priority="1">
        <lane id="gneE4_0" index="0" speed="13.89" length="13.30" shape="48.40,16.50 48.40,3.20"/>
    </edge>
    <edge id="gneE5" from="gneJ1" to="gneJ3" priority="1">
        <lane id="gneE5_0" index="0" speed="13.89" length="13.30" shape="51.60,3.20 51.60,16.50"/>
    </edge>
    <edge id="gneE8" from="gneJ2" to="gneJ0" priority="1">
        <lane id="gneE8_0" index="0" speed="13.89" length="13.30" shape="-1.60,16.50 -1.60,3.20"/>
    </edge>
    <edge id="gneE9" from="gneJ0" to="gneJ2" priority="1">
        <lane id="gneE9_0" index="0" speed="13.89" length="13.30" shape="1.60,3.20 1.60,16.50"/>
    </edge>

    <junction id="gneJ0" type="priority" x="0.00" y="0.00" incLanes="gneE8_0 gneE1_0" intLanes=":gneJ0_0_0 :gneJ0_1_0 :gneJ0_3_0" shape="-3.20,3.20 3.20,3.20 3.20,-3.20 -0.36,-2.49 -1.60,-1.60 -2.49,-0.36 -3.02,1.24">
        <request index="0" response="000" foes="100" cont="0"/>
        <request index="1" response="000" foes="000" cont="0"/>
        <request index="2" response="001" foes="001" cont="1"/>
    </junction>
    <junction id="gneJ1" type="priority" x="50.00" y="0.00" incLanes="gneE4_0 gneE0_0" intLanes=":gneJ1_0_0 :gneJ1_1_0 :gneJ1_3_0" shape="46.80,3.20 53.20,3.20 52.49,-0.36 51.60,-1.60 50.36,-2.49 48.76,-3.02 46.80,-3.20">
        <request index="0" response="000" foes="100" cont="0"/>
        <request index="1" response="000" foes="000" cont="0"/>
        <request index="2" response="001" foes="001" cont="1"/>
    </junction>
    <junction id="gneJ2" type="priority" x="0.00" y="20.00" incLanes="-gneE2_0 gneE9_0" intLanes=":gneJ2_0_0" shape="4.70,23.20 4.70,18.00 3.87,17.83 3.58,17.63 3.37,17.33 3.24,16.96 3.20,16.50 -3.20,16.50 -2.98,18.55 -2.32,20.22 -1.23,21.53 0.31,22.46 2.29,23.01">
        <request index="0" response="0" foes="0" cont="0"/>
    </junction>
    <junction id="gneJ3" type="priority" x="50.00" y="20.00" incLanes="gneE5_0 gneE2_0" intLanes=":gneJ3_0_0" shape="53.20,16.50 46.80,16.50 46.63,17.33 46.42,17.63 46.13,17.83 45.76,17.96 45.30,18.00 45.30,23.20 47.71,23.01 49.69,22.46 51.23,21.53 52.32,20.22 52.98,18.55">
        <request index="0" response="0" foes="0" cont="0"/>
    </junction>

    <junction id=":gneJ0_3_0" type="internal" x="1.71" y="0.23" incLanes=":gneJ0_2_0 gneE8_0" intLanes=":gneJ0_0_0"/>
    <junction id=":gneJ1_3_0" type="internal" x="48.26" y="0.29" incLanes=":gneJ1_2_0 gneE4_0" intLanes=":gneJ1_0_0"/>

    <connection from="gneE0" to="gneE5" fromLane="0" toLane="0" via=":gneJ1_1_0" dir="l" state="M"/>
    <connection from="gneE0" to="gneE1" fromLane="0" toLane="0" via=":gneJ1_2_0" dir="t" state="m"/>
    <connection from="gneE1" to="gneE9" fromLane="0" toLane="0" via=":gneJ0_1_0" dir="r" state="M"/>
    <connection from="gneE1" to="gneE0" fromLane="0" toLane="0" via=":gneJ0_2_0" dir="t" state="m"/>
    <connection from="gneE4" to="gneE1" fromLane="0" toLane="0" via=":gneJ1_0_0" dir="r" state="M"/>
    <connection from="gneE5" to="-gneE2" fromLane="0" toLane="0" via=":gneJ3_0_0" dir="l" state="M"/>
    <connection from="gneE8" to="gneE0" fromLane="0" toLane="0" via=":gneJ0_0_0" dir="l" state="M"/>
    <connection from="gneE9" to="gneE2" fromLane="0" toLane="0" via=":gneJ2_0_0" dir="r" state="M"/>

    <connection from=":gneJ0_0" to="gneE0" fromLane="0" toLane="0" dir="l" state="M"/>
    <connection from=":gneJ0_1" to="gneE9" fromLane="0" toLane="0" dir="r" state="M"/>
    <connection from=":gneJ0_2" to="gneE0" fromLane="0" toLane="0" via=":gneJ0_3_0" dir="t" state="m"/>
    <connection from=":gneJ0_3" to="gneE0" fromLane="0" toLane="0" dir="t" state="M"/>
    <connection from=":gneJ1_0" to="gneE1" fromLane="0" toLane="0" dir="r" state="M"/>
    <connection from=":gneJ1_1" to="gneE5" fromLane="0" toLane="0" dir="l" state="M"/>
    <connection from=":gneJ1_2" to="gneE1" fromLane="0" toLane="0" via=":gneJ1_3_0" dir="t" state="m"/>
    <connection from=":gneJ1_3" to="gneE1" fromLane="0" toLane="0" dir="t" state="M"/>
    <connection from=":gneJ2_0" to="gneE2" fromLane="0" toLane="0" dir="r" state="M"/>
    <connection from=":gneJ3_0" to="-gneE2" fromLane="0" toLane="0" dir="l" state="M"/>

    <connection from=":gneJ0_w0" to="gneE9" fromLane="0" toLane="0" dir="s" state="M"/>
    <connection from=":gneJ0_w0" to="gneE0" fromLane="0" toLane="0" dir="s" state="M"/>
    <connection from="gneE8" to=":gneJ0_w0" fromLane="0" toLane="0" dir="s" state="M"/>
    <connection from="gneE1" to=":gneJ0_w0" fromLane="0" toLane="0" dir="s" state="M"/>
    <connection from=":gneJ1_w0" to="gneE5" fromLane="0" toLane="0" dir="s" state="M"/>
    <connection from=":gneJ1_w0" to="gneE1" fromLane="0" toLane="0" dir="s" state="M"/>
    <connection from="gneE4" to=":gneJ1_w0" fromLane="0" toLane="0" dir="s" state="M"/>
    <connection from="gneE0" to=":gneJ1_w0" fromLane="0" toLane="0" dir="s" state="M"/>
    <connection from=":gneJ2_w0" to="gneE2" fromLane="0" toLane="0" dir="s" state="M"/>
    <connection from=":gneJ2_w0" to="gneE8" fromLane="0" toLane="0" dir="s" state="M"/>
    <connection from="-gneE2" to=":gneJ2_w0" fromLane="0" toLane="0" dir="s" state="M"/>
    <connection from="gneE9" to=":gneJ2_w0" fromLane="0" toLane="0" dir="s" state="M"/>
    <connection from=":gneJ3_w0" to="gneE4" fromLane="0" toLane="0" dir="s" state="M"/>
    <connection from=":gneJ3_w0" to="-gneE2" fromLane="0" toLane="0" dir="s" state="M"/>
    <connection from="gneE5" to=":gneJ3_w0" fromLane="0" toLane="0" dir="s" state="M"/>
    <connection from="gneE2" to=":gneJ3_w0" fromLane="0" toLane="0" dir="s" state="M"/>
</net>
