<?xml version="1.0" encoding="UTF-8"?>

<!-- generated on Mi 11 Okt 2017 17:20:25 CEST by Netedit Version dev-SVN-r26237
<?xml version="1.0" encoding="UTF-8"?>

<configuration xmlns:xsi="http://www.w3.org/2001/XMLSchema-instance" xsi:noNamespaceSchemaLocation="http://sumo.dlr.de/xsd/netconvertConfiguration.xsd">

    <input>
        <sumo-net-file value="longedge.net.xml"/>
    </input>

    <output>
        <output-file value="longedge.net.xml"/>
    </output>

    <processing>
        <no-internal-links value="true"/>
        <no-turnarounds value="true"/>
        <offset.disable-normalization value="true"/>
        <lefthand value="false"/>
        <junctions.corner-detail value="0"/>
        <rectangular-lane-cut value="false"/>
        <walkingareas value="false"/>
    </processing>

</configuration>
-->

<net version="0.27" xmlns:xsi="http://www.w3.org/2001/XMLSchema-instance" xsi:noNamespaceSchemaLocation="http://sumo.dlr.de/xsd/net_file.xsd">

    <location netOffset="0.00,0.00" convBoundary="0.00,0.00,2000.00,100.00" origBoundary="-20000000000.00,-20000000000.00,20000000000.00,20000000000.00" projParameter="!"/>

    <edge id="CE" from="C" to="E" priority="1" shape="1000.00,0.00 2000.00,0.00">
        <lane id="CE_0" index="0" speed="13.89" length="1000.00" shape="1004.75,-1.65 2000.00,-1.65"/>
    </edge>
    <edge id="CN" from="C" to="N" priority="1">
        <lane id="CN_0" index="0" speed="13.89" length="100.00" shape="1001.65,4.75 1001.65,100.00"/>
    </edge>
    <edge id="CW" from="C" to="W" priority="1" shape="1000.00,0.00 0.00,0.00">
        <lane id="CW_0" index="0" speed="13.89" length="1000.00" shape="998.55,1.65 -0.00,1.65"/>
    </edge>
    <edge id="EC" from="E" to="C" priority="1" shape="2000.00,0.00 1000.00,0.00">
        <lane id="EC_0" index="0" speed="13.89" length="1000.00" shape="2000.00,1.65 1004.75,1.65"/>
    </edge>
    <edge id="WC" from="W" to="C" priority="1" shape="0.00,0.00 1000.00,0.00">
        <lane id="WC_0" index="0" speed="13.89" length="1000.00" shape="-0.00,-1.65 998.55,-1.65"/>
    </edge>

    <junction id="C" type="priority" x="1000.00" y="0.00" incLanes="EC_0 WC_0" intLanes="" shape="1000.05,4.75 1003.25,4.75 1004.75,3.25 1004.75,-3.25 998.55,-3.25 998.55,3.25">
        <request index="0" response="0000" foes="1000"/>
        <request index="1" response="0000" foes="1000"/>
        <request index="2" response="0000" foes="0000"/>
        <request index="3" response="0011" foes="0011"/>
    </junction>
    <junction id="E" type="unregulated" x="2000.00" y="0.00" incLanes="CE_0" intLanes="" shape="2000.00,0.05 2000.00,-3.25 2000.00,-0.05"/>
    <junction id="N" type="dead_end" x="1000.00" y="100.00" incLanes="CN_0" intLanes="" shape="1003.25,100.00 1000.05,100.00"/>
    <junction id="W" type="unregulated" x="0.00" y="0.00" incLanes="CW_0" intLanes="" shape="-0.00,-0.05 -0.00,3.25 -0.00,0.05"/>

    <connection from="EC" to="CN" fromLane="0" toLane="0" dir="r" state="M"/>
    <connection from="EC" to="CW" fromLane="0" toLane="0" dir="s" state="M"/>
    <connection from="WC" to="CE" fromLane="0" toLane="0" dir="s" state="M"/>
    <connection from="WC" to="CN" fromLane="0" toLane="0" dir="l" state="m"/>

</net>
