<?xml version="1.0" encoding="UTF-8"?>

<!-- generated on Thu Mar 26 14:16:46 2020 by Eclipse SUMO netconvert Version v1_5_0+0956-19fffc391b
This data file and the accompanying materials
are made available under the terms of the Eclipse Public License v2.0
which accompanies this distribution, and is available at
http://www.eclipse.org/legal/epl-v20.html
SPDX-License-Identifier: EPL-2.0
<configuration xmlns:xsi="http://www.w3.org/2001/XMLSchema-instance" xsi:noNamespaceSchemaLocation="http://sumo.dlr.de/xsd/netconvertConfiguration.xsd">

    <input>
        <osm-files value="osm.xml"/>
    </input>

    <output>
        <write-license value="true"/>
    </output>

    <projection>
        <proj.utm value="true"/>
    </projection>

    <processing>
        <geometry.remove value="true"/>
    </processing>

    <tls_building>
        <tls.discard-simple value="true"/>
        <tls.guess-signals value="true"/>
    </tls_building>

    <edge_removal>
        <keep-edges.by-vclass value="passenger"/>
        <keep-edges.components value="1"/>
    </edge_removal>

    <junctions>
        <junctions.join value="true"/>
    </junctions>

    <report>
        <xml-validation value="never"/>
        <aggregate-warnings value="5"/>
    </report>

</configuration>
-->

<net version="1.6" junctionCornerDetail="5" limitTurnSpeed="5.50" xmlns:xsi="http://www.w3.org/2001/XMLSchema-instance" xsi:noNamespaceSchemaLocation="http://sumo.dlr.de/xsd/net_file.xsd">

    <location netOffset="-355467.74,-5643764.77" convBoundary="0.00,0.00,876.11,761.00" origBoundary="6.942815,50.927427,6.959964,50.940258" projParameter="+proj=utm +zone=32 +ellps=WGS84 +datum=WGS84 +units=m +no_defs"/>

    <type id="highway.bridleway" priority="1" numLanes="1" speed="2.78" allow="pedestrian" oneway="1" width="2.00"/>
    <type id="highway.bus_guideway" priority="1" numLanes="1" speed="27.78" allow="bus" oneway="1"/>
    <type id="highway.cycleway" priority="1" numLanes="1" speed="8.33" allow="bicycle" oneway="0" width="1.00"/>
    <type id="highway.footway" priority="1" numLanes="1" speed="2.78" allow="pedestrian" oneway="1" width="2.00"/>
    <type id="highway.ford" priority="1" numLanes="1" speed="2.78" allow="army" oneway="0"/>
    <type id="highway.living_street" priority="2" numLanes="1" speed="2.78" disallow="tram rail_urban rail rail_electric rail_fast ship" oneway="0"/>
    <type id="highway.motorway" priority="14" numLanes="2" speed="39.44" allow="private emergency authority army vip passenger hov taxi bus coach delivery truck trailer motorcycle evehicle custom1 custom2" oneway="1"/>
    <type id="highway.motorway_link" priority="9" numLanes="1" speed="22.22" allow="private emergency authority army vip passenger hov taxi bus coach delivery truck trailer motorcycle evehicle custom1 custom2" oneway="1"/>
    <type id="highway.path" priority="1" numLanes="1" speed="2.78" allow="pedestrian bicycle" oneway="1" width="2.00"/>
    <type id="highway.pedestrian" priority="1" numLanes="1" speed="2.78" allow="pedestrian" oneway="1" width="2.00"/>
    <type id="highway.primary" priority="12" numLanes="2" speed="27.78" disallow="tram rail_urban rail rail_electric rail_fast ship" oneway="0"/>
    <type id="highway.primary_link" priority="7" numLanes="1" speed="22.22" disallow="tram rail_urban rail rail_electric rail_fast ship" oneway="0"/>
    <type id="highway.raceway" priority="15" numLanes="2" speed="83.33" allow="vip" oneway="0"/>
    <type id="highway.residential" priority="3" numLanes="1" speed="13.89" disallow="tram rail_urban rail rail_electric rail_fast ship" oneway="0"/>
    <type id="highway.secondary" priority="11" numLanes="1" speed="27.78" disallow="tram rail_urban rail rail_electric rail_fast ship" oneway="0"/>
    <type id="highway.secondary_link" priority="6" numLanes="1" speed="22.22" disallow="tram rail_urban rail rail_electric rail_fast ship" oneway="0"/>
    <type id="highway.service" priority="1" numLanes="1" speed="5.56" allow="pedestrian delivery bicycle" oneway="0"/>
    <type id="highway.stairs" priority="1" numLanes="1" speed="1.39" allow="pedestrian" oneway="1" width="2.00"/>
    <type id="highway.step" priority="1" numLanes="1" speed="1.39" allow="pedestrian" oneway="1" width="2.00"/>
    <type id="highway.steps" priority="1" numLanes="1" speed="1.39" allow="pedestrian" oneway="1" width="2.00"/>
    <type id="highway.tertiary" priority="10" numLanes="1" speed="22.22" disallow="tram rail_urban rail rail_electric rail_fast ship" oneway="0"/>
    <type id="highway.tertiary_link" priority="5" numLanes="1" speed="22.22" disallow="tram rail_urban rail rail_electric rail_fast ship" oneway="0"/>
    <type id="highway.track" priority="1" numLanes="1" speed="5.56" disallow="tram rail_urban rail rail_electric rail_fast ship" oneway="0"/>
    <type id="highway.trunk" priority="13" numLanes="2" speed="27.78" disallow="pedestrian bicycle tram rail_urban rail rail_electric rail_fast ship" oneway="0"/>
    <type id="highway.trunk_link" priority="8" numLanes="1" speed="22.22" disallow="pedestrian bicycle tram rail_urban rail rail_electric rail_fast ship" oneway="0"/>
    <type id="highway.unclassified" priority="4" numLanes="1" speed="13.89" disallow="tram rail_urban rail rail_electric rail_fast ship" oneway="0"/>
    <type id="highway.unsurfaced" priority="1" numLanes="1" speed="8.33" disallow="tram rail_urban rail rail_electric rail_fast ship" oneway="0"/>
    <type id="railway.highspeed" priority="21" numLanes="1" speed="69.44" allow="rail_fast" oneway="1"/>
    <type id="railway.light_rail" priority="19" numLanes="1" speed="27.78" allow="rail_urban" oneway="1"/>
    <type id="railway.preserved" priority="16" numLanes="1" speed="27.78" allow="rail" oneway="1"/>
    <type id="railway.rail" priority="20" numLanes="1" speed="44.44" allow="rail" oneway="1"/>
    <type id="railway.subway" priority="18" numLanes="1" speed="27.78" allow="rail_urban" oneway="1"/>
    <type id="railway.tram" priority="17" numLanes="1" speed="13.89" allow="tram" oneway="1"/>

    <edge id=":1093872774_0" function="internal">
        <lane id=":1093872774_0_0" index="0" disallow="tram rail_urban rail rail_electric rail_fast ship" speed="7.58" length="7.56" shape="482.20,352.42 481.38,350.26 480.34,348.60 479.10,347.46 477.64,346.82"/>
    </edge>
    <edge id=":1093872774_1" function="internal">
        <lane id=":1093872774_1_0" index="0" disallow="tram rail_urban rail rail_electric rail_fast ship" speed="13.89" length="8.26" shape="485.69,348.73 477.64,346.82"/>
        <lane id=":1093872774_1_1" index="1" disallow="tram rail_urban rail rail_electric rail_fast ship" speed="13.89" length="8.26" shape="486.43,345.62 478.39,343.71"/>
        <lane id=":1093872774_1_2" index="2" disallow="tram rail_urban rail rail_electric rail_fast ship" speed="13.89" length="8.26" shape="487.17,342.51 479.15,340.60"/>
    </edge>
    <edge id=":1093872785_0" function="internal">
        <lane id=":1093872785_0_0" index="0" disallow="tram rail_urban rail rail_electric rail_fast ship" speed="8.33" length="9.02" shape="329.23,402.26 324.95,394.32"/>
    </edge>
    <edge id=":1093872785_1" function="internal">
        <lane id=":1093872785_1_0" index="0" disallow="tram rail_urban rail rail_electric rail_fast ship" speed="3.65" length="4.67" shape="329.23,402.26 329.38,400.83 329.90,400.10 330.80,400.08 332.06,400.77"/>
    </edge>
    <edge id=":1093872785_2" function="internal">
        <lane id=":1093872785_2_0" index="0" disallow="tram rail_urban rail rail_electric rail_fast ship" speed="8.33" length="9.11" shape="327.74,392.76 332.06,400.77"/>
    </edge>
    <edge id=":1093872785_3" function="internal">
        <lane id=":1093872785_3_0" index="0" disallow="tram rail_urban rail rail_electric rail_fast ship" speed="3.65" length="4.67" shape="327.74,392.76 327.63,394.19 327.13,394.93 326.24,394.98 324.95,394.32"/>
    </edge>
    <edge id=":1093872785_4" function="internal">
        <lane id=":1093872785_4_0" index="0" disallow="tram rail_urban rail rail_electric rail_fast ship" speed="7.12" length="7.97" shape="323.52,401.65 324.86,399.71 325.54,397.84 325.57,396.04 324.95,394.32"/>
    </edge>
    <edge id=":1093872785_5" function="internal">
        <lane id=":1093872785_5_0" index="0" disallow="tram rail_urban rail rail_electric rail_fast ship" speed="6.29" length="10.84" shape="323.52,401.65 326.13,399.13 328.43,398.14 330.40,398.69 332.06,400.77"/>
    </edge>
    <edge id=":1352568_0" function="internal">
        <lane id=":1352568_0_0" index="0" disallow="tram rail_urban rail rail_electric rail_fast ship" speed="6.42" length="9.04" shape="167.19,409.52 164.86,408.67 162.83,408.79 161.12,409.88 159.73,411.94"/>
    </edge>
    <edge id=":1352568_1" function="internal">
        <lane id=":1352568_1_0" index="0" disallow="tram rail_urban rail rail_electric rail_fast ship" speed="8.33" length="11.21" shape="164.65,401.87 159.73,411.94"/>
    </edge>
    <edge id=":1352576_0" function="internal">
        <lane id=":1352576_0_0" index="0" disallow="tram rail_urban rail rail_electric rail_fast ship" speed="6.58" length="8.77" shape="216.66,442.02 217.32,439.74 217.13,437.75 216.06,436.05 214.14,434.64"/>
    </edge>
    <edge id=":1352576_1" function="internal">
        <lane id=":1352576_1_0" index="0" disallow="tram rail_urban rail rail_electric rail_fast ship" speed="8.33" length="10.76" shape="216.66,442.02 221.41,432.37"/>
    </edge>
    <edge id=":1352579_0" function="internal">
        <lane id=":1352579_0_0" index="0" disallow="tram rail_urban rail rail_electric rail_fast ship" speed="13.89" length="9.22" shape="301.25,348.61 299.20,346.65 296.63,346.38 294.08,346.07 292.06,344.01"/>
        <lane id=":1352579_0_1" index="1" disallow="tram rail_urban rail rail_electric rail_fast ship" speed="13.89" length="9.22" shape="301.25,348.61 299.73,346.60 298.08,345.68 296.44,344.74 294.98,342.70"/>
        <lane id=":1352579_0_2" index="2" disallow="tram rail_urban rail rail_electric rail_fast ship" speed="13.89" length="9.22" shape="301.25,348.61 297.90,341.39"/>
    </edge>
    <edge id=":1352579_3" function="internal">
        <lane id=":1352579_3_0" index="0" disallow="tram rail_urban rail rail_electric rail_fast ship" speed="13.89" length="7.87" shape="300.82,340.09 304.14,347.22"/>
    </edge>
    <edge id=":1352581_0" function="internal">
        <lane id=":1352581_0_0" index="0" disallow="tram rail_urban rail rail_electric rail_fast ship" speed="11.11" length="11.50" shape="315.93,378.22 310.61,368.03"/>
    </edge>
    <edge id=":1352581_1" function="internal">
        <lane id=":1352581_1_0" index="0" disallow="tram rail_urban rail rail_electric rail_fast ship" speed="3.65" length="2.34" shape="315.93,378.22 316.04,376.78 316.54,376.04"/>
    </edge>
    <edge id=":1352581_6" function="internal">
        <lane id=":1352581_6_0" index="0" disallow="tram rail_urban rail rail_electric rail_fast ship" speed="3.65" length="2.34" shape="316.54,376.04 317.44,376.00 318.72,376.65"/>
    </edge>
    <edge id=":1352581_2" function="internal">
        <lane id=":1352581_2_0" index="0" disallow="tram rail_urban rail rail_electric rail_fast ship" speed="6.33" length="9.04" shape="321.15,369.28 319.03,370.63 317.92,372.30 317.82,374.31 318.72,376.65"/>
    </edge>
    <edge id=":1352581_3" function="internal">
        <lane id=":1352581_3_0" index="0" disallow="tram rail_urban rail rail_electric rail_fast ship" speed="7.42" length="11.85" shape="321.15,369.28 317.43,370.58 314.43,370.81 312.16,369.96 310.61,368.03"/>
    </edge>
    <edge id=":1352581_4" function="internal">
        <lane id=":1352581_4_0" index="0" disallow="tram rail_urban rail rail_electric rail_fast ship" speed="11.11" length="11.30" shape="313.49,366.64 318.72,376.65"/>
    </edge>
    <edge id=":1352581_5" function="internal">
        <lane id=":1352581_5_0" index="0" disallow="tram rail_urban rail rail_electric rail_fast ship" speed="3.65" length="2.34" shape="313.49,366.64 313.29,368.06 312.75,368.77"/>
    </edge>
    <edge id=":1352581_7" function="internal">
        <lane id=":1352581_7_0" index="0" disallow="tram rail_urban rail rail_electric rail_fast ship" speed="3.65" length="2.34" shape="312.75,368.77 311.85,368.76 310.61,368.03"/>
    </edge>
    <edge id=":1352604_0" function="internal">
        <lane id=":1352604_0_0" index="0" disallow="tram rail_urban rail rail_electric rail_fast ship" speed="6.78" length="9.59" shape="139.92,321.35 141.01,323.88 142.56,325.50 144.56,326.21 147.02,326.01"/>
    </edge>
    <edge id=":1352604_1" function="internal">
        <lane id=":1352604_1_0" index="0" disallow="tram rail_urban rail rail_electric rail_fast ship" speed="3.65" length="4.67" shape="139.92,321.35 139.49,322.73 138.83,323.33 137.95,323.17 136.85,322.24"/>
    </edge>
    <edge id=":1352604_2" function="internal">
        <lane id=":1352604_2_0" index="0" disallow="tram rail_urban rail rail_electric rail_fast ship" speed="6.18" length="9.05" shape="132.64,328.58 135.09,327.93 136.61,326.65 137.20,324.75 136.85,322.24"/>
    </edge>
    <edge id=":1352604_3" function="internal">
        <lane id=":1352604_3_0" index="0" disallow="tram rail_urban rail rail_electric rail_fast ship" speed="8.33" length="14.62" shape="132.64,328.58 136.30,328.10 139.87,327.52 143.42,326.83 147.02,326.01"/>
    </edge>
    <edge id=":1352628_0" function="internal">
        <lane id=":1352628_0_0" index="0" disallow="tram rail_urban rail rail_electric rail_fast ship" speed="8.33" length="9.67" shape="360.23,462.43 359.21,459.74 358.47,457.92 357.62,456.15 356.29,453.60"/>
    </edge>
    <edge id=":1352628_1" function="internal">
        <lane id=":1352628_1_0" index="0" disallow="tram rail_urban rail rail_electric rail_fast ship" speed="7.12" length="10.98" shape="360.23,462.43 359.93,460.15 360.83,458.09 362.92,456.27 366.22,454.68"/>
    </edge>
    <edge id=":1352628_2" function="internal">
        <lane id=":1352628_2_0" index="0" disallow="tram rail_urban rail rail_electric rail_fast ship" speed="3.65" length="4.67" shape="360.23,462.43 360.56,461.02 361.16,460.37 362.05,460.46 363.22,461.31"/>
    </edge>
    <edge id=":1352628_3" function="internal">
        <lane id=":1352628_3_0" index="0" disallow="tram rail_urban rail rail_electric rail_fast ship" speed="6.58" length="8.39" shape="359.12,452.11 360.43,453.92 362.05,454.95 363.98,455.20 366.22,454.68"/>
    </edge>
    <edge id=":1352628_4" function="internal">
        <lane id=":1352628_4_0" index="0" disallow="tram rail_urban rail rail_electric rail_fast ship" speed="8.33" length="10.08" shape="359.12,452.11 360.50,454.76 361.39,456.61 362.17,458.52 363.22,461.31"/>
    </edge>
    <edge id=":1352628_5" function="internal">
        <lane id=":1352628_5_0" index="0" disallow="tram rail_urban rail rail_electric rail_fast ship" speed="3.65" length="4.67" shape="359.12,452.11 358.98,453.55 358.45,454.27 357.56,454.29 356.29,453.60"/>
    </edge>
    <edge id=":1587632891_0" function="internal">
        <lane id=":1587632891_0_0" index="0" disallow="tram rail_urban rail rail_electric rail_fast ship" speed="13.89" length="15.16" shape="769.25,419.59 772.09,417.56 774.65,415.50 776.99,412.71 779.17,408.50"/>
    </edge>
    <edge id=":1587632891_1" function="internal">
        <lane id=":1587632891_1_0" index="0" disallow="tram rail_urban rail rail_electric rail_fast ship" speed="13.89" length="15.14" shape="773.61,422.63 779.17,408.50"/>
        <lane id=":1587632891_1_1" index="1" disallow="tram rail_urban rail rail_electric rail_fast ship" speed="13.89" length="15.14" shape="776.58,423.81 782.13,409.72"/>
        <lane id=":1587632891_1_2" index="2" disallow="tram rail_urban rail rail_electric rail_fast ship" speed="13.89" length="15.14" shape="779.56,424.99 785.09,410.93"/>
    </edge>
    <edge id=":1587632897_0" function="internal">
        <lane id=":1587632897_0_0" index="0" disallow="tram rail_urban rail rail_electric rail_fast ship" speed="7.62" length="4.26" shape="744.59,425.99 745.61,426.72 746.40,427.12 747.26,427.27 748.50,427.24"/>
    </edge>
    <edge id=":1587632897_1" function="internal">
        <lane id=":1587632897_1_0" index="0" disallow="tram rail_urban rail rail_electric rail_fast ship" speed="13.89" length="14.09" shape="742.68,428.56 754.28,437.23"/>
        <lane id=":1587632897_1_1" index="1" disallow="tram rail_urban rail rail_electric rail_fast ship" speed="13.89" length="14.09" shape="740.78,431.14 752.16,439.66"/>
        <lane id=":1587632897_1_2" index="2" disallow="tram rail_urban rail rail_electric rail_fast ship" speed="13.89" length="14.09" shape="738.88,433.71 750.05,442.08"/>
        <lane id=":1587632897_1_3" index="3" disallow="tram rail_urban rail rail_electric rail_fast ship" speed="13.89" length="14.09" shape="736.97,436.28 747.94,444.51"/>
    </edge>
    <edge id=":1587632929_0" function="internal">
        <lane id=":1587632929_0_0" index="0" disallow="tram rail_urban rail rail_electric rail_fast ship" speed="13.89" length="12.32" shape="745.54,485.39 746.28,481.70 746.34,478.95 745.95,476.38 745.34,473.23"/>
    </edge>
    <edge id=":1587632929_1" function="internal">
        <lane id=":1587632929_1_0" index="0" disallow="tram rail_urban rail rail_electric rail_fast ship" speed="13.89" length="10.03" shape="745.54,485.39 746.50,482.35 747.42,480.36 748.43,478.40 749.70,475.46"/>
        <lane id=":1587632929_1_1" index="1" disallow="tram rail_urban rail rail_electric rail_fast ship" speed="13.89" length="10.03" shape="748.63,486.20 749.56,483.27 750.46,481.36 751.45,479.47 752.68,476.64"/>
        <lane id=":1587632929_1_2" index="2" disallow="tram rail_urban rail rail_electric rail_fast ship" speed="13.89" length="10.03" shape="751.73,487.02 752.63,484.20 753.50,482.36 754.47,480.54 755.66,477.81"/>
        <lane id=":1587632929_1_3" index="3" disallow="tram rail_urban rail rail_electric rail_fast ship" speed="13.89" length="10.03" shape="754.82,487.84 755.69,485.13 756.54,483.36 757.48,481.62 758.63,478.99"/>
        <lane id=":1587632929_1_4" index="4" disallow="tram rail_urban rail rail_electric rail_fast ship" speed="13.89" length="10.03" shape="757.91,488.66 758.76,486.05 759.58,484.35 760.50,482.69 761.61,480.16"/>
    </edge>
    <edge id=":1587632938_0" function="internal">
        <lane id=":1587632938_0_0" index="0" disallow="tram rail_urban rail rail_electric rail_fast ship" speed="20.26" length="16.15" shape="801.98,505.07 798.02,501.88 794.44,500.22 791.02,499.33 787.54,498.45"/>
    </edge>
    <edge id=":1587632938_1" function="internal">
        <lane id=":1587632938_1_0" index="0" disallow="tram rail_urban rail rail_electric rail_fast ship" speed="27.78" length="16.32" shape="801.98,505.07 789.95,494.24"/>
        <lane id=":1587632938_1_1" index="1" disallow="tram rail_urban rail rail_electric rail_fast ship" speed="27.78" length="16.32" shape="804.24,502.80 792.11,491.87"/>
        <lane id=":1587632938_1_2" index="2" disallow="tram rail_urban rail rail_electric rail_fast ship" speed="27.78" length="16.32" shape="806.49,500.52 794.26,489.50"/>
    </edge>
    <edge id=":1670309356_0" function="internal">
        <lane id=":1670309356_0_0" index="0" disallow="tram rail_urban rail rail_electric rail_fast ship" speed="8.33" length="5.96" shape="205.51,319.93 204.50,321.38 203.85,322.40 203.27,323.46 202.48,325.04"/>
    </edge>
    <edge id=":1670309356_1" function="internal">
        <lane id=":1670309356_1_0" index="0" disallow="tram rail_urban rail rail_electric rail_fast ship" speed="5.13" length="4.91" shape="201.23,320.85 202.27,321.68 202.83,322.65 202.90,323.77 202.48,325.04"/>
    </edge>
    <edge id=":1672454694_0" function="internal">
        <lane id=":1672454694_0_0" index="0" disallow="tram rail_urban rail rail_electric rail_fast ship" speed="13.89" length="8.18" shape="440.59,318.20 443.01,318.44 444.71,318.23 446.40,318.03 448.81,318.31"/>
        <lane id=":1672454694_0_1" index="1" disallow="tram rail_urban rail rail_electric rail_fast ship" speed="13.89" length="8.18" shape="439.96,321.34 442.36,321.57 444.04,321.36 445.72,321.16 448.11,321.44"/>
        <lane id=":1672454694_0_2" index="2" disallow="tram rail_urban rail rail_electric rail_fast ship" speed="13.89" length="8.18" shape="439.33,324.48 441.71,324.70 443.38,324.49 445.04,324.29 447.41,324.56"/>
        <lane id=":1672454694_0_3" index="3" disallow="tram rail_urban rail rail_electric rail_fast ship" speed="13.89" length="8.18" shape="439.33,324.48 441.59,325.19 443.03,326.05 444.46,326.92 446.72,327.68"/>
    </edge>
    <edge id=":1806270862_0" function="internal">
        <lane id=":1806270862_0_0" index="0" disallow="tram rail_urban rail rail_electric rail_fast ship" speed="13.89" length="8.60" shape="693.57,395.23 695.93,396.09 697.82,395.96 699.71,395.83 702.06,396.70"/>
        <lane id=":1806270862_0_1" index="1" disallow="tram rail_urban rail rail_electric rail_fast ship" speed="13.89" length="8.60" shape="691.90,397.95 694.25,398.82 696.14,398.69 698.03,398.56 700.39,399.42"/>
        <lane id=":1806270862_0_2" index="2" disallow="tram rail_urban rail rail_electric rail_fast ship" speed="13.89" length="8.60" shape="691.90,397.95 698.71,402.15"/>
        <lane id=":1806270862_0_3" index="3" disallow="tram rail_urban rail rail_electric rail_fast ship" speed="13.89" length="8.60" shape="691.90,397.95 693.73,399.67 694.46,401.41 695.20,403.16 697.03,404.87"/>
    </edge>
    <edge id=":1979734866_0" function="internal">
        <lane id=":1979734866_0_0" index="0" disallow="tram rail_urban rail rail_electric rail_fast ship" speed="11.11" length="0.30" shape="703.44,465.36 703.53,465.07"/>
    </edge>
    <edge id=":213284374_0" function="internal">
        <lane id=":213284374_0_0" index="0" disallow="tram rail_urban rail rail_electric rail_fast ship" speed="3.65" length="4.67" shape="450.67,165.94 450.46,164.51 450.79,163.68 451.65,163.44 453.05,163.79"/>
    </edge>
    <edge id=":2201803723_0" function="internal">
        <lane id=":2201803723_0_0" index="0" disallow="tram rail_urban rail rail_electric rail_fast ship" speed="3.65" length="4.67" shape="466.75,601.04 465.82,602.14 464.98,602.45 464.23,601.96 463.57,600.68"/>
    </edge>
    <edge id=":242515985_0" function="internal">
        <lane id=":242515985_0_0" index="0" disallow="tram rail_urban rail rail_electric rail_fast ship" speed="7.71" length="5.93" shape="738.85,203.41 737.58,201.37 737.10,199.17 737.28,197.90"/>
    </edge>
    <edge id=":242515985_2" function="internal">
        <lane id=":242515985_2_0" index="0" disallow="tram rail_urban rail rail_electric rail_fast ship" speed="7.71" length="3.89" shape="737.28,197.90 737.44,196.80 738.58,194.26"/>
    </edge>
    <edge id=":242515985_1" function="internal">
        <lane id=":242515985_1_0" index="0" disallow="tram rail_urban rail rail_electric rail_fast ship" speed="6.02" length="9.08" shape="731.22,195.18 733.28,196.75 735.20,197.11 736.96,196.29 738.58,194.26"/>
    </edge>
    <edge id=":245901691_0" function="internal">
        <lane id=":245901691_0_0" index="0" disallow="tram rail_urban rail rail_electric rail_fast ship" speed="7.79" length="10.89" shape="482.65,469.76 482.96,472.76 484.01,475.13 485.81,476.87 488.36,477.97"/>
    </edge>
    <edge id=":245901691_1" function="internal">
        <lane id=":245901691_1_0" index="0" disallow="tram rail_urban rail rail_electric rail_fast ship" speed="8.33" length="12.68" shape="482.65,469.76 482.39,482.44"/>
    </edge>
    <edge id=":245901691_2" function="internal">
        <lane id=":245901691_2_0" index="0" disallow="tram rail_urban rail rail_electric rail_fast ship" speed="3.65" length="2.34" shape="482.65,469.76 481.82,470.95 481.02,471.33"/>
    </edge>
    <edge id=":245901691_9" function="internal">
        <lane id=":245901691_9_0" index="0" disallow="tram rail_urban rail rail_electric rail_fast ship" speed="3.65" length="2.34" shape="481.02,471.33 480.22,470.92 479.45,469.70"/>
    </edge>
    <edge id=":245901691_3" function="internal">
        <lane id=":245901691_3_0" index="0" disallow="tram rail_urban rail rail_electric rail_fast ship" speed="6.14" length="9.06" shape="473.53,474.42 476.08,474.58 477.91,473.85 479.04,472.22 479.45,469.70"/>
    </edge>
    <edge id=":245901691_4" function="internal">
        <lane id=":245901691_4_0" index="0" disallow="tram rail_urban rail rail_electric rail_fast ship" speed="8.33" length="15.25" shape="473.53,474.42 488.36,477.97"/>
    </edge>
    <edge id=":245901691_5" function="internal">
        <lane id=":245901691_5_0" index="0" disallow="tram rail_urban rail rail_electric rail_fast ship" speed="8.26" length="13.04" shape="473.53,474.42 477.46,475.63 480.24,477.37 481.89,479.64 482.39,482.44"/>
    </edge>
    <edge id=":245901691_6" function="internal">
        <lane id=":245901691_6_0" index="0" disallow="tram rail_urban rail rail_electric rail_fast ship" speed="8.33" length="12.67" shape="479.19,482.37 479.45,469.70"/>
    </edge>
    <edge id=":245901691_7" function="internal">
        <lane id=":245901691_7_0" index="0" disallow="tram rail_urban rail rail_electric rail_fast ship" speed="6.91" length="4.36" shape="479.19,482.37 479.82,479.53 480.87,478.52"/>
    </edge>
    <edge id=":245901691_8" function="internal">
        <lane id=":245901691_8_0" index="0" disallow="tram rail_urban rail rail_electric rail_fast ship" speed="3.65" length="2.34" shape="479.19,482.37 480.02,481.18 480.83,480.80"/>
    </edge>
    <edge id=":245901691_10" function="internal">
        <lane id=":245901691_10_0" index="0" disallow="tram rail_urban rail rail_electric rail_fast ship" speed="6.91" length="7.86" shape="480.87,478.52 481.56,477.85 484.40,477.33 488.36,477.97"/>
    </edge>
    <edge id=":245901691_11" function="internal">
        <lane id=":245901691_11_0" index="0" disallow="tram rail_urban rail rail_electric rail_fast ship" speed="3.65" length="2.34" shape="480.83,480.80 481.62,481.22 482.39,482.44"/>
    </edge>
    <edge id=":245902037_0" function="internal">
        <lane id=":245902037_0_0" index="0" disallow="tram rail_urban rail rail_electric rail_fast ship" speed="6.15" length="9.06" shape="422.32,463.46 424.86,463.73 426.72,463.07 427.93,461.50 428.46,459.01"/>
    </edge>
    <edge id=":245902037_1" function="internal">
        <lane id=":245902037_1_0" index="0" disallow="tram rail_urban rail rail_electric rail_fast ship" speed="8.33" length="11.47" shape="422.32,463.46 433.50,466.05"/>
    </edge>
    <edge id=":245902037_2" function="internal">
        <lane id=":245902037_2_0" index="0" disallow="tram rail_urban rail rail_electric rail_fast ship" speed="6.63" length="9.31" shape="422.32,463.46 424.75,464.43 426.30,465.90 426.98,467.87 426.78,470.34"/>
    </edge>
    <edge id=":245904901_0" function="internal">
        <lane id=":245904901_0_0" index="0" disallow="tram rail_urban rail rail_electric rail_fast ship" speed="6.08" length="2.88" shape="485.45,321.65 485.78,319.70 486.50,319.15"/>
    </edge>
    <edge id=":245904901_1" function="internal">
        <lane id=":245904901_1_0" index="0" disallow="tram rail_urban rail rail_electric rail_fast ship" speed="3.65" length="2.15" shape="485.45,321.65 486.14,320.38 486.75,320.01"/>
    </edge>
    <edge id=":245904901_4" function="internal">
        <lane id=":245904901_4_0" index="0" disallow="tram rail_urban rail rail_electric rail_fast ship" speed="6.08" length="6.94" shape="486.50,319.15 487.18,318.62 489.65,318.41 493.19,319.06"/>
    </edge>
    <edge id=":245904901_5" function="internal">
        <lane id=":245904901_5_0" index="0" disallow="tram rail_urban rail rail_electric rail_fast ship" speed="3.65" length="2.52" shape="486.75,320.01 486.90,319.91 487.74,320.24 488.64,321.37"/>
    </edge>
    <edge id=":245904901_2" function="internal">
        <lane id=":245904901_2_0" index="0" disallow="tram rail_urban rail rail_electric rail_fast ship" speed="7.69" length="9.41" shape="486.27,313.50 486.86,315.28 488.21,316.81 490.32,318.06 493.19,319.06"/>
    </edge>
    <edge id=":245904901_3" function="internal">
        <lane id=":245904901_3_0" index="0" disallow="tram rail_urban rail rail_electric rail_fast ship" speed="11.11" length="8.27" shape="486.27,313.50 486.78,315.88 487.48,317.43 488.18,318.99 488.64,321.37"/>
    </edge>
    <edge id=":245906727_0" function="internal">
        <lane id=":245906727_0_0" index="0" disallow="tram rail_urban rail rail_electric rail_fast ship" speed="7.73" length="10.40" shape="557.92,489.96 558.09,493.03 558.92,495.46 560.40,497.25 562.54,498.40"/>
    </edge>
    <edge id=":245906727_1" function="internal">
        <lane id=":245906727_1_0" index="0" disallow="tram rail_urban rail rail_electric rail_fast ship" speed="3.65" length="4.67" shape="557.92,489.96 557.07,491.12 556.25,491.48 555.47,491.04 554.73,489.81"/>
    </edge>
    <edge id=":245906727_2" function="internal">
        <lane id=":245906727_2_0" index="0" disallow="tram rail_urban rail rail_electric rail_fast ship" speed="6.09" length="9.06" shape="548.66,494.23 551.21,494.54 553.07,493.90 554.24,492.33 554.73,489.81"/>
    </edge>
    <edge id=":245906727_3" function="internal">
        <lane id=":245906727_3_0" index="0" disallow="tram rail_urban rail rail_electric rail_fast ship" speed="8.33" length="14.49" shape="548.66,494.23 562.54,498.40"/>
    </edge>
    <edge id=":2463408948_0" function="internal">
        <lane id=":2463408948_0_0" index="0" disallow="tram rail_urban rail rail_electric rail_fast ship" speed="3.65" length="4.67" shape="391.98,541.44 391.62,542.83 390.99,543.47 390.10,543.35 388.96,542.47"/>
    </edge>
    <edge id=":248147142_0" function="internal">
        <lane id=":248147142_0_0" index="0" disallow="tram rail_urban rail rail_electric rail_fast ship" speed="6.53" length="8.50" shape="613.29,509.81 612.75,512.05 613.01,513.98 614.09,515.60 615.99,516.91"/>
    </edge>