<?xml version="1.0" encoding="UTF-8"?>

<!-- generated on 2025-09-26T11:32:57.312626+01:00 by Eclipse SUMO netconvert v1_24_0+1017-55edef68438
This data file and the accompanying materials
are made available under the terms of the Eclipse Public License v2.0
which accompanies this distribution, and is available at
http://www.eclipse.org/legal/epl-v20.html
This file may also be made available under the following Secondary
Licenses when the conditions for such availability set forth in the Eclipse
Public License 2.0 are satisfied: GNU General Public License, version 2
or later which is available at
https://www.gnu.org/licenses/old-licenses/gpl-2.0-standalone.html
SPDX-License-Identifier: EPL-2.0 OR GPL-2.0-or-later
<netconvertConfiguration xmlns:xsi="http://www.w3.org/2001/XMLSchema-instance" xsi:noNamespaceSchemaLocation="http://sumo.dlr.de/xsd/netconvertConfiguration.xsd">

    <input>
        <osm-files value="osm.xml"/>
    </input>

    <output>
        <write-license value="true"/>
    </output>

    <projection>
        <proj.utm value="true"/>
    </projection>

    <processing>
        <geometry.remove value="true"/>
    </processing>

    <tls_building>
        <tls.discard-simple value="true"/>
        <tls.guess-signals value="true"/>
    </tls_building>

    <edge_removal>
        <keep-edges.by-vclass value="passenger"/>
        <keep-edges.components value="1"/>
    </edge_removal>

    <junctions>
        <junctions.join value="true"/>
    </junctions>

    <report>
        <xml-validation value="never"/>
    </report>

</netconvertConfiguration>
-->

<net version="1.20" junctionCornerDetail="5" limitTurnSpeed="5.50" xmlns:xsi="http://www.w3.org/2001/XMLSchema-instance" xsi:noNamespaceSchemaLocation="http://sumo.dlr.de/xsd/net_file.xsd">

    <location netOffset="-355467.74,-5643764.77" convBoundary="0.00,0.00,876.11,761.00" origBoundary="6.942815,50.927427,6.960033,50.940258" projParameter="+proj=utm +zone=32 +ellps=WGS84 +datum=WGS84 +units=m +no_defs"/>

    <type id="highway.primary" priority="12" numLanes="2" speed="27.78" disallow="tram rail_urban rail rail_electric rail_fast ship container cable_car subway aircraft wheelchair scooter drone" oneway="0"/>
    <type id="highway.primary_link" priority="7" numLanes="1" speed="22.22" disallow="tram rail_urban rail rail_electric rail_fast ship container cable_car subway aircraft wheelchair scooter drone" oneway="0"/>
    <type id="highway.residential" priority="3" numLanes="1" speed="13.89" disallow="tram rail_urban rail rail_electric rail_fast ship container cable_car subway aircraft wheelchair scooter drone" oneway="0"/>
    <type id="highway.secondary" priority="11" numLanes="1" speed="27.78" disallow="tram rail_urban rail rail_electric rail_fast ship container cable_car subway aircraft wheelchair scooter drone" oneway="0"/>
    <type id="highway.secondary_link" priority="6" numLanes="1" speed="22.22" disallow="tram rail_urban rail rail_electric rail_fast ship container cable_car subway aircraft wheelchair scooter drone" oneway="0"/>
    <type id="highway.tertiary" priority="10" numLanes="1" speed="22.22" disallow="tram rail_urban rail rail_electric rail_fast ship container cable_car subway aircraft wheelchair scooter drone" oneway="0"/>

    <edge id=":1029560908_0" function="internal">
        <lane id=":1029560908_0_0" index="0" disallow="pedestrian tram rail_urban rail rail_electric rail_fast ship container cable_car subway aircraft wheelchair scooter drone" speed="13.89" length="0.73" shape="791.07,447.65 791.05,447.70 791.03,447.74 791.02,447.77 791.00,447.82"/>
        <lane id=":1029560908_0_1" index="1" disallow="pedestrian tram rail_urban rail rail_electric rail_fast ship container cable_car subway aircraft wheelchair scooter drone" speed="13.89" length="0.73" shape="788.16,446.32 788.09,446.47 788.05,446.57 788.01,446.68 787.96,446.83"/>
        <lane id=":1029560908_0_2" index="2" disallow="pedestrian tram rail_urban rail rail_electric rail_fast ship container cable_car subway aircraft wheelchair scooter drone" speed="13.89" length="0.73" shape="785.25,444.99 785.13,445.24 785.06,445.41 785.00,445.58 784.92,445.84"/>
        <lane id=":1029560908_0_3" index="3" disallow="pedestrian tram rail_urban rail rail_electric rail_fast ship container cable_car subway aircraft wheelchair scooter drone" speed="13.89" length="0.73" shape="782.33,443.67 782.18,444.01 782.08,444.25 781.99,444.49 781.87,444.85"/>
    </edge>
    <edge id=":1093872774_0" function="internal">
        <lane id=":1093872774_0_0" index="0" disallow="tram rail_urban rail rail_electric rail_fast ship container cable_car subway aircraft wheelchair scooter drone" speed="7.58" length="7.56" shape="482.21,352.42 481.38,350.26 480.35,348.60 479.10,347.45 477.64,346.82"/>
    </edge>
    <edge id=":1093872774_1" function="internal">
        <lane id=":1093872774_1_0" index="0" disallow="tram rail_urban rail rail_electric rail_fast ship container cable_car subway aircraft wheelchair scooter drone" speed="13.89" length="8.26" shape="485.70,348.73 477.64,346.82"/>
        <lane id=":1093872774_1_1" index="1" disallow="tram rail_urban rail rail_electric rail_fast ship container cable_car subway aircraft wheelchair scooter drone" speed="13.89" length="8.26" shape="486.43,345.62 478.39,343.71"/>
        <lane id=":1093872774_1_2" index="2" disallow="tram rail_urban rail rail_electric rail_fast ship container cable_car subway aircraft wheelchair scooter drone" speed="13.89" length="8.26" shape="487.17,342.51 479.15,340.60"/>
    </edge>
    <edge id=":1093872785_0" function="internal">
        <lane id=":1093872785_0_0" index="0" disallow="tram rail_urban rail rail_electric rail_fast ship container cable_car subway aircraft wheelchair scooter drone" speed="8.33" length="9.02" shape="329.24,402.26 324.96,394.32"/>
    </edge>
    <edge id=":1093872785_1" function="internal">
        <lane id=":1093872785_1_0" index="0" disallow="tram rail_urban rail rail_electric rail_fast ship container cable_car subway aircraft wheelchair scooter drone" speed="3.65" length="4.67" shape="329.24,402.26 329.39,400.83 329.91,400.10 330.80,400.08 332.07,400.77"/>
    </edge>
    <edge id=":1093872785_2" function="internal">
        <lane id=":1093872785_2_0" index="0" disallow="tram rail_urban rail rail_electric rail_fast ship container cable_car subway aircraft wheelchair scooter drone" speed="8.33" length="9.11" shape="327.75,392.75 332.07,400.77"/>
    </edge>
    <edge id=":1093872785_3" function="internal">
        <lane id=":1093872785_3_0" index="0" disallow="tram rail_urban rail rail_electric rail_fast ship container cable_car subway aircraft wheelchair scooter drone" speed="3.65" length="4.67" shape="327.75,392.75 327.64,394.19 327.13,394.93 326.24,394.98 324.96,394.32"/>
    </edge>
    <edge id=":1093872785_4" function="internal">
        <lane id=":1093872785_4_0" index="0" disallow="tram rail_urban rail rail_electric rail_fast ship container cable_car subway aircraft wheelchair scooter drone" speed="7.12" length="7.97" shape="323.53,401.65 324.86,399.71 325.54,397.84 325.58,396.04 324.96,394.32"/>
    </edge>
    <edge id=":1093872785_5" function="internal">
        <lane id=":1093872785_5_0" index="0" disallow="tram rail_urban rail rail_electric rail_fast ship container cable_car subway aircraft wheelchair scooter drone" speed="6.29" length="10.84" shape="323.53,401.65 326.14,399.13 328.43,398.14 330.41,398.69 332.07,400.77"/>
    </edge>
    <edge id=":1352568_0" function="internal">
        <lane id=":1352568_0_0" index="0" disallow="tram rail_urban rail rail_electric rail_fast ship container cable_car subway aircraft wheelchair scooter drone" speed="6.42" length="9.04" shape="167.19,409.51 164.85,408.66 162.83,408.78 161.12,409.87 159.73,411.94"/>
    </edge>
    <edge id=":1352568_1" function="internal">
        <lane id=":1352568_1_0" index="0" disallow="tram rail_urban rail rail_electric rail_fast ship container cable_car subway aircraft wheelchair scooter drone" speed="8.33" length="11.21" shape="164.65,401.86 159.73,411.94"/>
    </edge>
    <edge id=":1352576_0" function="internal">
        <lane id=":1352576_0_0" index="0" disallow="tram rail_urban rail rail_electric rail_fast ship container cable_car subway aircraft wheelchair scooter drone" speed="6.57" length="8.77" shape="216.66,442.02 217.33,439.74 217.13,437.75 216.07,436.05 214.14,434.64"/>
    </edge>
    <edge id=":1352576_1" function="internal">
        <lane id=":1352576_1_0" index="0" disallow="tram rail_urban rail rail_electric rail_fast ship container cable_car subway aircraft wheelchair scooter drone" speed="8.33" length="10.76" shape="216.66,442.02 221.42,432.37"/>
    </edge>
    <edge id=":1352579_0" function="internal">
        <lane id=":1352579_0_0" index="0" disallow="tram rail_urban rail rail_electric rail_fast ship container cable_car subway aircraft wheelchair scooter drone" speed="13.89" length="9.22" shape="301.26,348.61 299.20,346.65 296.63,346.38 294.08,346.07 292.06,344.00"/>
        <lane id=":1352579_0_1" index="1" disallow="tram rail_urban rail rail_electric rail_fast ship container cable_car subway aircraft wheelchair scooter drone" speed="13.89" length="9.22" shape="301.26,348.61 299.73,346.60 298.08,345.67 296.44,344.74 294.98,342.70"/>
        <lane id=":1352579_0_2" index="2" disallow="tram rail_urban rail rail_electric rail_fast ship container cable_car subway aircraft wheelchair scooter drone" speed="13.89" length="9.22" shape="301.26,348.61 297.90,341.39"/>
    </edge>
    <edge id=":1352579_3" function="internal">
        <lane id=":1352579_3_0" index="0" disallow="tram rail_urban rail rail_electric rail_fast ship container cable_car subway aircraft wheelchair scooter drone" speed="13.89" length="7.87" shape="300.82,340.08 304.14,347.22"/>
    </edge>
    <edge id=":1352581_0" function="internal">
        <lane id=":1352581_0_0" index="0" disallow="tram rail_urban rail rail_electric rail_fast ship container cable_car subway aircraft wheelchair scooter drone" speed="11.11" length="11.50" shape="315.93,378.22 310.61,368.03"/>
    </edge>
    <edge id=":1352581_1" function="internal">
        <lane id=":1352581_1_0" index="0" disallow="tram rail_urban rail rail_electric rail_fast ship container cable_car subway aircraft wheelchair scooter drone" speed="3.65" length="1.44" shape="315.93,378.22 316.04,376.78"/>
    </edge>
    <edge id=":1352581_6" function="internal">
        <lane id=":1352581_6_0" index="0" disallow="tram rail_urban rail rail_electric rail_fast ship container cable_car subway aircraft wheelchair scooter drone" speed="3.65" length="3.23" shape="316.04,376.78 316.54,376.04 317.44,376.00 318.72,376.66"/>
    </edge>
    <edge id=":1352581_2" function="internal">
        <lane id=":1352581_2_0" index="0" disallow="tram rail_urban rail rail_electric rail_fast ship container cable_car subway aircraft wheelchair scooter drone" speed="6.33" length="9.04" shape="321.14,369.28 319.03,370.63 317.92,372.31 317.82,374.32 318.72,376.66"/>
    </edge>
    <edge id=":1352581_3" function="internal">
        <lane id=":1352581_3_0" index="0" disallow="tram rail_urban rail rail_electric rail_fast ship container cable_car subway aircraft wheelchair scooter drone" speed="7.42" length="11.85" shape="321.14,369.28 317.43,370.58 314.43,370.81 312.16,369.96 310.61,368.03"/>
    </edge>
    <edge id=":1352581_4" function="internal">
        <lane id=":1352581_4_0" index="0" disallow="tram rail_urban rail rail_electric rail_fast ship container cable_car subway aircraft wheelchair scooter drone" speed="11.11" length="11.30" shape="313.49,366.64 318.72,376.66"/>
    </edge>
    <edge id=":1352581_5" function="internal">
        <lane id=":1352581_5_0" index="0" disallow="tram rail_urban rail rail_electric rail_fast ship container cable_car subway aircraft wheelchair scooter drone" speed="3.65" length="1.44" shape="313.49,366.64 313.29,368.07"/>
    </edge>
    <edge id=":1352581_7" function="internal">
        <lane id=":1352581_7_0" index="0" disallow="tram rail_urban rail rail_electric rail_fast ship container cable_car subway aircraft wheelchair scooter drone" speed="3.65" length="3.23" shape="313.29,368.07 312.75,368.77 311.85,368.76 310.61,368.03"/>
    </edge>
    <edge id=":1352604_0" function="internal">
        <lane id=":1352604_0_0" index="0" disallow="tram rail_urban rail rail_electric rail_fast ship container cable_car subway aircraft wheelchair scooter drone" speed="6.78" length="9.59" shape="139.92,321.35 141.01,323.88 142.56,325.50 144.56,326.21 147.02,326.01"/>
    </edge>
    <edge id=":1352604_1" function="internal">
        <lane id=":1352604_1_0" index="0" disallow="tram rail_urban rail rail_electric rail_fast ship container cable_car subway aircraft wheelchair scooter drone" speed="3.65" length="4.67" shape="139.92,321.35 139.49,322.73 138.83,323.33 137.95,323.17 136.85,322.24"/>
    </edge>
    <edge id=":1352604_2" function="internal">
        <lane id=":1352604_2_0" index="0" disallow="tram rail_urban rail rail_electric rail_fast ship container cable_car subway aircraft wheelchair scooter drone" speed="6.18" length="9.05" shape="132.64,328.58 135.09,327.93 136.61,326.65 137.20,324.75 136.85,322.24"/>
    </edge>
    <edge id=":1352604_3" function="internal">
        <lane id=":1352604_3_0" index="0" disallow="tram rail_urban rail rail_electric rail_fast ship container cable_car subway aircraft wheelchair scooter drone" speed="8.33" length="14.62" shape="132.64,328.58 136.30,328.10 139.87,327.52 143.42,326.83 147.02,326.01"/>
    </edge>
    <edge id=":1352628_0" function="internal">
        <lane id=":1352628_0_0" index="0" disallow="tram rail_urban rail rail_electric rail_fast ship container cable_car subway aircraft wheelchair scooter drone" speed="8.33" length="9.67" shape="360.23,462.43 359.22,459.74 358.47,457.92 357.62,456.15 356.30,453.61"/>
    </edge>
    <edge id=":1352628_1" function="internal">
        <lane id=":1352628_1_0" index="0" disallow="tram rail_urban rail rail_electric rail_fast ship container cable_car subway aircraft wheelchair scooter drone" speed="7.12" length="10.98" shape="360.23,462.43 359.93,460.15 360.83,458.10 362.93,456.27 366.22,454.68"/>
    </edge>
    <edge id=":1352628_2" function="internal">
        <lane id=":1352628_2_0" index="0" disallow="tram rail_urban rail rail_electric rail_fast ship container cable_car subway aircraft wheelchair scooter drone" speed="3.65" length="4.67" shape="360.23,462.43 360.56,461.03 361.17,460.37 362.06,460.46 363.23,461.31"/>
    </edge>
    <edge id=":1352628_3" function="internal">
        <lane id=":1352628_3_0" index="0" disallow="tram rail_urban rail rail_electric rail_fast ship container cable_car subway aircraft wheelchair scooter drone" speed="6.58" length="8.39" shape="359.13,452.11 360.44,453.92 362.06,454.95 363.99,455.20 366.22,454.68"/>
    </edge>
    <edge id=":1352628_4" function="internal">
        <lane id=":1352628_4_0" index="0" disallow="tram rail_urban rail rail_electric rail_fast ship container cable_car subway aircraft wheelchair scooter drone" speed="8.33" length="10.08" shape="359.13,452.11 360.50,454.76 361.39,456.61 362.17,458.52 363.23,461.31"/>
    </edge>
    <edge id=":1352628_5" function="internal">
        <lane id=":1352628_5_0" index="0" disallow="tram rail_urban rail rail_electric rail_fast ship container cable_car subway aircraft wheelchair scooter drone" speed="3.65" length="4.67" shape="359.13,452.11 358.98,453.55 358.46,454.28 357.56,454.29 356.30,453.61"/>
    </edge>
    <edge id=":1587632891_0" function="internal">
        <lane id=":1587632891_0_0" index="0" disallow="pedestrian tram rail_urban rail rail_electric rail_fast ship container cable_car subway aircraft wheelchair scooter drone" speed="13.89" length="15.16" shape="769.25,419.59 772.09,417.55 774.65,415.49 776.99,412.71 779.17,408.49"/>
    </edge>
    <edge id=":1587632891_1" function="internal">
        <lane id=":1587632891_1_0" index="0" disallow="pedestrian tram rail_urban rail rail_electric rail_fast ship container cable_car subway aircraft wheelchair scooter drone" speed="13.89" length="15.15" shape="773.61,422.62 779.17,408.49"/>
        <lane id=":1587632891_1_1" index="1" disallow="pedestrian tram rail_urban rail rail_electric rail_fast ship container cable_car subway aircraft wheelchair scooter drone" speed="13.89" length="15.15" shape="776.58,423.80 782.13,409.71"/>
        <lane id=":1587632891_1_2" index="2" disallow="pedestrian tram rail_urban rail rail_electric rail_fast ship container cable_car subway aircraft wheelchair scooter drone" speed="13.89" length="15.15" shape="779.56,424.99 785.09,410.93"/>
    </edge>
    <edge id=":1587632897_0" function="internal">
        <lane id=":1587632897_0_0" index="0" disallow="tram rail_urban rail rail_electric rail_fast ship container cable_car subway aircraft wheelchair scooter drone" speed="7.64" length="4.27" shape="744.58,425.99 745.60,426.72 746.39,427.12 747.26,427.27 748.51,427.24"/>
    </edge>
    <edge id=":1587632897_1" function="internal">
        <lane id=":1587632897_1_0" index="0" disallow="pedestrian tram rail_urban rail rail_electric rail_fast ship container cable_car subway aircraft wheelchair scooter drone" speed="13.89" length="14.22" shape="742.67,428.56 754.38,437.30"/>
        <lane id=":1587632897_1_1" index="1" disallow="pedestrian tram rail_urban rail rail_electric rail_fast ship container cable_car subway aircraft wheelchair scooter drone" speed="13.89" length="14.22" shape="740.77,431.13 752.26,439.72"/>
        <lane id=":1587632897_1_2" index="2" disallow="pedestrian tram rail_urban rail rail_electric rail_fast ship container cable_car subway aircraft wheelchair scooter drone" speed="13.89" length="14.22" shape="738.87,433.71 750.15,442.15"/>
        <lane id=":1587632897_1_3" index="3" disallow="pedestrian tram rail_urban rail rail_electric rail_fast ship container cable_car subway aircraft wheelchair scooter drone" speed="13.89" length="14.22" shape="736.96,436.28 748.04,444.58"/>
    </edge>
    <edge id=":1587632929_0" function="internal">
        <lane id=":1587632929_0_0" index="0" disallow="tram rail_urban rail rail_electric rail_fast ship container cable_car subway aircraft wheelchair scooter drone" speed="13.89" length="12.32" shape="745.54,485.38 746.28,481.70 746.34,478.95 745.95,476.38 745.34,473.23"/>
    </edge>
    <edge id=":1587632929_1" function="internal">
        <lane id=":1587632929_1_0" index="0" disallow="pedestrian tram rail_urban rail rail_electric rail_fast ship container cable_car subway aircraft wheelchair scooter drone" speed="13.89" length="10.02" shape="745.54,485.38 746.50,482.35 747.42,480.36 748.44,478.41 749.70,475.47"/>
        <lane id=":1587632929_1_1" index="1" disallow="pedestrian tram rail_urban rail rail_electric rail_fast ship container cable_car subway aircraft wheelchair scooter drone" speed="13.89" length="10.02" shape="748.63,486.20 749.56,483.27 750.46,481.36 751.45,479.48 752.68,476.65"/>
        <lane id=":1587632929_1_2" index="2" disallow="pedestrian tram rail_urban rail rail_electric rail_fast ship container cable_car subway aircraft wheelchair scooter drone" speed="13.89" length="10.02" shape="751.73,487.02 752.63,484.20 753.50,482.36 754.47,480.55 755.66,477.82"/>
        <lane id=":1587632929_1_3" index="3" disallow="pedestrian tram rail_urban rail rail_electric rail_fast ship container cable_car subway aircraft wheelchair scooter drone" speed="13.89" length="10.02" shape="754.82,487.84 755.69,485.12 756.54,483.36 757.48,481.62 758.63,479.00"/>
        <lane id=":1587632929_1_4" index="4" disallow="pedestrian tram rail_urban rail rail_electric rail_fast ship container cable_car subway aircraft wheelchair scooter drone" speed="13.89" length="10.02" shape="757.91,488.65 758.76,486.05 759.59,484.36 760.50,482.69 761.61,480.17"/>
    </edge>
    <edge id=":1587632938_0" function="internal">
        <lane id=":1587632938_0_0" index="0" disallow="tram rail_urban rail rail_electric rail_fast ship container cable_car subway aircraft wheelchair scooter drone" speed="20.35" length="16.13" shape="801.95,505.05 797.99,501.88 794.42,500.22 791.00,499.32 787.53,498.45"/>
    </edge>
    <edge id=":1587632938_1" function="internal">
        <lane id=":1587632938_1_0" index="0" disallow="pedestrian tram rail_urban rail rail_electric rail_fast ship container cable_car subway aircraft wheelchair scooter drone" speed="27.78" length="16.30" shape="801.95,505.05 789.94,494.23"/>
        <lane id=":1587632938_1_1" index="1" disallow="pedestrian tram rail_urban rail rail_electric rail_fast ship container cable_car subway aircraft wheelchair scooter drone" speed="27.78" length="16.30" shape="804.20,502.78 792.10,491.87"/>
        <lane id=":1587632938_1_2" index="2" disallow="pedestrian tram rail_urban rail rail_electric rail_fast ship container cable_car subway aircraft wheelchair scooter drone" speed="27.78" length="16.30" shape="806.45,500.50 794.25,489.50"/>
    </edge>
    <edge id=":1670309356_0" function="internal">
        <lane id=":1670309356_0_0" index="0" disallow="tram rail_urban rail rail_electric rail_fast ship container cable_car subway aircraft wheelchair scooter drone" speed="8.33" length="5.95" shape="205.51,319.92 204.50,321.37 203.85,322.39 203.27,323.46 202.48,325.04"/>
    </edge>
    <edge id=":1670309356_1" function="internal">
        <lane id=":1670309356_1_0" index="0" disallow="tram rail_urban rail rail_electric rail_fast ship container cable_car subway aircraft wheelchair scooter drone" speed="5.13" length="4.91" shape="201.23,320.85 202.27,321.68 202.83,322.65 202.90,323.77 202.48,325.04"/>
    </edge>
    <edge id=":1672454694_0" function="internal">
        <lane id=":1672454694_0_0" index="0" disallow="tram rail_urban rail rail_electric rail_fast ship container cable_car subway aircraft wheelchair scooter drone" speed="13.89" length="8.20" shape="440.59,318.20 443.01,318.44 444.71,318.23 446.40,318.03 448.81,318.31"/>
        <lane id=":1672454694_0_1" index="1" disallow="tram rail_urban rail rail_electric rail_fast ship container cable_car subway aircraft wheelchair scooter drone" speed="13.89" length="8.20" shape="440.59,318.20 442.90,318.93 444.36,319.79 445.82,320.67 448.11,321.44"/>
        <lane id=":1672454694_0_2" index="2" disallow="tram rail_urban rail rail_electric rail_fast ship container cable_car subway aircraft wheelchair scooter drone" speed="13.89" length="8.20" shape="439.96,321.34 442.25,322.06 443.69,322.92 445.14,323.80 447.42,324.56"/>
        <lane id=":1672454694_0_3" index="3" disallow="tram rail_urban rail rail_electric rail_fast ship container cable_car subway aircraft wheelchair scooter drone" speed="13.89" length="8.20" shape="439.33,324.48 441.59,325.19 443.03,326.05 444.46,326.92 446.72,327.68"/>
    </edge>
    <edge id=":1806157957_0" function="internal">
        <lane id=":1806157957_0_0" index="0" disallow="pedestrian tram rail_urban rail rail_electric rail_fast ship container cable_car subway aircraft wheelchair scooter drone" speed="13.89" length="2.48" shape="791.22,472.54 789.45,470.75"/>
        <lane id=":1806157957_0_1" index="1" disallow="pedestrian tram rail_urban rail rail_electric rail_fast ship container cable_car subway aircraft wheelchair scooter drone" speed="13.89" length="2.48" shape="788.95,474.79 787.22,473.05"/>
    </edge>
    <edge id=":1806270862_0" function="internal">
        <lane id=":1806270862_0_0" index="0" disallow="tram rail_urban rail rail_electric rail_fast ship container cable_car subway aircraft wheelchair scooter drone" speed="13.89" length="8.60" shape="693.57,395.23 695.93,396.09 697.82,395.96 699.70,395.83 702.06,396.70"/>
        <lane id=":1806270862_0_1" index="1" disallow="tram rail_urban rail rail_electric rail_fast ship container cable_car subway aircraft wheelchair scooter drone" speed="13.89" length="8.60" shape="691.90,397.95 694.25,398.82 696.14,398.69 698.03,398.56 700.39,399.42"/>
        <lane id=":1806270862_0_2" index="2" disallow="tram rail_urban rail rail_electric rail_fast ship container cable_car subway aircraft wheelchair scooter drone" speed="13.89" length="8.60" shape="691.90,397.95 698.71,402.15"/>
        <lane id=":1806270862_0_3" index="3" disallow="tram rail_urban rail rail_electric rail_fast ship container cable_car subway aircraft wheelchair scooter drone" speed="13.89" length="8.60" shape="691.90,397.95 693.73,399.67 694.46,401.42 695.20,403.16 697.03,404.87"/>
    </edge>
    <edge id=":1979734866_0" function="internal">
        <lane id=":1979734866_0_0" index="0" disallow="tram rail_urban rail rail_electric rail_fast ship container cable_car subway aircraft wheelchair scooter drone" speed="11.11" length="0.10" shape="703.49,465.22 703.49,465.22"/>
    </edge>
    <edge id=":213284374_0" function="internal">
        <lane id=":213284374_0_0" index="0" disallow="tram rail_urban rail rail_electric rail_fast ship container cable_car subway aircraft wheelchair scooter drone" speed="3.65" length="4.67" shape="450.67,165.94 450.46,164.52 450.79,163.68 451.65,163.44 453.05,163.80"/>
    </edge>
    <edge id=":2201803723_0" function="internal">
        <lane id=":2201803723_0_0" index="0" disallow="tram rail_urban rail rail_electric rail_fast ship container cable_car subway aircraft wheelchair scooter drone" speed="3.65" length="4.67" shape="466.75,601.04 465.82,602.14 464.98,602.45 464.23,601.96 463.57,600.68"/>
    </edge>
    <edge id=":242515985_0" function="internal">
        <lane id=":242515985_0_0" index="0" disallow="tram rail_urban rail rail_electric rail_fast ship container cable_car subway aircraft wheelchair scooter drone" speed="7.71" length="5.98" shape="738.85,203.41 737.57,201.37 737.10,199.17 737.29,197.86"/>
    </edge>
    <edge id=":242515985_2" function="internal">
        <lane id=":242515985_2_0" index="0" disallow="tram rail_urban rail rail_electric rail_fast ship container cable_car subway aircraft wheelchair scooter drone" speed="7.71" length="3.84" shape="737.29,197.86 737.43,196.80 738.57,194.27"/>
    </edge>
    <edge id=":242515985_1" function="internal">
        <lane id=":242515985_1_0" index="0" disallow="tram rail_urban rail rail_electric rail_fast ship container cable_car subway aircraft wheelchair scooter drone" speed="6.02" length="9.08" shape="731.22,195.18 733.28,196.75 735.19,197.12 736.96,196.29 738.57,194.27"/>
    </edge>
    <edge id=":245901691_0" function="internal">
        <lane id=":245901691_0_0" index="0" disallow="tram rail_urban rail rail_electric rail_fast ship container cable_car subway aircraft wheelchair scooter drone" speed="7.79" length="10.88" shape="482.64,469.76 482.96,472.76 484.01,475.13 485.81,476.87 488.35,477.97"/>
    </edge>
    <edge id=":245901691_1" function="internal">
        <lane id=":245901691_1_0" index="0" disallow="tram rail_urban rail rail_electric rail_fast ship container cable_car subway aircraft wheelchair scooter drone" speed="8.33" length="12.68" shape="482.64,469.76 482.39,482.44"/>
    </edge>
    <edge id=":245901691_2" function="internal">
        <lane id=":245901691_2_0" index="0" disallow="tram rail_urban rail rail_electric rail_fast ship container cable_car subway aircraft wheelchair scooter drone" speed="3.65" length="1.44" shape="482.64,469.76 481.82,470.95"/>
    </edge>
    <edge id=":245901691_9" function="internal">
        <lane id=":245901691_9_0" index="0" disallow="tram rail_urban rail rail_electric rail_fast ship container cable_car subway aircraft wheelchair scooter drone" speed="3.65" length="3.23" shape="481.82,470.95 481.01,471.33 480.22,470.92 479.44,469.70"/>
    </edge>
    <edge id=":245901691_3" function="internal">
        <lane id=":245901691_3_0" index="0" disallow="tram rail_urban rail rail_electric rail_fast ship container cable_car subway aircraft wheelchair scooter drone" speed="6.14" length="9.06" shape="473.53,474.42 476.08,474.58 477.91,473.85 479.03,472.22 479.44,469.70"/>
    </edge>
    <edge id=":245901691_4" function="internal">
        <lane id=":245901691_4_0" index="0" disallow="tram rail_urban rail rail_electric rail_fast ship container cable_car subway aircraft wheelchair scooter drone" speed="8.33" length="15.24" shape="473.53,474.42 488.35,477.97"/>
    </edge>
    <edge id=":245901691_5" function="internal">
        <lane id=":245901691_5_0" index="0" disallow="tram rail_urban rail rail_electric rail_fast ship container cable_car subway aircraft wheelchair scooter drone" speed="8.26" length="13.04" shape="473.53,474.42 477.46,475.63 480.24,477.37 481.88,479.64 482.39,482.44"/>
    </edge>
    <edge id=":245901691_6" function="internal">
        <lane id=":245901691_6_0" index="0" disallow="tram rail_urban rail rail_electric rail_fast ship container cable_car subway aircraft wheelchair scooter drone" speed="8.33" length="12.67" shape="479.19,482.37 479.44,469.70"/>
    </edge>
    <edge id=":245901691_7" function="internal">
        <lane id=":245901691_7_0" index="0" disallow="tram rail_urban rail rail_electric rail_fast ship container cable_car subway aircraft wheelchair scooter drone" speed="6.91" length="2.90" shape="479.19,482.37 479.82,479.53"/>
    </edge>
    <edge id=":245901691_8" function="internal">
        <lane id=":245901691_8_0" index="0" disallow="tram rail_urban rail rail_electric rail_fast ship container cable_car subway aircraft wheelchair scooter drone" speed="3.65" length="1.44" shape="479.19,482.37 480.01,481.19"/>
    </edge>
    <edge id=":245901691_10" function="internal">
        <lane id=":245901691_10_0" index="0" disallow="tram rail_urban rail rail_electric rail_fast ship container cable_car subway aircraft wheelchair scooter drone" speed="6.91" length="9.31" shape="479.82,479.53 481.56,477.86 484.40,477.34 488.35,477.97"/>
    </edge>
    <edge id=":245901691_11" function="internal">