<?xml version="1.0" encoding="UTF-8"?>
<connections version="0.13">
    <crossing node="C" edges="NC CN" width="4.5"/>
    <crossing node="C" edges="SC CS" width="4.5"/>
    <crossing node="C" edges="EC CE" width="4.5"/>
    <crossing node="C" edges="WC CW" width="4.5"/>
    <crossing node="C" edges="WC CW NC CN" width="4.5" shape="109.70,109.70 91.30,91.30"/>
    <crossing node="C" edges="WC CW SC CS" width="4.5" shape="91.30,109.70 109.70,91.30"/>
</connections>
