<?xml version="1.0" encoding="UTF-8"?>

<!-- generated on 2022-01-20 15:15:05 by Eclipse SUMO netedit Version v1_11_0+1305-0448234e9dc
-->

<routes xmlns:xsi="http://www.w3.org/2001/XMLSchema-instance" xsi:noNamespaceSchemaLocation="http://sumo.dlr.de/xsd/routes_file.xsd">
    <vType id="custom_vType" length="20.00" vClass="bus" width="5.00" height="12.00" color="cyan"/>
    <vehicle id="v_0" type="custom_vType" depart="0.00">
        <route edges="gneE2 gneE4 gneE5"/>
    </vehicle>
</routes>
