<?xml version="1.0" encoding="UTF-8"?>

<!-- generated on 2025-04-27 21:55:25 by Eclipse SUMO sumo Version v1_22_0+1759-b1f4886e09b
This data file and the accompanying materials
are made available under the terms of the Eclipse Public License v2.0
which accompanies this distribution, and is available at
http://www.eclipse.org/legal/epl-v20.html
This file may also be made available under the following Secondary
Licenses when the conditions for such availability set forth in the Eclipse
Public License 2.0 are satisfied: GNU General Public License, version 2
or later which is available at
https://www.gnu.org/licenses/old-licenses/gpl-2.0-standalone.html
SPDX-License-Identifier: EPL-2.0 OR GPL-2.0-or-later
<sumoConfiguration xmlns:xsi="http://www.w3.org/2001/XMLSchema-instance" xsi:noNamespaceSchemaLocation="http://sumo.dlr.de/xsd/sumoConfiguration.xsd">

    <input>
        <net-file value="net.net.xml"/>
        <route-files value="input_routes.rou.xml"/>
        <additional-files value="input_additional.add.xml"/>
    </input>

    <output>
        <write-license value="true"/>
        <chargingstations-output value="chargingstations.xml"/>
        <tripinfo-output value="tripinfos.xml"/>
    </output>

    <processing>
        <default.speeddev value="0"/>
    </processing>

    <report>
        <xml-validation value="never"/>
        <duration-log.disable value="true"/>
        <no-step-log value="true"/>
    </report>

    <battery>
        <device.stationfinder.probability value="1"/>
        <device.stationfinder.checkEnergyForRoute value="false"/>
    </battery>

</sumoConfiguration>
-->

<chargingstations-export>
    <chargingStation id="CS1" totalEnergyCharged="0.00" chargingSteps="0"/>
    <chargingStation id="CS2" totalEnergyCharged="0.00" chargingSteps="0"/>
    <chargingStation id="CS3" totalEnergyCharged="0.00" chargingSteps="0"/>
    <chargingStation id="CS4" totalEnergyCharged="14259.56" chargingSteps="4941">
        <vehicle id="veh0" type="ElectricVehicle1" totalEnergyChargedIntoVehicle="14259.56" chargingBegin="428.00" chargingEnd="5368.00">
            <step time="428.00" chargingStatus="waitingChargeInTransit" energyCharged="0.00" partialCharge="0.00" power="13000.00" efficiency="0.80" actualBatteryCapacity="12325.64" maximumBatteryCapacity="35000.00"/>
            <step time="429.00" chargingStatus="waitingChargeInTransit" energyCharged="0.00" partialCharge="0.00" power="13000.00" efficiency="0.80" actualBatteryCapacity="12329.48" maximumBatteryCapacity="35000.00"/>
            <step time="430.00" chargingStatus="waitingChargeInTransit" energyCharged="0.00" partialCharge="0.00" power="13000.00" efficiency="0.80" actualBatteryCapacity="12344.40" maximumBatteryCapacity="35000.00"/>
            <step time="431.00" chargingStatus="waitingChargeInTransit" energyCharged="0.00" partialCharge="0.00" power="13000.00" efficiency="0.80" actualBatteryCapacity="12352.04" maximumBatteryCapacity="35000.00"/>
            <step time="432.00" chargingStatus="waitingChargeInTransit" energyCharged="0.00" partialCharge="0.00" power="13000.00" efficiency="0.80" actualBatteryCapacity="12352.86" maximumBatteryCapacity="35000.00"/>
            <step time="433.00" chargingStatus="chargingStopped" energyCharged="2.89" partialCharge="2.89" power="13000.00" efficiency="0.80" actualBatteryCapacity="12355.75" maximumBatteryCapacity="35000.00"/>
            <step time="434.00" chargingStatus="chargingStopped" energyCharged="2.89" partialCharge="5.78" power="13000.00" efficiency="0.80" actualBatteryCapacity="12358.64" maximumBatteryCapacity="35000.00"/>
            <step time="435.00" chargingStatus="chargingStopped" energyCharged="2.89" partialCharge="8.67" power="13000.00" efficiency="0.80" actualBatteryCapacity="12361.52" maximumBatteryCapacity="35000.00"/>
            <step time="436.00" chargingStatus="chargingStopped" energyCharged="2.89" partialCharge="11.56" power="13000.00" efficiency="0.80" actualBatteryCapacity="12364.41" maximumBatteryCapacity="35000.00"/>
            <step time="437.00" chargingStatus="chargingStopped" energyCharged="2.89" partialCharge="14.44" power="13000.00" efficiency="0.80" actualBatteryCapacity="12367.30" maximumBatteryCapacity="35000.00"/>
            <step time="438.00" chargingStatus="chargingStopped" energyCharged="2.89" partialCharge="17.33" power="13000.00" efficiency="0.80" actualBatteryCapacity="12370.19" maximumBatteryCapacity="35000.00"/>
            <step time="439.00" chargingStatus="chargingStopped" energyCharged="2.89" partialCharge="20.22" power="13000.00" efficiency="0.80" actualBatteryCapacity="12373.08" maximumBatteryCapacity="35000.00"/>
            <step time="440.00" chargingStatus="chargingStopped" energyCharged="2.89" partialCharge="23.11" power="13000.00" efficiency="0.80" actualBatteryCapacity="12375.97" maximumBatteryCapacity="35000.00"/>
            <step time="441.00" chargingStatus="chargingStopped" energyCharged="2.89" partialCharge="26.00" power="13000.00" efficiency="0.80" actualBatteryCapacity="12378.86" maximumBatteryCapacity="35000.00"/>
            <step time="442.00" chargingStatus="chargingStopped" energyCharged="2.89" partialCharge="28.89" power="13000.00" efficiency="0.80" actualBatteryCapacity="12381.75" maximumBatteryCapacity="35000.00"/>
            <step time="443.00" chargingStatus="chargingStopped" energyCharged="2.89" partialCharge="31.78" power="13000.00" efficiency="0.80" actualBatteryCapacity="12384.64" maximumBatteryCapacity="35000.00"/>
            <step time="444.00" chargingStatus="chargingStopped" energyCharged="2.89" partialCharge="34.67" power="13000.00" efficiency="0.80" actualBatteryCapacity="12387.52" maximumBatteryCapacity="35000.00"/>
            <step time="445.00" chargingStatus="chargingStopped" energyCharged="2.89" partialCharge="37.56" power="13000.00" efficiency="0.80" actualBatteryCapacity="12390.41" maximumBatteryCapacity="35000.00"/>
            <step time="446.00" chargingStatus="chargingStopped" energyCharged="2.89" partialCharge="40.44" power="13000.00" efficiency="0.80" actualBatteryCapacity="12393.30" maximumBatteryCapacity="35000.00"/>
            <step time="447.00" chargingStatus="chargingStopped" energyCharged="2.89" partialCharge="43.33" power="13000.00" efficiency="0.80" actualBatteryCapacity="12396.19" maximumBatteryCapacity="35000.00"/>
            <step time="448.00" chargingStatus="chargingStopped" energyCharged="2.89" partialCharge="46.22" power="13000.00" efficiency="0.80" actualBatteryCapacity="12399.08" maximumBatteryCapacity="35000.00"/>
            <step time="449.00" chargingStatus="chargingStopped" energyCharged="2.89" partialCharge="49.11" power="13000.00" efficiency="0.80" actualBatteryCapacity="12401.97" maximumBatteryCapacity="35000.00"/>
            <step time="450.00" chargingStatus="chargingStopped" energyCharged="2.89" partialCharge="52.00" power="13000.00" efficiency="0.80" actualBatteryCapacity="12404.86" maximumBatteryCapacity="35000.00"/>
            <step time="451.00" chargingStatus="chargingStopped" energyCharged="2.89" partialCharge="54.89" power="13000.00" efficiency="0.80" actualBatteryCapacity="12407.75" maximumBatteryCapacity="35000.00"/>
            <step time="452.00" chargingStatus="chargingStopped" energyCharged="2.89" partialCharge="57.78" power="13000.00" efficiency="0.80" actualBatteryCapacity="12410.64" maximumBatteryCapacity="35000.00"/>
            <step time="453.00" chargingStatus="chargingStopped" energyCharged="2.89" partialCharge="60.67" power="13000.00" efficiency="0.80" actualBatteryCapacity="12413.52" maximumBatteryCapacity="35000.00"/>
            <step time="454.00" chargingStatus="chargingStopped" energyCharged="2.89" partialCharge="63.56" power="13000.00" efficiency="0.80" actualBatteryCapacity="12416.41" maximumBatteryCapacity="35000.00"/>
            <step time="455.00" chargingStatus="chargingStopped" energyCharged="2.89" partialCharge="66.44" power="13000.00" efficiency="0.80" actualBatteryCapacity="12419.30" maximumBatteryCapacity="35000.00"/>
            <step time="456.00" chargingStatus="chargingStopped" energyCharged="2.89" partialCharge="69.33" power="13000.00" efficiency="0.80" actualBatteryCapacity="12422.19" maximumBatteryCapacity="35000.00"/>
            <step time="457.00" chargingStatus="chargingStopped" energyCharged="2.89" partialCharge="72.22" power="13000.00" efficiency="0.80" actualBatteryCapacity="12425.08" maximumBatteryCapacity="35000.00"/>
            <step time="458.00" chargingStatus="chargingStopped" energyCharged="2.89" partialCharge="75.11" power="13000.00" efficiency="0.80" actualBatteryCapacity="12427.97" maximumBatteryCapacity="35000.00"/>
            <step time="459.00" chargingStatus="chargingStopped" energyCharged="2.89" partialCharge="78.00" power="13000.00" efficiency="0.80" actualBatteryCapacity="12430.86" maximumBatteryCapacity="35000.00"/>
            <step time="460.00" chargingStatus="chargingStopped" energyCharged="2.89" partialCharge="80.89" power="13000.00" efficiency="0.80" actualBatteryCapacity="12433.75" maximumBatteryCapacity="35000.00"/>
            <step time="461.00" chargingStatus="chargingStopped" energyCharged="2.89" partialCharge="83.78" power="13000.00" efficiency="0.80" actualBatteryCapacity="12436.64" maximumBatteryCapacity="35000.00"/>
            <step time="462.00" chargingStatus="chargingStopped" energyCharged="2.89" partialCharge="86.67" power="13000.00" efficiency="0.80" actualBatteryCapacity="12439.52" maximumBatteryCapacity="35000.00"/>
            <step time="463.00" chargingStatus="chargingStopped" energyCharged="2.89" partialCharge="89.56" power="13000.00" efficiency="0.80" actualBatteryCapacity="12442.41" maximumBatteryCapacity="35000.00"/>
            <step time="464.00" chargingStatus="chargingStopped" energyCharged="2.89" partialCharge="92.44" power="13000.00" efficiency="0.80" actualBatteryCapacity="12445.30" maximumBatteryCapacity="35000.00"/>
            <step time="465.00" chargingStatus="chargingStopped" energyCharged="2.89" partialCharge="95.33" power="13000.00" efficiency="0.80" actualBatteryCapacity="12448.19" maximumBatteryCapacity="35000.00"/>
            <step time="466.00" chargingStatus="chargingStopped" energyCharged="2.89" partialCharge="98.22" power="13000.00" efficiency="0.80" actualBatteryCapacity="12451.08" maximumBatteryCapacity="35000.00"/>
            <step time="467.00" chargingStatus="chargingStopped" energyCharged="2.89" partialCharge="101.11" power="13000.00" efficiency="0.80" actualBatteryCapacity="12453.97" maximumBatteryCapacity="35000.00"/>
            <step time="468.00" chargingStatus="chargingStopped" energyCharged="2.89" partialCharge="104.00" power="13000.00" efficiency="0.80" actualBatteryCapacity="12456.86" maximumBatteryCapacity="35000.00"/>
            <step time="469.00" chargingStatus="chargingStopped" energyCharged="2.89" partialCharge="106.89" power="13000.00" efficiency="0.80" actualBatteryCapacity="12459.75" maximumBatteryCapacity="35000.00"/>
            <step time="470.00" chargingStatus="chargingStopped" energyCharged="2.89" partialCharge="109.78" power="13000.00" efficiency="0.80" actualBatteryCapacity="12462.64" maximumBatteryCapacity="35000.00"/>
            <step time="471.00" chargingStatus="chargingStopped" energyCharged="2.89" partialCharge="112.67" power="13000.00" efficiency="0.80" actualBatteryCapacity="12465.52" maximumBatteryCapacity="35000.00"/>
            <step time="472.00" chargingStatus="chargingStopped" energyCharged="2.89" partialCharge="115.56" power="13000.00" efficiency="0.80" actualBatteryCapacity="12468.41" maximumBatteryCapacity="35000.00"/>
            <step time="473.00" chargingStatus="chargingStopped" energyCharged="2.89" partialCharge="118.44" power="13000.00" efficiency="0.80" actualBatteryCapacity="12471.30" maximumBatteryCapacity="35000.00"/>
            <step time="474.00" chargingStatus="chargingStopped" energyCharged="2.89" partialCharge="121.33" power="13000.00" efficiency="0.80" actualBatteryCapacity="12474.19" maximumBatteryCapacity="35000.00"/>
            <step time="475.00" chargingStatus="chargingStopped" energyCharged="2.89" partialCharge="124.22" power="13000.00" efficiency="0.80" actualBatteryCapacity="12477.08" maximumBatteryCapacity="35000.00"/>
            <step time="476.00" chargingStatus="chargingStopped" energyCharged="2.89" partialCharge="127.11" power="13000.00" efficiency="0.80" actualBatteryCapacity="12479.97" maximumBatteryCapacity="35000.00"/>
            <step time="477.00" chargingStatus="chargingStopped" energyCharged="2.89" partialCharge="130.00" power="13000.00" efficiency="0.80" actualBatteryCapacity="12482.86" maximumBatteryCapacity="35000.00"/>
            <step time="478.00" chargingStatus="chargingStopped" energyCharged="2.89" partialCharge="132.89" power="13000.00" efficiency="0.80" actualBatteryCapacity="12485.75" maximumBatteryCapacity="35000.00"/>
            <step time="479.00" chargingStatus="chargingStopped" energyCharged="2.89" partialCharge="135.78" power="13000.00" efficiency="0.80" actualBatteryCapacity="12488.64" maximumBatteryCapacity="35000.00"/>
            <step time="480.00" chargingStatus="chargingStopped" energyCharged="2.89" partialCharge="138.67" power="13000.00" efficiency="0.80" actualBatteryCapacity="12491.52" maximumBatteryCapacity="35000.00"/>
            <step time="481.00" chargingStatus="chargingStopped" energyCharged="2.89" partialCharge="141.56" power="13000.00" efficiency="0.80" actualBatteryCapacity="12494.41" maximumBatteryCapacity="35000.00"/>
            <step time="482.00" chargingStatus="chargingStopped" energyCharged="2.89" partialCharge="144.44" power="13000.00" efficiency="0.80" actualBatteryCapacity="12497.30" maximumBatteryCapacity="35000.00"/>
            <step time="483.00" chargingStatus="chargingStopped" energyCharged="2.89" partialCharge="147.33" power="13000.00" efficiency="0.80" actualBatteryCapacity="12500.19" maximumBatteryCapacity="35000.00"/>
            <step time="484.00" chargingStatus="chargingStopped" energyCharged="2.89" partialCharge="150.22" power="13000.00" efficiency="0.80" actualBatteryCapacity="12503.08" maximumBatteryCapacity="35000.00"/>
            <step time="485.00" chargingStatus="chargingStopped" energyCharged="2.89" partialCharge="153.11" power="13000.00" efficiency="0.80" actualBatteryCapacity="12505.97" maximumBatteryCapacity="35000.00"/>
            <step time="486.00" chargingStatus="chargingStopped" energyCharged="2.89" partialCharge="156.00" power="13000.00" efficiency="0.80" actualBatteryCapacity="12508.86" maximumBatteryCapacity="35000.00"/>
            <step time="487.00" chargingStatus="chargingStopped" energyCharged="2.89" partialCharge="158.89" power="13000.00" efficiency="0.80" actualBatteryCapacity="12511.75" maximumBatteryCapacity="35000.00"/>
            <step time="488.00" chargingStatus="chargingStopped" energyCharged="2.89" partialCharge="161.78" power="13000.00" efficiency="0.80" actualBatteryCapacity="12514.64" maximumBatteryCapacity="35000.00"/>
            <step time="489.00" chargingStatus="chargingStopped" energyCharged="2.89" partialCharge="164.67" power="13000.00" efficiency="0.80" actualBatteryCapacity="12517.52" maximumBatteryCapacity="35000.00"/>
            <step time="490.00" chargingStatus="chargingStopped" energyCharged="2.89" partialCharge="167.56" power="13000.00" efficiency="0.80" actualBatteryCapacity="12520.41" maximumBatteryCapacity="35000.00"/>
            <step time="491.00" chargingStatus="chargingStopped" energyCharged="2.89" partialCharge="170.44" power="13000.00" efficiency="0.80" actualBatteryCapacity="12523.30" maximumBatteryCapacity="35000.00"/>
            <step time="492.00" chargingStatus="chargingStopped" energyCharged="2.89" partialCharge="173.33" power="13000.00" efficiency="0.80" actualBatteryCapacity="12526.19" maximumBatteryCapacity="35000.00"/>
            <step time="493.00" chargingStatus="chargingStopped" energyCharged="2.89" partialCharge="176.22" power="13000.00" efficiency="0.80" actualBatteryCapacity="12529.08" maximumBatteryCapacity="35000.00"/>
            <step time="494.00" chargingStatus="chargingStopped" energyCharged="2.89" partialCharge="179.11" power="13000.00" efficiency="0.80" actualBatteryCapacity="12531.97" maximumBatteryCapacity="35000.00"/>
            <step time="495.00" chargingStatus="chargingStopped" energyCharged="2.89" partialCharge="182.00" power="13000.00" efficiency="0.80" actualBatteryCapacity="12534.86" maximumBatteryCapacity="35000.00"/>
            <step time="496.00" chargingStatus="chargingStopped" energyCharged="2.89" partialCharge="184.89" power="13000.00" efficiency="0.80" actualBatteryCapacity="12537.75" maximumBatteryCapacity="35000.00"/>
            <step time="497.00" chargingStatus="chargingStopped" energyCharged="2.89" partialCharge="187.78" power="13000.00" efficiency="0.80" actualBatteryCapacity="12540.64" maximumBatteryCapacity="35000.00"/>
            <step time="498.00" chargingStatus="chargingStopped" energyCharged="2.89" partialCharge="190.67" power="13000.00" efficiency="0.80" actualBatteryCapacity="12543.52" maximumBatteryCapacity="35000.00"/>
            <step time="499.00" chargingStatus="chargingStopped" energyCharged="2.89" partialCharge="193.56" power="13000.00" efficiency="0.80" actualBatteryCapacity="12546.41" maximumBatteryCapacity="35000.00"/>
            <step time="500.00" chargingStatus="chargingStopped" energyCharged="2.89" partialCharge="196.44" power="13000.00" efficiency="0.80" actualBatteryCapacity="12549.30" maximumBatteryCapacity="35000.00"/>
            <step time="501.00" chargingStatus="chargingStopped" energyCharged="2.89" partialCharge="199.33" power="13000.00" efficiency="0.80" actualBatteryCapacity="12552.19" maximumBatteryCapacity="35000.00"/>
            <step time="502.00" chargingStatus="chargingStopped" energyCharged="2.89" partialCharge="202.22" power="13000.00" efficiency="0.80" actualBatteryCapacity="12555.08" maximumBatteryCapacity="35000.00"/>
            <step time="503.00" chargingStatus="chargingStopped" energyCharged="2.89" partialCharge="205.11" power="13000.00" efficiency="0.80" actualBatteryCapacity="12557.97" maximumBatteryCapacity="35000.00"/>
            <step time="504.00" chargingStatus="chargingStopped" energyCharged="2.89" partialCharge="208.00" power="13000.00" efficiency="0.80" actualBatteryCapacity="12560.86" maximumBatteryCapacity="35000.00"/>
            <step time="505.00" chargingStatus="chargingStopped" energyCharged="2.89" partialCharge="210.89" power="13000.00" efficiency="0.80" actualBatteryCapacity="12563.75" maximumBatteryCapacity="35000.00"/>
            <step time="506.00" chargingStatus="chargingStopped" energyCharged="2.89" partialCharge="213.78" power="13000.00" efficiency="0.80" actualBatteryCapacity="12566.64" maximumBatteryCapacity="35000.00"/>
            <step time="507.00" chargingStatus="chargingStopped" energyCharged="2.89" partialCharge="216.67" power="13000.00" efficiency="0.80" actualBatteryCapacity="12569.52" maximumBatteryCapacity="35000.00"/>
            <step time="508.00" chargingStatus="chargingStopped" energyCharged="2.89" partialCharge="219.56" power="13000.00" efficiency="0.80" actualBatteryCapacity="12572.41" maximumBatteryCapacity="35000.00"/>
            <step time="509.00" chargingStatus="chargingStopped" energyCharged="2.89" partialCharge="222.44" power="13000.00" efficiency="0.80" actualBatteryCapacity="12575.30" maximumBatteryCapacity="35000.00"/>
            <step time="510.00" chargingStatus="chargingStopped" energyCharged="2.89" partialCharge="225.33" power="13000.00" efficiency="0.80" actualBatteryCapacity="12578.19" maximumBatteryCapacity="35000.00"/>
            <step time="511.00" chargingStatus="chargingStopped" energyCharged="2.89" partialCharge="228.22" power="13000.00" efficiency="0.80" actualBatteryCapacity="12581.08" maximumBatteryCapacity="35000.00"/>
            <step time="512.00" chargingStatus="chargingStopped" energyCharged="2.89" partialCharge="231.11" power="13000.00" efficiency="0.80" actualBatteryCapacity="12583.97" maximumBatteryCapacity="35000.00"/>
            <step time="513.00" chargingStatus="chargingStopped" energyCharged="2.89" partialCharge="234.00" power="13000.00" efficiency="0.80" actualBatteryCapacity="12586.86" maximumBatteryCapacity="35000.00"/>
            <step time="514.00" chargingStatus="chargingStopped" energyCharged="2.89" partialCharge="236.89" power="13000.00" efficiency="0.80" actualBatteryCapacity="12589.75" maximumBatteryCapacity="35000.00"/>
            <step time="515.00" chargingStatus="chargingStopped" energyCharged="2.89" partialCharge="239.78" power="13000.00" efficiency="0.80" actualBatteryCapacity="12592.64" maximumBatteryCapacity="35000.00"/>
            <step time="516.00" chargingStatus="chargingStopped" energyCharged="2.89" partialCharge="242.67" power="13000.00" efficiency="0.80" actualBatteryCapacity="12595.52" maximumBatteryCapacity="35000.00"/>
            <step time="517.00" chargingStatus="chargingStopped" energyCharged="2.89" partialCharge="245.56" power="13000.00" efficiency="0.80" actualBatteryCapacity="12598.41" maximumBatteryCapacity="35000.00"/>
            <step time="518.00" chargingStatus="chargingStopped" energyCharged="2.89" partialCharge="248.44" power="13000.00" efficiency="0.80" actualBatteryCapacity="12601.30" maximumBatteryCapacity="35000.00"/>
            <step time="519.00" chargingStatus="chargingStopped" energyCharged="2.89" partialCharge="251.33" power="13000.00" efficiency="0.80" actualBatteryCapacity="12604.19" maximumBatteryCapacity="35000.00"/>
            <step time="520.00" chargingStatus="chargingStopped" energyCharged="2.89" partialCharge="254.22" power="13000.00" efficiency="0.80" actualBatteryCapacity="12607.08" maximumBatteryCapacity="35000.00"/>
            <step time="521.00" chargingStatus="chargingStopped" energyCharged="2.89" partialCharge="257.11" power="13000.00" efficiency="0.80" actualBatteryCapacity="12609.97" maximumBatteryCapacity="35000.00"/>
            <step time="522.00" chargingStatus="chargingStopped" energyCharged="2.89" partialCharge="260.00" power="13000.00" efficiency="0.80" actualBatteryCapacity="12612.86" maximumBatteryCapacity="35000.00"/>
            <step time="523.00" chargingStatus="chargingStopped" energyCharged="2.89" partialCharge="262.89" power="13000.00" efficiency="0.80" actualBatteryCapacity="12615.75" maximumBatteryCapacity="35000.00"/>
            <step time="524.00" chargingStatus="chargingStopped" energyCharged="2.89" partialCharge="265.78" power="13000.00" efficiency="0.80" actualBatteryCapacity="12618.64" maximumBatteryCapacity="35000.00"/>
            <step time="525.00" chargingStatus="chargingStopped" energyCharged="2.89" partialCharge="268.67" power="13000.00" efficiency="0.80" actualBatteryCapacity="12621.52" maximumBatteryCapacity="35000.00"/>
            <step time="526.00" chargingStatus="chargingStopped" energyCharged="2.89" partialCharge="271.56" power="13000.00" efficiency="0.80" actualBatteryCapacity="12624.41" maximumBatteryCapacity="35000.00"/>
            <step time="527.00" chargingStatus="chargingStopped" energyCharged="2.89" partialCharge="274.44" power="13000.00" efficiency="0.80" actualBatteryCapacity="12627.30" maximumBatteryCapacity="35000.00"/>
            <step time="528.00" chargingStatus="chargingStopped" energyCharged="2.89" partialCharge="277.33" power="13000.00" efficiency="0.80" actualBatteryCapacity="12630.19" maximumBatteryCapacity="35000.00"/>
            <step time="529.00" chargingStatus="chargingStopped" energyCharged="2.89" partialCharge="280.22" power="13000.00" efficiency="0.80" actualBatteryCapacity="12633.08" maximumBatteryCapacity="35000.00"/>
            <step time="530.00" chargingStatus="chargingStopped" energyCharged="2.89" partialCharge="283.11" power="13000.00" efficiency="0.80" actualBatteryCapacity="12635.97" maximumBatteryCapacity="35000.00"/>
            <step time="531.00" chargingStatus="chargingStopped" energyCharged="2.89" partialCharge="286.00" power="13000.00" efficiency="0.80" actualBatteryCapacity="12638.86" maximumBatteryCapacity="35000.00"/>
            <step time="532.00" chargingStatus="chargingStopped" energyCharged="2.89" partialCharge="288.89" power="13000.00" efficiency="0.80" actualBatteryCapacity="12641.75" maximumBatteryCapacity="35000.00"/>
            <step time="533.00" chargingStatus="chargingStopped" energyCharged="2.89" partialCharge="291.78" power="13000.00" efficiency="0.80" actualBatteryCapacity="12644.64" maximumBatteryCapacity="35000.00"/>
            <step time="534.00" chargingStatus="chargingStopped" energyCharged="2.89" partialCharge="294.67" power="13000.00" efficiency="0.80" actualBatteryCapacity="12647.52" maximumBatteryCapacity="35000.00"/>
            <step time="535.00" chargingStatus="chargingStopped" energyCharged="2.89" partialCharge="297.56" power="13000.00" efficiency="0.80" actualBatteryCapacity="12650.41" maximumBatteryCapacity="35000.00"/>
            <step time="536.00" chargingStatus="chargingStopped" energyCharged="2.89" partialCharge="300.44" power="13000.00" efficiency="0.80" actualBatteryCapacity="12653.30" maximumBatteryCapacity="35000.00"/>
            <step time="537.00" chargingStatus="chargingStopped" energyCharged="2.89" partialCharge="303.33" power="13000.00" efficiency="0.80" actualBatteryCapacity="12656.19" maximumBatteryCapacity="35000.00"/>
            <step time="538.00" chargingStatus="chargingStopped" energyCharged="2.89" partialCharge="306.22" power="13000.00" efficiency="0.80" actualBatteryCapacity="12659.08" maximumBatteryCapacity="35000.00"/>
            <step time="539.00" chargingStatus="chargingStopped" energyCharged="2.89" partialCharge="309.11" power="13000.00" efficiency="0.80" actualBatteryCapacity="12661.97" maximumBatteryCapacity="35000.00"/>
            <step time="540.00" chargingStatus="chargingStopped" energyCharged="2.89" partialCharge="312.00" power="13000.00" efficiency="0.80" actualBatteryCapacity="12664.86" maximumBatteryCapacity="35000.00"/>
            <step time="541.00" chargingStatus="chargingStopped" energyCharged="2.89" partialCharge="314.89" power="13000.00" efficiency="0.80" actualBatteryCapacity="12667.75" maximumBatteryCapacity="35000.00"/>
            <step time="542.00" chargingStatus="chargingStopped" energyCharged="2.89" partialCharge="317.78" power="13000.00" efficiency="0.80" actualBatteryCapacity="12670.64" maximumBatteryCapacity="35000.00"/>
            <step time="543.00" chargingStatus="chargingStopped" energyCharged="2.89" partialCharge="320.67" power="13000.00" efficiency="0.80" actualBatteryCapacity="12673.52" maximumBatteryCapacity="35000.00"/>
            <step time="544.00" chargingStatus="chargingStopped" energyCharged="2.89" partialCharge="323.56" power="13000.00" efficiency="0.80" actualBatteryCapacity="12676.41" maximumBatteryCapacity="35000.00"/>
            <step time="545.00" chargingStatus="chargingStopped" energyCharged="2.89" partialCharge="326.44" power="13000.00" efficiency="0.80" actualBatteryCapacity="12679.30" maximumBatteryCapacity="35000.00"/>
            <step time="546.00" chargingStatus="chargingStopped" energyCharged="2.89" partialCharge="329.33" power="13000.00" efficiency="0.80" actualBatteryCapacity="12682.19" maximumBatteryCapacity="35000.00"/>
            <step time="547.00" chargingStatus="chargingStopped" energyCharged="2.89" partialCharge="332.22" power="13000.00" efficiency="0.80" actualBatteryCapacity="12685.08" maximumBatteryCapacity="35000.00"/>
            <step time="548.00" chargingStatus="chargingStopped" energyCharged="2.89" partialCharge="335.11" power="13000.00" efficiency="0.80" actualBatteryCapacity="12687.97" maximumBatteryCapacity="35000.00"/>
            <step time="549.00" chargingStatus="chargingStopped" energyCharged="2.89" partialCharge="338.00" power="13000.00" efficiency="0.80" actualBatteryCapacity="12690.86" maximumBatteryCapacity="35000.00"/>
            <step time="550.00" chargingStatus="chargingStopped" energyCharged="2.89" partialCharge="340.89" power="13000.00" efficiency="0.80" actualBatteryCapacity="12693.75" maximumBatteryCapacity="35000.00"/>
            <step time="551.00" chargingStatus="chargingStopped" energyCharged="2.89" partialCharge="343.78" power="13000.00" efficiency="0.80" actualBatteryCapacity="12696.64" maximumBatteryCapacity="35000.00"/>
            <step time="552.00" chargingStatus="chargingStopped" energyCharged="2.89" partialCharge="346.67" power="13000.00" efficiency="0.80" actualBatteryCapacity="12699.52" maximumBatteryCapacity="35000.00"/>
            <step time="553.00" chargingStatus="chargingStopped" energyCharged="2.89" partialCharge="349.56" power="13000.00" efficiency="0.80" actualBatteryCapacity="12702.41" maximumBatteryCapacity="35000.00"/>
            <step time="554.00" chargingStatus="chargingStopped" energyCharged="2.89" partialCharge="352.44" power="13000.00" efficiency="0.80" actualBatteryCapacity="12705.30" maximumBatteryCapacity="35000.00"/>
            <step time="555.00" chargingStatus="chargingStopped" energyCharged="2.89" partialCharge="355.33" power="13000.00" efficiency="0.80" actualBatteryCapacity="12708.19" maximumBatteryCapacity="35000.00"/>
            <step time="556.00" chargingStatus="chargingStopped" energyCharged="2.89" partialCharge="358.22" power="13000.00" efficiency="0.80" actualBatteryCapacity="12711.08" maximumBatteryCapacity="35000.00"/>
            <step time="557.00" chargingStatus="chargingStopped" energyCharged="2.89" partialCharge="361.11" power="13000.00" efficiency="0.80" actualBatteryCapacity="12713.97" maximumBatteryCapacity="35000.00"/>
            <step time="558.00" chargingStatus="chargingStopped" energyCharged="2.89" partialCharge="364.00" power="13000.00" efficiency="0.80" actualBatteryCapacity="12716.86" maximumBatteryCapacity="35000.00"/>