<?xml version="1.0" encoding="UTF-8"?>

<!-- generated on 2022-03-04 11:00:52 by Eclipse SUMO netedit Version v1_12_0+1137-e9106068858
-->

<additional xmlns:xsi="http://www.w3.org/2001/XMLSchema-instance" xsi:noNamespaceSchemaLocation="http://sumo.dlr.de/xsd/additional_file.xsd">
    <!-- Shapes -->
    <poi id="POI_1" color="white" layer="0.00" lane="gneE1_0" pos="20.00" imgFile="paris.ico" width="5.00" height="5.00"/>
    <poi id="POI_2" color="white" layer="0.00" lane="gneE1_0" pos="20.00" imgFile="berlin_icon.ico" width="5.00" height="5.00"/>
</additional>
