<?xml version="1.0" encoding="UTF-8"?>

<!-- generated on 07/17/15 12:51:12 by SUMO marouter Version dev-SVN-r18585
<?xml version="1.0" encoding="UTF-8"?>

<configuration xmlns:xsi="http://www.w3.org/2001/XMLSchema-instance" xsi:noNamespaceSchemaLocation="http://sumo.dlr.de/xsd/marouterConfiguration.xsd">

    <input>
        <net-file value="input_net.net.xml"/>
        <additional-files value="input_taz.taz.xml"/>
        <od-matrix-files value="input_od_vm.fma"/>
    </input>

    <output>
        <flow-output value="routes.rou.xml"/>
    </output>

    <processing>
        <max-iterations value="50"/>
    </processing>

    <report>
        <xml-validation value="never"/>
    </report>

</configuration>
-->

<routes xmlns:xsi="http://www.w3.org/2001/XMLSchema-instance" xsi:noNamespaceSchemaLocation="http://sumo.dlr.de/xsd/routes_file.xsd">
    <flow id="0" begin="0.00" end="86400.00" number="800" type="1" fromTaz="91" toTaz="93" departLane="free" departSpeed="max">
        <routeDistribution>
            <route cost="656.84" probability="256.00000000" edges="D1 L2 L5 L7 L6 L10 L13 L15 L16 D3"/>
            <route cost="658.33" probability="320.00000000" edges="D1 L2 L5 L8 L9 L14 L15 L16 D3"/>
            <route cost="656.67" probability="112.00000000" edges="D1 L2 L5 L7 L6 L11 L15 L16 D3"/>
            <route cost="663.44" probability="112.00000000" edges="D1 L2 L4 L12 L16 D3"/>
        </routeDistribution>
    </flow>
    <flow id="1" begin="0.00" end="86400.00" number="200" type="1" fromTaz="92" toTaz="93" departLane="free" departSpeed="max">
        <routeDistribution>
            <route cost="589.41" probability="52.00000000" edges="D2 L3 L5 L8 L9 L14 L15 L16 D3"/>
            <route cost="587.92" probability="36.00000000" edges="D2 L3 L5 L7 L6 L10 L13 L15 L16 D3"/>
            <route cost="587.76" probability="16.00000000" edges="D2 L3 L5 L7 L6 L11 L15 L16 D3"/>
            <route cost="594.52" probability="96.00000000" edges="D2 L3 L4 L12 L16 D3"/>
        </routeDistribution>
    </flow>
</routes>
