<?xml version="1.0" encoding="UTF-8"?>

<!-- generated on Mon Nov  2 16:31:05 2015 by SUMO netconvert Version dev-SVN-r19238ID
<?xml version="1.0" encoding="UTF-8"?>

<configuration xmlns:xsi="http://www.w3.org/2001/XMLSchema-instance" xsi:noNamespaceSchemaLocation="http://sumo.dlr.de/xsd/netconvertConfiguration.xsd">

    <input>
        <type-files value="input_types.typ.xml"/>
        <opendrive-files value="opendrive"/>
    </input>

    <output>
        <output-file value="net.net.xml"/>
    </output>

</configuration>
-->

<net version="0.13" xmlns:xsi="http://www.w3.org/2001/XMLSchema-instance" xsi:noNamespaceSchemaLocation="http://sumo.dlr.de/xsd/net_file.xsd">

    <location netOffset="0.09,0.04" convBoundary="0.00,0.00,1737.77,766.30" origBoundary="-0.55,-0.04,1737.80,766.26" projParameter="!"/>

    <type id="biking" priority="1" speed="22.22" allow="bicycle" width="1.50"/>
    <type id="driving" priority="1" speed="22.22" disallow="pedestrian" width="3.65"/>
    <type id="mwyEntry" priority="1" speed="22.22" disallow="pedestrian" width="3.65"/>
    <type id="mwyExit" priority="1" speed="22.22" disallow="pedestrian" width="3.65"/>
    <type id="parking" priority="1" speed="1.39" disallow="pedestrian" width="3.65"/>
    <type id="sidewalk" priority="1" speed="22.22" allow="pedestrian" width="2.50"/>
    <type id="special1" priority="1" speed="22.22" disallow="pedestrian" width="3.65"/>
    <type id="stop" priority="1" speed="22.22" disallow="pedestrian" width="3.65"/>

    <edge id=":0_0" function="internal">
        <lane id=":0_0_0" index="0" disallow="pedestrian" speed="13.90" length="5.22" width="3.20" shape="471.03,49.65 471.80,48.24 472.65,47.71 473.58,48.08 474.59,49.33"/>
    </edge>
    <edge id=":1_0" function="internal">
        <lane id=":1_0_0" index="0" allow="bicycle" speed="13.90" length="4.98" width="3.20" shape="476.61,112.29 476.29,110.95 475.63,110.05 474.61,109.59 473.25,109.57"/>
    </edge>
    <edge id=":1_1" function="internal">
        <lane id=":1_1_0" index="0" disallow="pedestrian" speed="13.90" length="9.14" width="3.20" shape="476.61,112.29 475.82,103.18"/>
    </edge>
    <edge id=":1_2" function="internal">
        <lane id=":1_2_0" index="0" disallow="pedestrian" speed="13.90" length="2.65" width="3.20" shape="476.61,112.29 477.34,110.94 478.15,110.44 478.31,110.50"/>
    </edge>
    <edge id=":1_9" function="internal">
        <lane id=":1_9_0" index="0" speed="13.90" length="2.31" width="3.20" shape="478.31,110.50 479.03,110.79 479.99,111.98"/>
    </edge>
    <edge id=":1_3" function="internal">
        <lane id=":1_3_0" index="0" disallow="pedestrian" speed="13.90" length="9.14" width="3.20" shape="479.47,102.85 479.99,111.98"/>
    </edge>
    <edge id=":1_4" function="internal">
        <lane id=":1_4_0" index="0" allow="bicycle" speed="13.90" length="5.28" width="3.20" shape="479.47,102.85 479.28,105.46 478.18,107.45 477.85,107.67"/>
    </edge>
    <edge id=":1_5" function="internal">
        <lane id=":1_5_0" index="0" disallow="pedestrian" speed="13.90" length="2.94" width="3.20" shape="479.47,102.85 478.68,104.30 477.81,104.84 477.56,104.74"/>
    </edge>
    <edge id=":1_10" function="internal">
        <lane id=":1_10_0" index="0" speed="13.90" length="5.05" width="3.20" shape="477.85,107.67 476.17,108.82 473.25,109.57"/>
    </edge>
    <edge id=":1_11" function="internal">
        <lane id=":1_11_0" index="0" speed="13.90" length="2.41" width="3.20" shape="477.56,104.74 476.85,104.46 475.82,103.18"/>
    </edge>
    <edge id=":1_6" function="internal">
        <lane id=":1_6_0" index="0" disallow="pedestrian" speed="13.90" length="5.14" width="3.20" shape="472.85,106.63 474.25,106.25 475.21,105.55 475.74,104.53 475.82,103.18"/>
    </edge>
    <edge id=":1_7" function="internal">
        <lane id=":1_7_0" index="0" disallow="pedestrian" speed="13.90" length="10.27" width="3.20" shape="472.85,106.63 475.77,106.64 477.93,107.53 479.33,109.31 479.99,111.98"/>
    </edge>
    <edge id=":1_8" function="internal">
        <lane id=":1_8_0" index="0" allow="bicycle" speed="13.90" length="4.34" width="3.20" shape="472.85,106.63 474.06,107.22 474.53,107.90 474.25,108.69 473.25,109.57"/>
    </edge>
    <edge id=":10_0" function="internal">
        <lane id=":10_0_0" index="0" disallow="pedestrian" speed="13.90" length="10.26" width="3.20" shape="391.99,508.03 389.27,506.74 387.33,505.87 385.45,504.89 382.91,503.29"/>
    </edge>
    <edge id=":10_1" function="internal">
        <lane id=":10_1_0" index="0" allow="pedestrian" speed="13.90" length="5.43" width="3.20" shape="391.99,508.03 389.27,506.18 388.18,504.34"/>
    </edge>
    <edge id=":10_2" function="internal">
        <lane id=":10_2_0" index="0" disallow="pedestrian" speed="13.90" length="2.20" width="3.20" shape="391.99,508.03 391.32,506.85 391.32,506.01"/>
    </edge>
    <edge id=":10_9" function="internal">
        <lane id=":10_9_0" index="0" speed="13.90" length="5.91" width="3.20" shape="388.18,504.34 388.00,504.05 388.20,501.64 389.85,498.95"/>
    </edge>
    <edge id=":10_10" function="internal">
        <lane id=":10_10_0" index="0" speed="13.90" length="2.20" width="3.20" shape="391.32,506.01 392.00,505.51 393.34,505.34"/>
    </edge>
    <edge id=":10_3" function="internal">
        <lane id=":10_3_0" index="0" disallow="pedestrian" speed="13.90" length="5.23" width="3.20" shape="392.43,501.13 391.65,502.39 391.54,503.51 392.11,504.49 393.34,505.34"/>
    </edge>
    <edge id=":10_4" function="internal">
        <lane id=":10_4_0" index="0" disallow="pedestrian" speed="13.90" length="10.86" width="3.20" shape="392.43,501.13 390.11,503.32 387.75,504.40 385.35,504.39 382.91,503.29"/>
    </edge>
    <edge id=":10_5" function="internal">
        <lane id=":10_5_0" index="0" allow="pedestrian" speed="13.90" length="4.93" width="3.20" shape="392.43,501.13 390.97,501.56 390.05,501.33 389.68,500.47 389.85,498.95"/>
    </edge>
    <edge id=":10_6" function="internal">
        <lane id=":10_6_0" index="0" allow="pedestrian" speed="13.90" length="5.97" width="3.20" shape="384.71,500.62 385.92,501.12 387.18,501.01 388.49,500.29 389.85,498.95"/>
    </edge>
    <edge id=":10_7" function="internal">
        <lane id=":10_7_0" index="0" disallow="pedestrian" speed="13.90" length="9.84" width="3.20" shape="384.71,500.62 393.34,505.34"/>
    </edge>
    <edge id=":10_8" function="internal">
        <lane id=":10_8_0" index="0" disallow="pedestrian" speed="13.90" length="2.35" width="3.20" shape="384.71,500.62 385.26,501.96 385.15,502.85"/>
    </edge>
    <edge id=":10_11" function="internal">
        <lane id=":10_11_0" index="0" speed="13.90" length="2.35" width="3.20" shape="385.15,502.85 384.36,503.30 382.91,503.29"/>
    </edge>
    <edge id=":11_0" function="internal">
        <lane id=":11_0_0" index="0" allow="pedestrian" speed="13.90" length="7.28" width="3.20" shape="416.90,475.53 415.62,475.53 414.20,476.14 412.63,477.34 410.93,479.15"/>
    </edge>
    <edge id=":11_1" function="internal">
        <lane id=":11_1_0" index="0" disallow="pedestrian" speed="13.90" length="10.20" width="3.20" shape="416.90,475.53 413.99,474.79 411.97,474.24 409.94,473.69 407.04,472.95"/>
    </edge>
    <edge id=":11_2" function="internal">
        <lane id=":11_2_0" index="0" disallow="pedestrian" speed="13.90" length="2.78" width="3.20" shape="416.90,475.53 415.82,474.36 415.60,473.40 415.73,473.25"/>
    </edge>
    <edge id=":11_9" function="internal">
        <lane id=":11_9_0" index="0" speed="13.90" length="2.38" width="3.20" shape="415.73,473.25 416.24,472.65 417.74,472.10"/>
    </edge>
    <edge id=":11_3" function="internal">
        <lane id=":11_3_0" index="0" disallow="pedestrian" speed="13.90" length="10.19" width="3.20" shape="407.87,469.54 410.78,470.28 412.81,470.82 414.83,471.37 417.74,472.10"/>
    </edge>
    <edge id=":11_4" function="internal">
        <lane id=":11_4_0" index="0" allow="pedestrian" speed="13.90" length="6.40" width="3.20" shape="407.87,469.54 411.53,470.99 413.10,472.89"/>
    </edge>
    <edge id=":11_5" function="internal">
        <lane id=":11_5_0" index="0" disallow="pedestrian" speed="13.90" length="2.75" width="3.20" shape="407.87,469.54 408.94,470.71 409.16,471.67 409.04,471.81"/>
    </edge>
    <edge id=":11_10" function="internal">
        <lane id=":11_10_0" index="0" speed="13.90" length="6.94" width="3.20" shape="413.10,472.89 413.26,473.08 413.06,475.80 410.93,479.15"/>
    </edge>
    <edge id=":11_11" function="internal">
        <lane id=":11_11_0" index="0" speed="13.90" length="2.37" width="3.20" shape="409.04,471.81 408.52,472.41 407.04,472.95"/>
    </edge>
    <edge id=":11_6" function="internal">
        <lane id=":11_6_0" index="0" disallow="pedestrian" speed="13.90" length="5.57" width="3.20" shape="408.33,476.96 409.21,475.56 409.29,474.43 408.57,473.56 407.04,472.95"/>
    </edge>
    <edge id=":11_7" function="internal">
        <lane id=":11_7_0" index="0" disallow="pedestrian" speed="13.90" length="11.12" width="3.20" shape="408.33,476.96 410.79,474.43 413.18,472.78 415.50,472.00 417.74,472.10"/>
    </edge>
    <edge id=":11_8" function="internal">
        <lane id=":11_8_0" index="0" allow="pedestrian" speed="13.90" length="4.98" width="3.20" shape="408.33,476.96 409.80,476.53 410.73,476.75 411.10,477.62 410.93,479.15"/>
    </edge>
    <edge id=":12_0" function="internal">
        <lane id=":12_0_0" index="0" allow="pedestrian" speed="13.90" length="4.99" width="3.20" shape="541.19,512.25 539.89,511.96 538.78,512.17 537.88,512.88 537.19,514.07"/>
    </edge>
    <edge id=":12_1" function="internal">
        <lane id=":12_1_0" index="0" disallow="pedestrian" speed="13.90" length="9.51" width="3.20" shape="541.19,512.25 532.33,508.82"/>
    </edge>
    <edge id=":12_2" function="internal">
        <lane id=":12_2_0" index="0" disallow="pedestrian" speed="13.90" length="2.68" width="3.20" shape="541.19,512.25 540.29,510.98 540.19,510.02 540.30,509.91"/>
    </edge>
    <edge id=":12_9" function="internal">
        <lane id=":12_9_0" index="0" speed="13.90" length="2.36" width="3.20" shape="540.30,509.91 540.89,509.37 542.41,509.01"/>
    </edge>
    <edge id=":12_3" function="internal">
        <lane id=":12_3_0" index="0" disallow="pedestrian" speed="13.90" length="9.51" width="3.20" shape="533.55,505.57 542.41,509.01"/>
    </edge>
    <edge id=":12_4" function="internal">
        <lane id=":12_4_0" index="0" allow="pedestrian" speed="13.90" length="5.56" width="3.20" shape="533.55,505.57 536.09,506.98 537.54,508.86 537.59,509.14"/>
    </edge>
    <edge id=":12_5" function="internal">
        <lane id=":12_5_0" index="0" disallow="pedestrian" speed="13.90" length="2.70" width="3.20" shape="533.55,505.57 534.46,506.84 534.56,507.81 534.44,507.92"/>
    </edge>
    <edge id=":12_10" function="internal">
        <lane id=":12_10_0" index="0" speed="13.90" length="5.05" width="3.20" shape="537.59,509.14 537.91,511.23 537.19,514.07"/>
    </edge>
    <edge id=":12_11" function="internal">
        <lane id=":12_11_0" index="0" speed="13.90" length="2.37" width="3.20" shape="534.44,507.92 533.85,508.47 532.33,508.82"/>
    </edge>
    <edge id=":12_6" function="internal">
        <lane id=":12_6_0" index="0" disallow="pedestrian" speed="13.90" length="4.96" width="3.20" shape="534.05,512.78 534.38,511.46 534.21,510.36 533.52,509.48 532.33,508.82"/>
    </edge>
    <edge id=":12_7" function="internal">
        <lane id=":12_7_0" index="0" disallow="pedestrian" speed="13.90" length="10.39" width="3.20" shape="534.05,512.78 535.49,510.30 537.37,508.84 539.67,508.42 542.41,509.01"/>
    </edge>
    <edge id=":12_8" function="internal">
        <lane id=":12_8_0" index="0" allow="pedestrian" speed="13.90" length="4.96" width="3.20" shape="534.05,512.78 535.32,511.93 536.26,511.86 536.89,512.58 537.19,514.07"/>
    </edge>
    <edge id=":13_0" function="internal">
        <lane id=":13_0_0" index="0" disallow="pedestrian" speed="13.90" length="4.43" width="3.20" shape="504.75,563.55 500.58,562.05"/>
    </edge>
    <edge id=":13_1" function="internal">
        <lane id=":13_1_0" index="0" allow="pedestrian" speed="13.90" length="16.81" width="3.20" shape="504.75,563.55 502.73,560.98 502.71,556.45 502.98,551.49 501.80,547.62"/>
    </edge>
    <edge id=":13_2" function="internal">
        <lane id=":13_2_0" index="0" allow="pedestrian" speed="13.90" length="4.15" width="3.20" shape="504.75,563.55 501.94,561.47 501.89,560.81"/>
    </edge>
    <edge id=":13_3" function="internal">
        <lane id=":13_3_0" index="0" disallow="pedestrian" speed="13.90" length="2.48" width="3.20" shape="504.75,563.55 503.79,562.36 503.63,561.43"/>
    </edge>
    <edge id=":13_16" function="internal">
        <lane id=":13_16_0" index="0" speed="13.90" length="17.59" width="3.20" shape="501.89,560.81 501.66,557.71 503.93,552.27 508.73,545.15"/>
    </edge>
    <edge id=":13_17" function="internal">
        <lane id=":13_17_0" index="0" speed="13.90" length="2.48" width="3.20" shape="503.63,561.43 504.29,560.74 505.75,560.31"/>
    </edge>
    <edge id=":13_4" function="internal">
        <lane id=":13_4_0" index="0" disallow="pedestrian" speed="13.90" length="15.37" width="3.20" shape="511.41,547.19 507.57,552.50 505.35,556.46 504.74,559.07 505.75,560.31"/>
    </edge>
    <edge id=":13_5" function="internal">
        <lane id=":13_5_0" index="0" disallow="pedestrian" speed="13.90" length="18.41" width="3.20" shape="511.41,547.19 506.48,553.60 503.04,558.21 501.07,561.03 500.58,562.05"/>
    </edge>
    <edge id=":13_6" function="internal">
        <lane id=":13_6_0" index="0" allow="pedestrian" speed="13.90" length="11.53" width="3.20" shape="511.41,547.19 509.05,549.48 506.66,550.32 504.24,549.70 501.80,547.62"/>
    </edge>
    <edge id=":13_7" function="internal">
        <lane id=":13_7_0" index="0" allow="pedestrian" speed="13.90" length="4.92" width="3.20" shape="511.41,547.19 509.97,547.68 509.05,547.51 508.63,546.66 508.73,545.15"/>
    </edge>
    <edge id=":13_8" function="internal">
        <lane id=":13_8_0" index="0" allow="pedestrian" speed="13.90" length="5.21" width="3.20" shape="504.39,545.34 505.50,546.29 506.59,546.57 507.67,546.19 508.73,545.15"/>
    </edge>
    <edge id=":13_9" function="internal">
        <lane id=":13_9_0" index="0" disallow="pedestrian" speed="13.90" length="15.76" width="3.20" shape="504.39,545.34 505.32,549.06 504.52,553.68 503.99,557.88 505.75,560.31"/>
    </edge>
    <edge id=":13_10" function="internal">
        <lane id=":13_10_0" index="0" disallow="pedestrian" speed="13.90" length="43.17" width="3.20" shape="504.39,545.34 514.93,558.72 517.81,565.97 513.03,567.08 500.58,562.05"/>
    </edge>
    <edge id=":13_11" function="internal">
        <lane id=":13_11_0" index="0" allow="pedestrian" speed="13.90" length="5.04" width="3.20" shape="504.39,545.34 504.60,546.88 504.23,547.78 503.30,548.02 501.80,547.62"/>
    </edge>
    <edge id=":13_12" function="internal">
        <lane id=":13_12_0" index="0" allow="pedestrian" speed="13.90" length="25.30" width="3.20" shape="502.01,559.18 508.56,561.71 510.71,560.63 508.46,555.93 501.80,547.62"/>
    </edge>
    <edge id=":13_13" function="internal">
        <lane id=":13_13_0" index="0" allow="pedestrian" speed="13.90" length="16.28" width="3.20" shape="502.01,559.18 501.35,557.77 502.25,554.96 504.71,550.75 508.73,545.15"/>
    </edge>
    <edge id=":13_14" function="internal">
        <lane id=":13_14_0" index="0" disallow="pedestrian" speed="13.90" length="3.91" width="3.20" shape="502.01,559.18 505.75,560.31"/>
    </edge>
    <edge id=":13_15" function="internal">
        <lane id=":13_15_0" index="0" disallow="pedestrian" speed="13.90" length="2.13" width="3.20" shape="502.01,559.18 502.72,560.43 502.73,561.12"/>
    </edge>
    <edge id=":13_18" function="internal">
        <lane id=":13_18_0" index="0" speed="13.90" length="2.55" width="3.20" shape="502.73,561.12 502.73,561.33 502.01,561.86 500.58,562.05"/>
    </edge>
    <edge id=":14_0" function="internal">
        <lane id=":14_0_0" index="0" allow="bicycle" speed="13.90" length="5.42" width="3.20" shape="16.48,170.03 14.98,169.29 14.40,168.43 14.74,167.45 16.00,166.35"/>
    </edge>
    <edge id=":15_0" function="internal">
        <lane id=":15_0_0" index="0" allow="pedestrian" speed="13.90" length="6.37" width="3.20" shape="1019.98,536.98 1019.11,535.53 1017.96,534.65 1016.51,534.34 1014.77,534.58"/>
    </edge>
    <edge id=":15_1" function="internal">
        <lane id=":15_1_0" index="0" allow="pedestrian" speed="13.90" length="10.65" width="3.20" shape="1019.98,536.98 1018.79,534.15 1017.89,532.08 1016.94,530.04 1015.59,527.28"/>
    </edge>
    <edge id=":15_2" function="internal">
        <lane id=":15_2_0" index="0" allow="pedestrian" speed="13.90" length="11.01" width="3.20" shape="1019.98,536.98 1019.20,533.99 1019.58,531.56 1021.13,529.68 1023.85,528.35"/>
    </edge>
    <edge id=":15_3" function="internal">
        <lane id=":15_3_0" index="0" allow="pedestrian" speed="13.90" length="4.99" width="3.20" shape="1019.98,536.98 1020.27,535.46 1020.89,534.74 1021.84,534.80 1023.13,535.64"/>
    </edge>
    <edge id=":15_4" function="internal">
        <lane id=":15_4_0" index="0" allow="pedestrian" speed="13.90" length="5.08" width="3.20" shape="1024.91,531.67 1023.66,532.29 1022.94,533.15 1022.76,534.27 1023.13,535.64"/>
    </edge>
    <edge id=":15_5" function="internal">
        <lane id=":15_5_0" index="0" allow="pedestrian" speed="13.90" length="10.55" width="3.20" shape="1024.91,531.67 1022.00,532.58 1019.86,533.20 1017.72,533.77 1014.77,534.58"/>
    </edge>
    <edge id=":15_6" function="internal">
        <lane id=":15_6_0" index="0" allow="pedestrian" speed="13.90" length="5.76" width="3.20" shape="1024.91,531.67 1022.02,532.14 1019.50,531.57 1019.30,531.42"/>
    </edge>
    <edge id=":15_7" function="internal">
        <lane id=":15_7_0" index="0" allow="pedestrian" speed="13.90" length="2.72" width="3.20" shape="1024.91,531.67 1023.40,531.24 1022.72,530.54 1022.75,530.37"/>
    </edge>
    <edge id=":15_16" function="internal">
        <lane id=":15_16_0" index="0" speed="13.90" length="5.64" width="3.20" shape="1019.30,531.42 1017.36,529.95 1015.59,527.28"/>
    </edge>
    <edge id=":15_17" function="internal">
        <lane id=":15_17_0" index="0" speed="13.90" length="2.38" width="3.20" shape="1022.75,530.37 1022.87,529.58 1023.85,528.35"/>
    </edge>
    <edge id=":15_8" function="internal">
        <lane id=":15_8_0" index="0" allow="pedestrian" speed="13.90" length="6.47" width="3.20" shape="1018.60,525.79 1019.59,527.33 1020.80,528.27 1022.22,528.61 1023.85,528.35"/>
    </edge>
    <edge id=":15_9" function="internal">
        <lane id=":15_9_0" index="0" allow="pedestrian" speed="13.90" length="10.84" width="3.20" shape="1018.60,525.79 1019.95,528.58 1020.95,530.68 1021.90,532.80 1023.13,535.64"/>
    </edge>
    <edge id=":15_10" function="internal">
        <lane id=":15_10_0" index="0" allow="pedestrian" speed="13.90" length="11.44" width="3.20" shape="1018.60,525.79 1019.59,528.89 1019.29,531.39 1017.68,533.29 1014.77,534.58"/>
    </edge>
    <edge id=":15_11" function="internal">
        <lane id=":15_11_0" index="0" allow="pedestrian" speed="13.90" length="4.90" width="3.20" shape="1018.60,525.79 1018.40,527.29 1017.84,528.04 1016.90,528.04 1015.59,527.28"/>
    </edge>
    <edge id=":15_12" function="internal">
        <lane id=":15_12_0" index="0" allow="pedestrian" speed="13.90" length="5.20" width="3.20" shape="1013.86,531.26 1015.19,530.67 1015.92,529.82 1016.05,528.68 1015.59,527.28"/>
    </edge>
    <edge id=":15_13" function="internal">
        <lane id=":15_13_0" index="0" allow="pedestrian" speed="13.90" length="10.41" width="3.20" shape="1013.86,531.26 1016.78,530.46 1018.87,529.88 1020.95,529.26 1023.85,528.35"/>
    </edge>
    <edge id=":15_14" function="internal">
        <lane id=":15_14_0" index="0" allow="pedestrian" speed="13.90" length="5.97" width="3.20" shape="1013.86,531.26 1016.92,530.85 1019.49,531.44 1019.68,531.58"/>
    </edge>
    <edge id=":15_15" function="internal">
        <lane id=":15_15_0" index="0" allow="pedestrian" speed="13.90" length="2.65" width="3.20" shape="1013.86,531.26 1015.33,531.75 1015.97,532.46 1015.95,532.60"/>
    </edge>
    <edge id=":15_18" function="internal">
        <lane id=":15_18_0" index="0" speed="13.90" length="5.42" width="3.20" shape="1019.68,531.58 1021.56,533.04 1023.13,535.64"/>
    </edge>
    <edge id=":15_19" function="internal">
        <lane id=":15_19_0" index="0" speed="13.90" length="2.37" width="3.20" shape="1015.95,532.60 1015.79,533.41 1014.77,534.58"/>
    </edge>
    <edge id=":16_0" function="internal">
        <lane id=":16_0_0" index="0" allow="pedestrian" speed="13.90" length="12.55" width="3.20" shape="1055.44,525.37 1053.94,525.05 1051.80,526.06 1049.00,528.38 1045.56,532.03"/>
    </edge>
    <edge id=":16_1" function="internal">
        <lane id=":16_1_0" index="0" allow="pedestrian" speed="13.90" length="15.03" width="3.20" shape="1055.44,525.37 1053.38,524.49 1050.26,524.39 1046.09,525.07 1040.85,526.53"/>
    </edge>
    <edge id=":16_2" function="internal">
        <lane id=":16_2_0" index="0" disallow="pedestrian" speed="13.90" length="12.30" width="3.20" shape="1055.44,525.37 1052.91,523.21 1050.81,521.32 1048.71,519.44 1046.17,517.28"/>
    </edge>
    <edge id=":16_3" function="internal">
        <lane id=":16_3_0" index="0" disallow="pedestrian" speed="13.90" length="2.92" width="3.20" shape="1055.44,525.37 1054.97,523.79 1055.21,522.79 1055.44,522.69"/>
    </edge>
    <edge id=":16_16" function="internal">
        <lane id=":16_16_0" index="0" speed="13.90" length="2.42" width="3.20" shape="1055.44,522.69 1056.14,522.38 1057.78,522.56"/>
    </edge>
    <edge id=":16_4" function="internal">
        <lane id=":16_4_0" index="0" disallow="pedestrian" speed="13.90" length="12.31" width="3.20" shape="1048.27,514.75 1050.83,516.88 1053.03,518.66 1055.22,520.43 1057.78,522.56"/>
    </edge>
    <edge id=":16_5" function="internal">
        <lane id=":16_5_0" index="0" allow="pedestrian" speed="13.90" length="5.34" width="3.20" shape="1048.27,514.75 1050.78,518.09 1050.89,519.25"/>
    </edge>
    <edge id=":16_6" function="internal">
        <lane id=":16_6_0" index="0" allow="pedestrian" speed="13.90" length="5.21" width="3.20" shape="1048.27,514.75 1050.83,518.04 1050.70,519.08"/>
    </edge>
    <edge id=":16_7" function="internal">
        <lane id=":16_7_0" index="0" disallow="pedestrian" speed="13.90" length="2.40" width="3.20" shape="1048.27,514.75 1048.69,516.17 1048.49,517.07"/>
    </edge>
    <edge id=":16_17" function="internal">
        <lane id=":16_17_0" index="0" speed="13.90" length="14.37" width="3.20" shape="1050.89,519.25 1051.16,522.08 1049.42,526.73 1045.56,532.03"/>
    </edge>
    <edge id=":16_18" function="internal">
        <lane id=":16_18_0" index="0" speed="13.90" length="13.19" width="3.20" shape="1050.70,519.08 1050.45,521.10 1047.12,523.93 1040.85,526.53"/>
    </edge>
    <edge id=":16_19" function="internal">
        <lane id=":16_19_0" index="0" speed="13.90" length="2.40" width="3.20" shape="1048.49,517.07 1047.65,517.44 1046.17,517.28"/>
    </edge>
    <edge id=":16_8" function="internal">
        <lane id=":16_8_0" index="0" disallow="pedestrian" speed="13.90" length="10.54" width="3.20" shape="1039.79,523.24 1043.86,521.69 1046.28,520.18 1047.05,518.71 1046.17,517.28"/>
    </edge>
    <edge id=":16_9" function="internal">
        <lane id=":16_9_0" index="0" disallow="pedestrian" speed="13.90" length="18.58" width="3.20" shape="1039.79,523.24 1046.02,521.56 1051.10,520.89 1055.02,521.22 1057.78,522.56"/>
    </edge>
    <edge id=":16_10" function="internal">
        <lane id=":16_10_0" index="0" allow="pedestrian" speed="13.90" length="22.21" width="3.20" shape="1039.79,523.24 1047.17,521.54 1050.59,522.44 1050.05,525.94 1045.56,532.03"/>
    </edge>
    <edge id=":16_11" function="internal">
        <lane id=":16_11_0" index="0" allow="pedestrian" speed="13.90" length="5.06" width="3.20" shape="1039.79,523.24 1041.29,523.67 1041.97,524.36 1041.82,525.31 1040.85,526.53"/>
    </edge>
    <edge id=":16_12" function="internal">
        <lane id=":16_12_0" index="0" allow="pedestrian" speed="13.90" length="8.24" width="3.20" shape="1042.99,529.78 1044.66,527.52 1044.86,526.23 1043.59,525.90 1040.85,526.53"/>
    </edge>
    <edge id=":16_13" function="internal">
        <lane id=":16_13_0" index="0" disallow="pedestrian" speed="13.90" length="14.33" width="3.20" shape="1042.99,529.78 1046.07,525.71 1047.63,522.27 1047.67,519.46 1046.17,517.28"/>
    </edge>
    <edge id=":16_14" function="internal">
        <lane id=":16_14_0" index="0" disallow="pedestrian" speed="13.90" length="17.92" width="3.20" shape="1042.99,529.78 1047.64,525.08 1051.65,522.32 1055.04,521.47 1057.78,522.56"/>
    </edge>
    <edge id=":16_15" function="internal">
        <lane id=":16_15_0" index="0" allow="pedestrian" speed="13.90" length="4.99" width="3.20" shape="1042.99,529.78 1044.47,529.38 1045.40,529.62 1045.76,530.50 1045.56,532.03"/>
    </edge>
    <edge id=":17_0" function="internal">
        <lane id=":17_0_0" index="0" allow="pedestrian" speed="13.90" length="8.21" width="3.20" shape="980.13,549.88 977.94,547.97 976.05,546.71 974.45,546.09 973.14,546.10"/>
    </edge>
    <edge id=":17_1" function="internal">
        <lane id=":17_1_0" index="0" allow="pedestrian" speed="13.90" length="19.65" width="3.20" shape="980.13,549.88 977.87,546.44 977.71,542.43 979.64,537.84 983.67,532.68"/>
    </edge>
    <edge id=":17_2" function="internal">
        <lane id=":17_2_0" index="0" allow="pedestrian" speed="13.90" length="18.42" width="3.20" shape="980.13,549.88 977.80,546.46 978.37,543.40 981.84,540.70 988.21,538.36"/>
    </edge>
    <edge id=":17_3" function="internal">
        <lane id=":17_3_0" index="0" allow="pedestrian" speed="13.90" length="4.94" width="3.20" shape="980.13,549.88 979.79,548.39 980.07,547.49 980.96,547.17 982.46,547.43"/>
    </edge>
    <edge id=":17_4" function="internal">
        <lane id=":17_4_0" index="0" allow="pedestrian" speed="13.90" length="10.51" width="3.20" shape="989.13,541.72 985.04,543.10 982.56,544.51 981.70,545.95 982.46,547.43"/>
    </edge>
    <edge id=":17_5" function="internal">
        <lane id=":17_5_0" index="0" allow="pedestrian" speed="13.90" length="16.59" width="3.20" shape="989.13,541.72 985.28,542.77 981.13,543.89 976.99,545.02 973.14,546.10"/>
    </edge>
    <edge id=":17_6" function="internal">
        <lane id=":17_6_0" index="0" allow="pedestrian" speed="13.90" length="10.03" width="3.20" shape="989.13,541.72 981.75,543.11 979.35,542.37"/>
    </edge>
    <edge id=":17_7" function="internal">
        <lane id=":17_7_0" index="0" allow="pedestrian" speed="13.90" length="2.72" width="3.20" shape="989.13,541.72 987.64,541.23 986.99,540.50 987.02,540.33"/>
    </edge>
    <edge id=":17_16" function="internal">
        <lane id=":17_16_0" index="0" speed="13.90" length="12.07" width="3.20" shape="979.35,542.37 978.38,542.07 979.02,538.60 983.67,532.68"/>
    </edge>
    <edge id=":17_17" function="internal">
        <lane id=":17_17_0" index="0" speed="13.90" length="2.37" width="3.20" shape="987.02,540.33 987.18,539.55 988.21,538.36"/>
    </edge>
    <edge id=":17_8" function="internal">
        <lane id=":17_8_0" index="0" allow="pedestrian" speed="13.90" length="8.12" width="3.20" shape="986.19,535.03 984.48,537.20 984.25,538.48 985.49,538.87 988.21,538.36"/>
    </edge>
    <edge id=":17_9" function="internal">
        <lane id=":17_9_0" index="0" allow="pedestrian" speed="13.90" length="14.28" width="3.20" shape="986.19,535.03 983.00,538.98 981.32,542.36 981.14,545.18 982.46,547.43"/>
    </edge>
    <edge id=":17_10" function="internal">
        <lane id=":17_10_0" index="0" allow="pedestrian" speed="13.90" length="17.28" width="3.20" shape="986.19,535.03 983.39,538.11 980.18,541.42 976.72,544.30 973.14,546.10"/>
    </edge>
    <edge id=":17_11" function="internal">
        <lane id=":17_11_0" index="0" allow="pedestrian" speed="13.90" length="5.02" width="3.20" shape="986.19,535.03 984.68,535.38 983.76,535.11 983.42,534.21 983.67,532.68"/>
    </edge>
    <edge id=":17_12" function="internal">
        <lane id=":17_12_0" index="0" allow="pedestrian" speed="13.90" length="15.45" width="3.20" shape="972.15,542.70 975.49,541.05 978.43,538.53 981.11,535.59 983.67,532.68"/>
    </edge>
    <edge id=":17_13" function="internal">
        <lane id=":17_13_0" index="0" allow="pedestrian" speed="13.90" length="16.63" width="3.20" shape="972.15,542.70 976.00,541.61 980.17,540.49 984.34,539.40 988.21,538.36"/>
    </edge>
    <edge id=":17_14" function="internal">
        <lane id=":17_14_0" index="0" allow="pedestrian" speed="13.90" length="4.91" width="3.20" shape="972.15,542.70 974.32,542.54 976.76,543.28 976.93,543.38"/>
    </edge>
    <edge id=":17_15" function="internal">
        <lane id=":17_15_0" index="0" allow="pedestrian" speed="13.90" length="2.79" width="3.20" shape="972.15,542.70 973.67,543.18 974.34,543.91 974.31,544.11"/>
    </edge>
    <edge id=":17_18" function="internal">
        <lane id=":17_18_0" index="0" speed="13.90" length="6.88" width="3.20" shape="976.93,543.38 979.47,544.91 982.46,547.43"/>
    </edge>
    <edge id=":17_19" function="internal">
        <lane id=":17_19_0" index="0" speed="13.90" length="2.38" width="3.20" shape="974.31,544.11 974.17,544.88 973.14,546.10"/>
    </edge>
    <edge id=":18_0" function="internal">
        <lane id=":18_0_0" index="0" disallow="pedestrian" speed="13.90" length="14.12" width="3.20" shape="944.22,554.47 940.61,555.27 937.12,555.99 933.95,557.19 931.31,559.44"/>
    </edge>
    <edge id=":18_1" function="internal">