<?xml version="1.0" encoding="UTF-8"?>

<!-- generated on 2026-04-20T15:55:43.114951+01:00 by Eclipse SUMO sumo v1_26_0+1281-0eb3443acab
<sumoConfiguration xmlns:xsi="http://www.w3.org/2001/XMLSchema-instance" xsi:noNamespaceSchemaLocation="http://sumo.dlr.de/xsd/sumoConfiguration.xsd">

    <input>
        <net-file value="input_net.net.xml"/>
        <route-files value="input_routes.rou.xml"/>
    </input>

    <output>
        <fcd-output value="fcd.xml"/>
        <save-state.times value="10"/>
        <save-state.files value="state.xml"/>
        <save-state.rng value="true"/>
        <save-state.transportables value="true"/>
    </output>

    <time>
        <end value="20"/>
    </time>

    <processing>
        <default.departspeed value="0"/>
        <default.departlane value="first"/>
    </processing>

    <report>
        <duration-log.disable value="true"/>
        <no-step-log value="true"/>
    </report>

    <fcd_device>
        <device.fcd.begin value="10"/>
    </fcd_device>

</sumoConfiguration>
-->

<snapshot type="micro" version="v1_26_0+1281-0eb3443acab" time="10.00" xmlns:xsi="http://www.w3.org/2001/XMLSchema-instance" xsi:noNamespaceSchemaLocation="http://sumo.dlr.de/xsd/state_file.xsd">
    <rngState default="9" routeHandler="4" insertionControl="0" device="0" device.btreceiver="0" driverState="0" device.toc="0">
        <rngLane index="0" state="0"/>
        <rngLane index="1" state="0"/>
        <rngLane index="2" state="0"/>
        <rngLane index="3" state="0"/>
        <rngLane index="4" state="0"/>
        <rngLane index="5" state="0"/>
        <rngLane index="6" state="0"/>
        <rngLane index="7" state="0"/>
        <rngLane index="8" state="0"/>
        <rngLane index="9" state="0"/>
        <rngLane index="10" state="0"/>
        <rngLane index="11" state="0"/>
        <rngLane index="12" state="0"/>
        <rngLane index="13" state="0"/>
        <rngLane index="14" state="0"/>
        <rngLane index="15" state="0"/>
        <rngLane index="16" state="0"/>
        <rngLane index="17" state="0"/>
        <rngLane index="18" state="0"/>
        <rngLane index="19" state="0"/>
        <rngLane index="20" state="0"/>
        <rngLane index="21" state="0"/>
        <rngLane index="22" state="0"/>
        <rngLane index="23" state="0"/>
        <rngLane index="24" state="0"/>
        <rngLane index="25" state="0"/>
        <rngLane index="26" state="0"/>
        <rngLane index="27" state="0"/>
        <rngLane index="28" state="0"/>
        <rngLane index="29" state="0"/>
        <rngLane index="30" state="0"/>
        <rngLane index="31" state="0"/>
        <rngLane index="32" state="0"/>
        <rngLane index="33" state="0"/>
        <rngLane index="34" state="0"/>
        <rngLane index="35" state="0"/>
        <rngLane index="36" state="0"/>
        <rngLane index="37" state="0"/>
        <rngLane index="38" state="0"/>
        <rngLane index="39" state="0"/>
        <rngLane index="40" state="0"/>
        <rngLane index="41" state="0"/>
        <rngLane index="42" state="0"/>
        <rngLane index="43" state="0"/>
        <rngLane index="44" state="0"/>
        <rngLane index="45" state="0"/>
        <rngLane index="46" state="0"/>
        <rngLane index="47" state="0"/>
        <rngLane index="48" state="0"/>
        <rngLane index="49" state="0"/>
        <rngLane index="50" state="0"/>
        <rngLane index="51" state="0"/>
        <rngLane index="52" state="0"/>
        <rngLane index="53" state="0"/>
        <rngLane index="54" state="0"/>
        <rngLane index="55" state="0"/>
        <rngLane index="56" state="0"/>
        <rngLane index="57" state="0"/>
        <rngLane index="58" state="0"/>
        <rngLane index="59" state="0"/>
        <rngLane index="60" state="0"/>
        <rngLane index="61" state="0"/>
        <rngLane index="62" state="0"/>
        <rngLane index="63" state="0"/>
    </rngState>
    <edgeControl lanes=""/>
    <route id="r1" state="1" edges="4/1to3/1 3/1to2/1 2/1to1/1 1/1to0/1"/>
    <delay number="0" begin="0" end="0" depart="0.00" time="0.00" speedFactor="1.00" decel="4.50" loaderTime="10000"/>
    <vType id="DEFAULT_PEDTYPE" vClass="pedestrian"/>
    <transportables type="person" state="1 2 0 1 0 0 0 0 0 0">
        <person id="walk_route" type="DEFAULT_PEDTYPE" depart="10.00" speedFactor="0.9383" state="0 0 -1">
            <walk edges="2/1to1/1 3/1to2/1"/>
        </person>
        <person id="walk_route_id" type="DEFAULT_PEDTYPE" depart="0.00" speedFactor="1.0600" state="0 1 0 0 0 -1 4/1to3/1_0 11.9809 2.56 1 1.31167 0 0 0 null null 0 3/1to2/1_0 4/1to3/1_0 3/1to2/1_0 1">
            <walk edges="4/1to3/1 3/1to2/1 2/1to1/1 1/1to0/1"/>
        </person>
    </transportables>
    <tlLogic id="0/0" programID="0" phase="0" duration="10000" active="1"/>
    <tlLogic id="0/1" programID="0" phase="0" duration="10000" active="1"/>
    <tlLogic id="0/2" programID="0" phase="0" duration="10000" active="1"/>
    <tlLogic id="1/0" programID="0" phase="0" duration="10000" active="1"/>
    <tlLogic id="1/1" programID="0" phase="0" duration="10000" active="1"/>
    <tlLogic id="1/2" programID="0" phase="0" duration="10000" active="1"/>
    <tlLogic id="2/0" programID="0" phase="0" duration="10000" active="1"/>
    <tlLogic id="2/1" programID="0" phase="0" duration="10000" active="1"/>
    <tlLogic id="2/2" programID="0" phase="0" duration="10000" active="1"/>
    <tlLogic id="3/0" programID="0" phase="0" duration="10000" active="1"/>
    <tlLogic id="3/1" programID="0" phase="0" duration="10000" active="1"/>
    <tlLogic id="3/2" programID="0" phase="0" duration="10000" active="1"/>
    <tlLogic id="4/0" programID="0" phase="0" duration="10000" active="1"/>
    <tlLogic id="4/1" programID="0" phase="0" duration="10000" active="1"/>
    <tlLogic id="4/2" programID="0" phase="0" duration="10000" active="1"/>
</snapshot>
