<?xml version="1.0" encoding="UTF-8"?>

<!-- generated on 10.12.2018 14:10:09 by Eclipse SUMO netedit Version v1_0_0+1208-d42a3cd999
<configuration xmlns:xsi="http://www.w3.org/2001/XMLSchema-instance" xsi:noNamespaceSchemaLocation="http://sumo.dlr.de/xsd/netconvertConfiguration.xsd">

    <input>
        <sumo-net-file value="C:/Users/alva_pa/.texttest/tmp/netedit.gui.10Dec140957.2900/netedit.gui/additionalElements/parkingspace/create/block_move\input_net.net.xml"/>
    </input>

    <output>
        <output-file value="C:/Users/alva_pa/.texttest/tmp/netedit.gui.10Dec140957.2900/netedit.gui/additionalElements/parkingspace/create/block_move\net.net.xml"/>
    </output>

    <processing>
        <geometry.max-grade.fix value="false"/>
        <offset.disable-normalization value="true"/>
        <lefthand value="false"/>
    </processing>

    <junctions>
        <no-turnarounds value="true"/>
        <junctions.corner-detail value="5"/>
        <junctions.limit-turn-speed value="5.5"/>
        <rectangular-lane-cut value="false"/>
    </junctions>

    <pedestrian>
        <walkingareas value="false"/>
    </pedestrian>

    <netedit>
        <additionals-output value="C:/Users/alva_pa/.texttest/tmp/netedit.gui.10Dec140957.2900/netedit.gui/additionalElements/parkingspace/create/block_move\additionals.xml"/>
        <shapes-output value="C:/Users/alva_pa/.texttest/tmp/netedit.gui.10Dec140957.2900/netedit.gui/additionalElements/parkingspace/create/block_move\shapes.xml"/>
    </netedit>

    <visualisation>
        <gui-settings-file value="C:/Users/alva_pa/.texttest/tmp/netedit.gui.10Dec140957.2900/netedit.gui/additionalElements/parkingspace/create/block_move\gui-settings.xml"/>
        <window-size value="700,500"/>
        <window-pos value="50,50"/>
        <gui-testing value="true"/>
        <gui-testing-debug value="true"/>
    </visualisation>

    <report>
        <no-warnings value="true"/>
        <error-log value="C:/Users/alva_pa/.texttest/tmp/netedit.gui.10Dec140957.2900/netedit.gui/additionalElements/parkingspace/create/block_move\log.txt"/>
    </report>

</configuration>
-->

<additional xmlns:xsi="http://www.w3.org/2001/XMLSchema-instance" xsi:noNamespaceSchemaLocation="http://sumo.dlr.de/xsd/additional_file.xsd">
    <parkingArea id="parkingArea_gneE0_0_0" lane="gneE0_0" startPos="17.00" endPos="27.00">
        <space x="25.00" y="13.00"/>
    </parkingArea>
</additional>
