<routes xmlns:xsi="http://www.w3.org/2001/XMLSchema-instance" xsi:noNamespaceSchemaLocation="http://sumo.dlr.de/xsd/routes_file.xsd">
	<vType id="DEFAULT_VEHTYPE" sigma="0"/>
    <route id="r0" edges="beg beg2 middle middle2 end end2"/>

    <vehicle id="VehicleCloseEnroute" depart="0" route="r0"/>
    <vehicle id="VehicleClosedAlready" depart="1000" route="r0"/>
</routes>
