<additional xmlns:xsi="http://www.w3.org/2001/XMLSchema-instance" xsi:noNamespaceSchemaLocation="http://sumo.sf.net/xsd/additional_file.xsd">
<rerouter id="rerouter" edges="beg" pos="20">
	<interval begin="50" end="100">
		<destProbReroute id="left2end" probability=".5"/>
		<destProbReroute id="right2end" probability=".5"/>
	</interval>
</rerouter>
</additional>
