<?xml version="1.0" encoding="UTF-8"?>

<!-- generated on 2023-03-12 23:14:16 by Eclipse SUMO netconvert Version v1_16_0+1184-34b48af0740
<configuration xmlns:xsi="http://www.w3.org/2001/XMLSchema-instance" xsi:noNamespaceSchemaLocation="http://sumo.dlr.de/xsd/netconvertConfiguration.xsd">

    <input>
        <sumo-net-file value="input_net.net.xml"/>
        <node-files value="net.nod.xml"/>
        <edge-files value="net.edg.xml"/>
    </input>

    <output>
        <output-file value="net.net.xml"/>
        <output.street-names value="true"/>
    </output>

    <processing>
        <geometry.min-radius.fix.railways value="false"/>
        <geometry.max-grade.fix value="false"/>
        <offset.disable-normalization value="true"/>
        <lefthand value="0"/>
    </processing>

    <junctions>
        <no-internal-links value="true"/>
        <no-turnarounds value="true"/>
        <junctions.corner-detail value="5"/>
        <junctions.limit-turn-speed value="5.50"/>
        <rectangular-lane-cut value="0"/>
    </junctions>

    <pedestrian>
        <walkingareas value="0"/>
    </pedestrian>

</configuration>
-->

<net version="1.16" junctionCornerDetail="5" limitTurnSpeed="5.50" xmlns:xsi="http://www.w3.org/2001/XMLSchema-instance" xsi:noNamespaceSchemaLocation="http://sumo.dlr.de/xsd/net_file.xsd">

    <location netOffset="-403040.31,-5788711.14" convBoundary="0.00,0.00,6026.74,14830.00" origBoundary="13.574416,52.240912,13.691479,52.413950" projParameter="+proj=utm +zone=33 +ellps=WGS84 +datum=WGS84 +units=m +no_defs"/>

    <type id="aerialway.cable_car" priority="24" numLanes="1" speed="13.89" allow="rail_urban" oneway="0"/>
    <type id="aerialway.gondola" priority="23" numLanes="1" speed="13.89" allow="rail_urban" oneway="0"/>
    <type id="highway.bridleway" priority="1" numLanes="1" speed="2.78" allow="pedestrian" oneway="1" width="2.00"/>
    <type id="highway.bus_guideway" priority="1" numLanes="1" speed="27.78" allow="bus" oneway="1"/>
    <type id="highway.cycleway" priority="1" numLanes="1" speed="5.56" allow="bicycle" oneway="0" width="1.00"/>
    <type id="highway.footway" priority="1" numLanes="1" speed="2.78" allow="pedestrian" oneway="1" width="2.00"/>
    <type id="highway.ford" priority="1" numLanes="1" speed="2.78" allow="army" oneway="0"/>
    <type id="highway.living_street" priority="2" numLanes="1" speed="2.78" disallow="tram rail_urban rail rail_electric rail_fast ship" oneway="0"/>
    <type id="highway.motorway" priority="14" numLanes="2" speed="39.44" allow="private emergency authority army vip passenger hov taxi bus coach delivery truck trailer motorcycle evehicle custom1 custom2" oneway="1"/>
    <type id="highway.motorway_link" priority="9" numLanes="1" speed="22.22" allow="private emergency authority army vip passenger hov taxi bus coach delivery truck trailer motorcycle evehicle custom1 custom2" oneway="1"/>
    <type id="highway.path" priority="1" numLanes="1" speed="5.56" allow="pedestrian bicycle" oneway="0" width="2.00"/>
    <type id="highway.pedestrian" priority="1" numLanes="1" speed="2.78" allow="pedestrian" oneway="1" width="2.00"/>
    <type id="highway.primary" priority="12" numLanes="2" speed="27.78" disallow="tram rail_urban rail rail_electric rail_fast ship" oneway="0"/>
    <type id="highway.primary_link" priority="7" numLanes="1" speed="22.22" disallow="tram rail_urban rail rail_electric rail_fast ship" oneway="0"/>
    <type id="highway.raceway" priority="15" numLanes="2" speed="83.33" allow="vip" oneway="0"/>
    <type id="highway.residential" priority="3" numLanes="1" speed="13.89" disallow="tram rail_urban rail rail_electric rail_fast ship" oneway="0"/>
    <type id="highway.secondary" priority="11" numLanes="1" speed="27.78" disallow="tram rail_urban rail rail_electric rail_fast ship" oneway="0"/>
    <type id="highway.secondary_link" priority="6" numLanes="1" speed="22.22" disallow="tram rail_urban rail rail_electric rail_fast ship" oneway="0"/>
    <type id="highway.service" priority="1" numLanes="1" speed="5.56" allow="pedestrian delivery bicycle" oneway="0"/>
    <type id="highway.stairs" priority="1" numLanes="1" speed="1.39" allow="pedestrian" oneway="1" width="2.00"/>
    <type id="highway.step" priority="1" numLanes="1" speed="1.39" allow="pedestrian" oneway="1" width="2.00"/>
    <type id="highway.steps" priority="1" numLanes="1" speed="1.39" allow="pedestrian" oneway="1" width="2.00"/>
    <type id="highway.tertiary" priority="10" numLanes="1" speed="22.22" disallow="tram rail_urban rail rail_electric rail_fast ship" oneway="0"/>
    <type id="highway.tertiary_link" priority="5" numLanes="1" speed="22.22" disallow="tram rail_urban rail rail_electric rail_fast ship" oneway="0"/>
    <type id="highway.track" priority="1" numLanes="1" speed="5.56" allow="pedestrian motorcycle moped bicycle" oneway="0"/>
    <type id="highway.trunk" priority="13" numLanes="2" speed="27.78" disallow="pedestrian bicycle tram rail_urban rail rail_electric rail_fast ship" oneway="0"/>
    <type id="highway.trunk_link" priority="8" numLanes="1" speed="22.22" disallow="pedestrian bicycle tram rail_urban rail rail_electric rail_fast ship" oneway="0"/>
    <type id="highway.unclassified" priority="4" numLanes="1" speed="13.89" disallow="tram rail_urban rail rail_electric rail_fast ship" oneway="0"/>
    <type id="highway.unsurfaced" priority="1" numLanes="1" speed="8.33" disallow="tram rail_urban rail rail_electric rail_fast ship" oneway="0"/>
    <type id="railway.highspeed" priority="21" numLanes="1" speed="69.44" allow="rail_fast" oneway="1"/>
    <type id="railway.light_rail" priority="19" numLanes="1" speed="27.78" allow="rail_urban" oneway="1"/>
    <type id="railway.monorail" priority="22" numLanes="1" speed="27.78" allow="rail_urban" oneway="1"/>
    <type id="railway.preserved" priority="16" numLanes="1" speed="27.78" allow="rail" oneway="1"/>
    <type id="railway.rail" priority="20" numLanes="1" speed="44.44" allow="rail" oneway="1"/>
    <type id="railway.subway" priority="18" numLanes="1" speed="27.78" allow="rail_urban" oneway="1"/>
    <type id="railway.tram" priority="17" numLanes="1" speed="13.89" allow="tram" oneway="1"/>

    <edge id="-121902849" from="42145788" to="374388207" name="6142" priority="20" type="railway.rail" spreadType="center" length="85.51" shape="1411.16,6412.80 1391.16,6392.80 1371.16,6392.80" bidi="33142249">
        <lane id="-121902849_0" index="0" allow="rail rail_electric rail_fast" speed="27.78" length="85.51" shape="1409.63,6411.27 1391.16,6392.80 1373.32,6392.80">
            <param key="origId" value="121902849 8602141 33142249"/>
        </lane>
    </edge>
    <edge id="-124449286#0" from="1363480435" to="4395255491" priority="20" type="railway.rail" spreadType="center" length="270.18" shape="1221.72,6172.80 1313.50,6072.80 1416.86,6072.80" bidi="441828377">
        <lane id="-124449286#0_0" index="0" allow="rail rail_electric rail_fast" speed="44.44" length="270.18" shape="1223.21,6171.18 1313.50,6072.80 1416.86,6072.80">
            <param key="origId" value="124449286 742458425 742458426 441828378 441828377"/>
        </lane>
    </edge>
    <edge id="-124449286#2" from="428994711" to="1363480434" priority="20" type="railway.rail" spreadType="center" length="8.44" bidi="124449286#2">
        <lane id="-124449286#2_0" index="0" allow="rail rail_electric rail_fast" speed="44.44" length="8.44" shape="1180.78,6252.80 1184.51,6252.80">
            <param key="origId" value="124449286"/>
        </lane>
    </edge>
    <edge id="-153134060#0" from="10707784192" to="296021288" name="6007" priority="19" type="railway.light_rail" spreadType="center" length="412.89" bidi="153134060#0">
        <lane id="-153134060#0_0" index="0" allow="rail_urban" speed="22.22" length="412.89" shape="3461.61,11901.29 3479.45,11901.29">
            <param key="origId" value="153134060"/>
        </lane>
    </edge>
    <edge id="-153134060#1" from="296020389" to="10707784192" name="6007" priority="19" type="railway.light_rail" spreadType="center" length="33.49" bidi="153134060#1">
        <lane id="-153134060#1_0" index="0" allow="rail_urban" speed="22.22" length="33.49" shape="3441.61,11901.29 3461.61,11901.29">
            <param key="origId" value="153134060"/>
        </lane>
    </edge>
    <edge id="-153134060#2" from="10707835705" to="296020389" name="6007" priority="19" type="railway.light_rail" spreadType="center" length="760.71" bidi="153134060#2">
        <lane id="-153134060#2_0" index="0" allow="rail_urban" speed="22.22" length="760.71" shape="3422.80,11901.29 3441.61,11901.29">
            <param key="origId" value="153134060"/>
        </lane>
    </edge>
    <edge id="-153134060#3" from="10707835708" to="10707835705" name="6007" priority="19" type="railway.light_rail" spreadType="center" length="535.10" bidi="153134060#3">
        <lane id="-153134060#3_0" index="0" allow="rail_urban" speed="22.22" length="535.10" shape="2441.53,8632.31 3421.27,11900.15">
            <param key="origId" value="153134060"/>
        </lane>
    </edge>
    <edge id="-153134060#4" from="10707835717" to="10707835708" name="6007" priority="19" type="railway.light_rail" spreadType="center" length="791.57" bidi="153134060#4">
        <lane id="-153134060#4_0" index="0" allow="rail_urban" speed="22.22" length="791.57" shape="2381.19,8631.17 2440.00,8631.17">
            <param key="origId" value="153134060"/>
        </lane>
    </edge>
    <edge id="-153134060#5" from="418008014" to="10707835717" name="6007" priority="19" type="railway.light_rail" spreadType="center" length="177.48" bidi="153134060#5">
        <lane id="-153134060#5_0" index="0" allow="rail_urban" speed="22.22" length="177.48" shape="2363.35,8631.17 2381.19,8631.17">
            <param key="origId" value="153134060"/>
        </lane>
    </edge>
    <edge id="-176623658#0" from="4395205108" to="4360022513" name="6520" priority="20" type="railway.rail" spreadType="center" length="3110.07" bidi="-8044249">
        <lane id="-176623658#0_0" index="0" allow="rail" speed="22.22" length="3110.07" shape="2067.05,6745.55 2087.05,6745.55">
            <param key="origId" value="176623658 5650950 10414934 8044249"/>
        </lane>
    </edge>
    <edge id="-176623658#1" from="4359951274" to="4395205108" name="6520" priority="20" type="railway.rail" spreadType="center" length="394.40" bidi="176623658#1">
        <lane id="-176623658#1_0" index="0" allow="rail" speed="22.22" length="394.40" shape="2047.05,6745.55 2067.05,6745.55">
            <param key="origId" value="176623658"/>
        </lane>
    </edge>
    <edge id="-23369315" from="293605248" to="1363480438" name="6007" priority="19" type="railway.light_rail" spreadType="center" length="141.49" bidi="294730185">
        <lane id="-23369315_0" index="0" allow="rail_urban" speed="22.22" length="141.49" shape="1324.79,6352.80 1413.25,6352.80">
            <param key="origId" value="23369315 23369316 294730185"/>
        </lane>
    </edge>
    <edge id="-254025498" from="2598612721" to="295049179" priority="20" type="railway.rail" spreadType="center" length="134.72" shape="656.07,6392.80 636.07,6372.80 614.81,6372.80" bidi="254025498">
        <lane id="-254025498_0" index="0" allow="rail rail_electric rail_fast" speed="27.78" length="134.72" shape="652.28,6389.01 636.07,6372.80 618.53,6372.80">
            <param key="origId" value="254025498"/>
        </lane>
    </edge>
    <edge id="-254033615#0" from="295049177" to="295049179" name="6142" priority="20" type="railway.rail" spreadType="center" length="113.39" bidi="254033615#0">
        <lane id="-254033615#0_0" index="0" allow="rail rail_electric rail_fast" speed="44.44" length="113.39" shape="633.97,6315.32 615.99,6369.27">
            <param key="origId" value="254033615"/>
        </lane>
    </edge>
    <edge id="-255228345#0" from="10707835741" to="428356234" name="6007" priority="19" type="railway.light_rail" spreadType="center" length="433.23" bidi="255228345#0">
        <lane id="-255228345#0_0" index="0" allow="rail_urban" speed="22.22" length="433.23" shape="2200.58,8631.17 2258.42,8631.17">
            <param key="origId" value="255228345"/>
        </lane>
    </edge>
    <edge id="-255228346#0" from="10707835725" to="418008014" priority="19" type="railway.light_rail" spreadType="center" length="239.32" shape="2320.87,8651.17 2341.19,8651.17 2361.19,8631.17" bidi="255228346#0">
        <lane id="-255228346#0_0" index="0" allow="rail_urban" speed="27.78" length="239.32" shape="2320.87,8651.17 2341.19,8651.17 2357.40,8634.96">
            <param key="origId" value="255228346"/>
        </lane>
        <param key="railway:track_ref" value="3"/>
    </edge>
    <edge id="-255228346#1" from="10707835734" to="10707835725" priority="19" type="railway.light_rail" spreadType="center" length="167.30" bidi="255228346#1">
        <lane id="-255228346#1_0" index="0" allow="rail_urban" speed="27.78" length="167.30" shape="2300.87,8651.17 2320.87,8651.17">
            <param key="origId" value="255228346"/>
        </lane>
        <param key="railway:track_ref" value="3"/>
    </edge>
    <edge id="-255228346#2" from="428356234" to="10707835734" priority="19" type="railway.light_rail" spreadType="center" length="153.76" shape="2260.58,8631.17 2280.58,8651.17 2300.87,8651.17" bidi="255228346#2">
        <lane id="-255228346#2_0" index="0" allow="rail_urban" speed="27.78" length="153.76" shape="2264.37,8634.96 2280.58,8651.17 2300.87,8651.17">
            <param key="origId" value="255228346"/>
        </lane>
        <param key="railway:track_ref" value="3"/>
    </edge>
    <edge id="-255228348#0" from="428356234" to="10707835735" name="6007" priority="19" type="railway.light_rail" spreadType="center" length="153.51" bidi="255228348#0">
        <lane id="-255228348#0_0" index="0" allow="rail_urban" speed="22.22" length="153.51" shape="2265.94,8631.17 2300.58,8631.17">
            <param key="origId" value="255228348"/>
        </lane>
        <param key="railway:track_ref" value="4"/>
    </edge>
    <edge id="-255228348#1" from="10707835735" to="10707835726" name="6007" priority="19" type="railway.light_rail" spreadType="center" length="167.93" bidi="255228348#1">
        <lane id="-255228348#1_0" index="0" allow="rail_urban" speed="22.22" length="167.93" shape="2300.58,8631.17 2321.19,8631.17">
            <param key="origId" value="255228348"/>
        </lane>
        <param key="railway:track_ref" value="4"/>
    </edge>
    <edge id="-255228348#2" from="10707835726" to="418008014" name="6007" priority="19" type="railway.light_rail" spreadType="center" length="239.06" bidi="255228348#2">
        <lane id="-255228348#2_0" index="0" allow="rail_urban" speed="22.22" length="239.06" shape="2321.19,8631.17 2355.83,8631.17">
            <param key="origId" value="255228348"/>
        </lane>
        <param key="railway:track_ref" value="4"/>
    </edge>
    <edge id="-26926962" from="295049993" to="295049529" priority="20" type="railway.rail" spreadType="center" length="990.20" bidi="121902859">
        <lane id="-26926962_0" index="0" allow="rail" speed="44.44" length="990.20" shape="505.44,6272.80 690.71,6272.80">
            <param key="origId" value="26926962 121902859"/>
        </lane>
    </edge>
    <edge id="-26927036" from="293604102" to="42132826" name="6520" priority="20" type="railway.rail" spreadType="center" length="561.79" shape="1277.84,6312.80 1440.43,6092.80 1621.20,6092.80 2147.05,6745.55" bidi="314928807#1">
        <lane id="-26927036_0" index="0" allow="rail" speed="13.89" length="561.79" shape="1280.62,6309.04 1440.43,6092.80 1621.20,6092.80 2144.95,6742.95">
            <param key="origId" value="26927036 314928807"/>
        </lane>
    </edge>
    <edge id="-294730182" from="293605247" to="293604102" name="6520" priority="20" type="railway.rail" spreadType="center" length="48.21" bidi="742458424">
        <lane id="-294730182_0" index="0" allow="rail" speed="44.44" length="48.21" shape="1243.20,6312.80 1275.53,6312.80">
            <param key="origId" value="294730182 742458423 742458424"/>
        </lane>
    </edge>
    <edge id="-294730183" from="428759039" to="293605248" name="6007" priority="19" type="railway.light_rail" spreadType="center" length="240.97" bidi="742458420">
        <lane id="-294730183_0" index="0" allow="rail_urban" speed="22.22" length="240.97" shape="1097.45,6352.80 1314.07,6352.80">
            <param key="origId" value="294730183 742458419 742458420"/>
        </lane>
        <param key="railway:track_ref" value="2"/>
    </edge>
    <edge id="-295348086" from="2990609221" to="296021449" priority="19" type="railway.light_rail" spreadType="center" length="90.09" bidi="295348086">
        <lane id="-295348086_0" index="0" allow="rail_urban" speed="27.78" length="90.09" shape="3921.03,11904.78 3862.94,11917.80">
            <param key="origId" value="295348086"/>
        </lane>
    </edge>
    <edge id="-314928807#0" from="42132826" to="291831407" name="6520" priority="20" type="railway.rail" spreadType="center" length="209.96" bidi="314928807#0" distance="57310.36">
        <lane id="-314928807#0_0" index="0" allow="rail" speed="13.89" length="209.96" shape="2143.71,6745.55 2127.05,6745.55">
            <param key="origId" value="314928807"/>
        </lane>
    </edge>
    <edge id="-314928808" from="291831407" to="42132803" name="6520" priority="20" type="railway.rail" spreadType="center" length="117.45" bidi="314928808">
        <lane id="-314928808_0" index="0" allow="rail" speed="5.56" length="117.45" shape="2127.05,6745.55 2107.05,6745.55">
            <param key="origId" value="314928808"/>
        </lane>
    </edge>
    <edge id="-326225735#0" from="10707835751" to="10707835741" name="6007" priority="19" type="railway.light_rail" spreadType="center" length="1053.19" bidi="255228345#1">
        <lane id="-326225735#0_0" index="0" allow="rail_urban" speed="22.22" length="1053.19" shape="2181.90,8631.17 2200.58,8631.17">
            <param key="origId" value="326225735 326225725 255228345"/>
        </lane>
    </edge>
    <edge id="-326225735#1" from="1363480438" to="10707835751" name="6007" priority="19" type="railway.light_rail" spreadType="center" length="440.94" shape="1415.41,6352.80 1455.41,6392.80 1744.30,6392.80 2180.58,8631.17" bidi="326225735#1">
        <lane id="-326225735#1_0" index="0" allow="rail_urban" speed="22.22" length="440.94" shape="1419.20,6356.59 1455.41,6392.80 1744.30,6392.80 2180.33,8629.88">
            <param key="origId" value="326225735"/>
        </lane>
    </edge>
    <edge id="-33141915#0" from="10707518655" to="295049177" name="6142" priority="20" type="railway.rail" spreadType="center" length="238.02" bidi="254033615#1">
        <lane id="-33141915#0_0" index="0" allow="rail rail_electric rail_fast" speed="44.44" length="238.02" shape="788.62,6312.80 640.17,6312.80">
            <param key="origId" value="33141915 121902856 254033615"/>
        </lane>
    </edge>
    <edge id="-33142145#0" from="4395254268" to="10707518655" name="6142" priority="20" type="railway.rail" spreadType="center" length="660.60" bidi="33141915#1">
        <lane id="-33142145#0_0" index="0" allow="rail rail_electric rail_fast" speed="44.44" length="660.60" shape="1175.00,6312.80 788.62,6312.80">
            <param key="origId" value="33142145 33141915"/>
        </lane>
        <param key="railway:track_ref" value="3"/>
    </edge>
    <edge id="-33142145#1" from="293605247" to="4395254268" name="6142" priority="20" type="railway.rail" spreadType="center" length="73.62" bidi="33142145#1">
        <lane id="-33142145#1_0" index="0" allow="rail rail_electric rail_fast" speed="44.44" length="73.62" shape="1233.72,6312.80 1175.00,6312.80">
            <param key="origId" value="33142145"/>
        </lane>
        <param key="railway:track_ref" value="3"/>
    </edge>
    <edge id="-334912225#0" from="10707518645" to="4395826741" name="6142" priority="20" type="railway.rail" spreadType="center" length="349.07" bidi="742458418#1">
        <lane id="-334912225#0_0" index="0" allow="rail rail_electric rail_fast" speed="27.78" length="349.07" shape="997.53,6392.80 1290.50,6392.80">
            <param key="origId" value="334912225 78766917 742458417 742458418"/>
        </lane>
    </edge>
    <edge id="-334912225#1" from="10707518656" to="10707518645" name="6142" priority="20" type="railway.rail" spreadType="center" length="426.80" bidi="334912225#1">
        <lane id="-334912225#1_0" index="0" allow="rail rail_electric rail_fast" speed="27.78" length="426.80" shape="807.73,6392.80 997.53,6392.80">
            <param key="origId" value="334912225"/>
        </lane>
    </edge>
    <edge id="-334912225#2" from="2598612721" to="10707518656" name="6142" priority="20" type="railway.rail" spreadType="center" length="235.60" bidi="334912225#2">
        <lane id="-334912225#2_0" index="0" allow="rail rail_electric rail_fast" speed="27.78" length="235.60" shape="658.23,6392.80 807.73,6392.80">
            <param key="origId" value="334912225"/>
        </lane>
    </edge>
    <edge id="-347977095" from="428647707" to="3542016595" priority="20" type="railway.rail" spreadType="center" length="190.85" shape="1833.96,6092.80 1853.96,6072.80 1928.34,6072.80" bidi="347977095">
        <lane id="-347977095_0" index="0" allow="rail" speed="44.44" length="190.85" shape="1837.75,6089.01 1853.96,6072.80 1928.34,6072.80">
            <param key="origId" value="347977095"/>
        </lane>
    </edge>
    <edge id="-36853643#0" from="10712435854" to="59143907" name="6007" priority="19" type="railway.light_rail" spreadType="center" length="38.23" bidi="36853643#0">
        <lane id="-36853643#0_0" index="0" allow="rail_urban" speed="27.78" length="38.23" shape="3523.66,11921.29 3561.88,11921.29">
            <param key="origId" value="36853643"/>
        </lane>
    </edge>
    <edge id="-36853643#1" from="296021288" to="10712435854" name="6007" priority="19" type="railway.light_rail" spreadType="center" length="298.89" shape="3481.61,11901.29 3501.61,11921.29 3523.66,11921.29" bidi="36853643#1">
        <lane id="-36853643#1_0" index="0" allow="rail_urban" speed="27.78" length="298.89" shape="3485.40,11905.08 3501.61,11921.29 3523.66,11921.29">
            <param key="origId" value="36853643"/>
        </lane>
    </edge>
    <edge id="-36867992" from="428648323" to="428648322" priority="20" type="railway.rail" spreadType="center" length="35.91" bidi="36867992">
        <lane id="-36867992_0" index="0" allow="rail" speed="44.44" length="35.91" shape="1965.08,6152.80 1944.07,6152.80">
            <param key="origId" value="36867992"/>
        </lane>
    </edge>
    <edge id="-392159899#1" from="295049179" to="295049181" name="6142" priority="20" type="railway.rail" spreadType="center" length="38.66" bidi="392159899#1">
        <lane id="-392159899#1_0" index="0" allow="rail rail_electric rail_fast" speed="27.78" length="38.66" shape="612.16,6372.80 596.97,6372.80">
            <param key="origId" value="392159899"/>
        </lane>
    </edge>
    <edge id="-438267819" from="42132803" to="4360022513" name="6520" priority="20" type="railway.rail" spreadType="center" length="103.20" bidi="438267819">
        <lane id="-438267819_0" index="0" allow="rail" speed="22.22" length="103.20" shape="2107.05,6745.55 2087.05,6745.55">
            <param key="origId" value="438267819"/>
        </lane>
    </edge>
    <edge id="-441932166#3" from="10712435852" to="296021449" name="6007" priority="19" type="railway.light_rail" spreadType="center" length="173.21" bidi="441932166#3">
        <lane id="-441932166#3_0" index="0" allow="rail_urban" speed="22.22" length="173.21" shape="3674.65,11921.29 3845.69,11921.29">
            <param key="origId" value="441932166"/>
        </lane>
    </edge>
    <edge id="-441932166#4" from="59143907" to="10712435852" name="6007" priority="19" type="railway.light_rail" spreadType="center" length="132.93" bidi="441932166#4">
        <lane id="-441932166#4_0" index="0" allow="rail_urban" speed="22.22" length="132.93" shape="3561.88,11921.29 3674.65,11921.29">
            <param key="origId" value="441932166"/>
        </lane>
    </edge>
    <edge id="-441932169#2" from="10712634699" to="2990609221" name="6007" priority="19" type="railway.light_rail" spreadType="center" length="247.85" bidi="441932169#2">
        <lane id="-441932169#2_0" index="0" allow="rail_urban" speed="22.22" length="247.85" shape="4182.22,11901.29 3938.28,11901.29">
            <param key="origId" value="441932169"/>
        </lane>
    </edge>
    <edge id="-441932169#3" from="296020248" to="10712634699" name="6007" priority="19" type="railway.light_rail" spreadType="center" length="16.96" bidi="441932169#3">
        <lane id="-441932169#3_0" index="0" allow="rail_urban" speed="22.22" length="16.96" shape="4198.88,11901.29 4182.22,11901.29">
            <param key="origId" value="441932169"/>
        </lane>
    </edge>
    <edge id="-441932169#4" from="10713196734" to="296020248" name="6007" priority="19" type="railway.light_rail" spreadType="center" length="394.82" bidi="441932169#4">
        <lane id="-441932169#4_0" index="0" allow="rail_urban" speed="22.22" length="394.82" shape="4578.88,11901.29 4198.88,11901.29">
            <param key="origId" value="441932169"/>
        </lane>
    </edge>
    <edge id="-46843152" from="293605247" to="1363480434" priority="20" type="railway.rail" spreadType="center" length="61.89" shape="1237.84,6312.80 1207.06,6252.80 1187.06,6252.80" bidi="46843152">
        <lane id="-46843152_0" index="0" allow="rail rail_electric rail_fast" speed="44.44" length="61.89" shape="1235.96,6309.14 1207.06,6252.80 1191.00,6252.80">
            <param key="origId" value="46843152"/>
        </lane>
    </edge>
    <edge id="-742458418#0" from="4395826741" to="374388207" name="6142" priority="20" type="railway.rail" spreadType="center" length="80.66" bidi="742458418#0">
        <lane id="-742458418#0_0" index="0" allow="rail rail_electric rail_fast" speed="27.78" length="80.66" shape="1290.50,6392.80 1365.80,6392.80">
            <param key="origId" value="742458418"/>
        </lane>
    </edge>
    <edge id="-802024940" from="428760212" to="428759039" name="6007" priority="19" type="railway.light_rail" spreadType="center" length="140.13" bidi="802024940">
        <lane id="-802024940_0" index="0" allow="rail_urban" speed="27.78" length="140.13" shape="994.56,6352.80 1097.45,6352.80">
            <param key="origId" value="802024940"/>
        </lane>
        <param key="railway:track_ref" value="2"/>
    </edge>
    <edge id="-8044249" from="4360022513" to="4395205108" name="6520" priority="20" type="railway.rail" spreadType="center" length="3110.07" bidi="-176623658#0">
        <lane id="-8044249_0" index="0" allow="rail" speed="22.22" length="3110.07" shape="2087.05,6745.55 2067.05,6745.55">
            <param key="origId" value="8044249 10414934 5650950 176623658"/>
        </lane>
    </edge>
    <edge id="1015347135" from="9366243678" to="9366243676" priority="20" type="railway.rail" spreadType="center" length="47.08">
        <lane id="1015347135_0" index="0" allow="rail" speed="44.44" length="47.08" shape="1850.59,6312.80 1825.00,6312.80">
            <param key="origId" value="1015347135"/>
        </lane>
    </edge>
    <edge id="1119144140" from="10235401871" to="10235401872" priority="20" type="railway.rail" spreadType="center">
        <lane id="1119144140_0" index="0" allow="rail" speed="44.44" length="6.06" shape="3695.04,8632.11 3689.20,8633.71">
            <param key="origId" value="1119144140"/>
        </lane>
    </edge>
    <edge id="1119144141#0" from="10235401873" to="10235401874" priority="20" type="railway.rail" spreadType="center" shape="3666.94,8742.98 3667.54,8745.14 3668.86,8749.82 3671.17,8758.05 3747.03,9028.06 3777.70,9137.25 3794.49,9197.00 3809.29,9249.70">
        <lane id="1119144141#0_0" index="0" allow="rail" speed="44.44" length="526.34" shape="3666.94,8742.98 3667.54,8745.14 3668.86,8749.82 3671.17,8758.05 3747.03,9028.06 3777.70,9137.25 3794.49,9197.00 3808.45,9246.71">
            <param key="origId" value="1119144141"/>
        </lane>
    </edge>
    <edge id="1119144141#1" from="10235401874" to="10235401875" priority="20" type="railway.rail" spreadType="center">
        <lane id="1119144141#1_0" index="0" allow="rail" speed="44.44" length="34.01" shape="3810.07,9252.76 3817.69,9282.66">
            <param key="origId" value="1119144141"/>
        </lane>
    </edge>
    <edge id="1119144142#0" from="10235401876" to="10235401874" priority="20" type="railway.rail" spreadType="center" shape="3790.60,9255.15 3806.70,9250.46 3809.29,9249.70">
        <lane id="1119144142#0_0" index="0" allow="rail" speed="44.44" length="19.47" shape="3790.60,9255.15 3806.26,9250.59">
            <param key="origId" value="1119144142"/>
        </lane>
    </edge>
    <edge id="1119144142#1" from="10235401874" to="10235401877" priority="20" type="railway.rail" spreadType="center">
        <lane id="1119144142#1_0" index="0" allow="rail" speed="44.44" length="19.82" shape="3812.28,9248.85 3828.35,9244.26">
            <param key="origId" value="1119144142"/>
        </lane>
    </edge>
    <edge id="1119144143" from="10235401883" to="10235401888" priority="20" type="railway.rail" spreadType="center" shape="3911.68,9101.12 3915.66,9116.23 3919.25,9135.31 3921.59,9151.45 3921.97,9154.05 3922.98,9161.00 3927.89,9182.02 3932.96,9200.35">
        <lane id="1119144143_0" index="0" allow="rail" speed="44.44" length="101.60" shape="3911.68,9101.12 3915.66,9116.23 3919.25,9135.31 3921.59,9151.45 3921.97,9154.05 3922.98,9161.00 3927.89,9182.02 3932.96,9200.35">
            <param key="origId" value="1119144143"/>
        </lane>
    </edge>