<?xml version="1.0" encoding="UTF-8"?>

<!-- generated on 2023-03-10 18:06:51 by Eclipse SUMO netconvert Version v1_16_0+1097-3a874ee0d52
<configuration xmlns:xsi="http://www.w3.org/2001/XMLSchema-instance" xsi:noNamespaceSchemaLocation="http://sumo.dlr.de/xsd/netconvertConfiguration.xsd">

    <input>
        <sumo-net-file value="input_net.net.xml"/>
        <node-files value="net.nod.xml"/>
        <edge-files value="net.edg.xml"/>
    </input>

    <output>
        <output-file value="net.net.xml"/>
        <output.street-names value="true"/>
    </output>

    <processing>
        <geometry.min-radius.fix.railways value="false"/>
        <geometry.max-grade.fix value="false"/>
        <offset.disable-normalization value="true"/>
        <lefthand value="0"/>
    </processing>

    <junctions>
        <no-internal-links value="true"/>
        <no-turnarounds value="true"/>
        <junctions.corner-detail value="5"/>
        <junctions.limit-turn-speed value="5.50"/>
        <rectangular-lane-cut value="0"/>
    </junctions>

    <pedestrian>
        <walkingareas value="0"/>
    </pedestrian>

</configuration>
-->

<net version="1.16" junctionCornerDetail="5" limitTurnSpeed="5.50" xmlns:xsi="http://www.w3.org/2001/XMLSchema-instance" xsi:noNamespaceSchemaLocation="http://sumo.dlr.de/xsd/net_file.xsd">

    <location netOffset="-403040.31,-5788711.14" convBoundary="-2641.91,0.00,4173.87,14830.00" origBoundary="13.574416,52.240912,13.691479,52.413950" projParameter="+proj=utm +zone=33 +ellps=WGS84 +datum=WGS84 +units=m +no_defs"/>

    <type id="aerialway.cable_car" priority="24" numLanes="1" speed="13.89" allow="rail_urban" oneway="0"/>
    <type id="aerialway.gondola" priority="23" numLanes="1" speed="13.89" allow="rail_urban" oneway="0"/>
    <type id="highway.bridleway" priority="1" numLanes="1" speed="2.78" allow="pedestrian" oneway="1" width="2.00"/>
    <type id="highway.bus_guideway" priority="1" numLanes="1" speed="27.78" allow="bus" oneway="1"/>
    <type id="highway.cycleway" priority="1" numLanes="1" speed="5.56" allow="bicycle" oneway="0" width="1.00"/>
    <type id="highway.footway" priority="1" numLanes="1" speed="2.78" allow="pedestrian" oneway="1" width="2.00"/>
    <type id="highway.ford" priority="1" numLanes="1" speed="2.78" allow="army" oneway="0"/>
    <type id="highway.living_street" priority="2" numLanes="1" speed="2.78" disallow="tram rail_urban rail rail_electric rail_fast ship" oneway="0"/>
    <type id="highway.motorway" priority="14" numLanes="2" speed="39.44" allow="private emergency authority army vip passenger hov taxi bus coach delivery truck trailer motorcycle evehicle custom1 custom2" oneway="1"/>
    <type id="highway.motorway_link" priority="9" numLanes="1" speed="22.22" allow="private emergency authority army vip passenger hov taxi bus coach delivery truck trailer motorcycle evehicle custom1 custom2" oneway="1"/>
    <type id="highway.path" priority="1" numLanes="1" speed="5.56" allow="pedestrian bicycle" oneway="0" width="2.00"/>
    <type id="highway.pedestrian" priority="1" numLanes="1" speed="2.78" allow="pedestrian" oneway="1" width="2.00"/>
    <type id="highway.primary" priority="12" numLanes="2" speed="27.78" disallow="tram rail_urban rail rail_electric rail_fast ship" oneway="0"/>
    <type id="highway.primary_link" priority="7" numLanes="1" speed="22.22" disallow="tram rail_urban rail rail_electric rail_fast ship" oneway="0"/>
    <type id="highway.raceway" priority="15" numLanes="2" speed="83.33" allow="vip" oneway="0"/>
    <type id="highway.residential" priority="3" numLanes="1" speed="13.89" disallow="tram rail_urban rail rail_electric rail_fast ship" oneway="0"/>
    <type id="highway.secondary" priority="11" numLanes="1" speed="27.78" disallow="tram rail_urban rail rail_electric rail_fast ship" oneway="0"/>
    <type id="highway.secondary_link" priority="6" numLanes="1" speed="22.22" disallow="tram rail_urban rail rail_electric rail_fast ship" oneway="0"/>
    <type id="highway.service" priority="1" numLanes="1" speed="5.56" allow="pedestrian delivery bicycle" oneway="0"/>
    <type id="highway.stairs" priority="1" numLanes="1" speed="1.39" allow="pedestrian" oneway="1" width="2.00"/>
    <type id="highway.step" priority="1" numLanes="1" speed="1.39" allow="pedestrian" oneway="1" width="2.00"/>
    <type id="highway.steps" priority="1" numLanes="1" speed="1.39" allow="pedestrian" oneway="1" width="2.00"/>
    <type id="highway.tertiary" priority="10" numLanes="1" speed="22.22" disallow="tram rail_urban rail rail_electric rail_fast ship" oneway="0"/>
    <type id="highway.tertiary_link" priority="5" numLanes="1" speed="22.22" disallow="tram rail_urban rail rail_electric rail_fast ship" oneway="0"/>
    <type id="highway.track" priority="1" numLanes="1" speed="5.56" allow="pedestrian motorcycle moped bicycle" oneway="0"/>
    <type id="highway.trunk" priority="13" numLanes="2" speed="27.78" disallow="pedestrian bicycle tram rail_urban rail rail_electric rail_fast ship" oneway="0"/>
    <type id="highway.trunk_link" priority="8" numLanes="1" speed="22.22" disallow="pedestrian bicycle tram rail_urban rail rail_electric rail_fast ship" oneway="0"/>
    <type id="highway.unclassified" priority="4" numLanes="1" speed="13.89" disallow="tram rail_urban rail rail_electric rail_fast ship" oneway="0"/>
    <type id="highway.unsurfaced" priority="1" numLanes="1" speed="8.33" disallow="tram rail_urban rail rail_electric rail_fast ship" oneway="0"/>
    <type id="railway.highspeed" priority="21" numLanes="1" speed="69.44" allow="rail_fast" oneway="1"/>
    <type id="railway.light_rail" priority="19" numLanes="1" speed="27.78" allow="rail_urban" oneway="1"/>
    <type id="railway.monorail" priority="22" numLanes="1" speed="27.78" allow="rail_urban" oneway="1"/>
    <type id="railway.preserved" priority="16" numLanes="1" speed="27.78" allow="rail" oneway="1"/>
    <type id="railway.rail" priority="20" numLanes="1" speed="44.44" allow="rail" oneway="1"/>
    <type id="railway.subway" priority="18" numLanes="1" speed="27.78" allow="rail_urban" oneway="1"/>
    <type id="railway.tram" priority="17" numLanes="1" speed="13.89" allow="tram" oneway="1"/>

    <edge id="-121902849" from="42145788" to="374388207" name="6142" priority="20" type="railway.rail" spreadType="center" length="85.51" bidi="33142249">
        <lane id="-121902849_0" index="0" allow="rail rail_electric rail_fast" speed="27.78" length="85.51" shape="505.42,358.11 422.62,241.89">
            <param key="origId" value="121902849 8602141 33142249"/>
        </lane>
    </edge>
    <edge id="-124449286#0" from="1363480435" to="4395255491" priority="20" type="railway.rail" spreadType="center" length="270.18" shape="263.62,40.00 327.95,20.00 340.62,20.00 369.54,20.00 375.26,20.00 421.27,20.00 491.07,20.00 512.48,20.00" bidi="441828377">
        <lane id="-124449286#0_0" index="0" allow="rail rail_electric rail_fast" speed="44.44" length="270.18" shape="265.66,39.37 327.95,20.00 340.62,20.00 369.54,20.00 375.26,20.00 421.27,20.00 491.07,20.00 512.48,20.00">
            <param key="origId" value="124449286 742458425 742458426 441828378 441828377"/>
        </lane>
    </edge>
    <edge id="-124449286#2" from="428994711" to="1363480434" priority="20" type="railway.rail" spreadType="center" length="8.44" bidi="124449286#2">
        <lane id="-124449286#2_0" index="0" allow="rail rail_electric rail_fast" speed="44.44" length="8.44" shape="211.56,120.00 215.75,120.00">
            <param key="origId" value="124449286"/>
        </lane>
    </edge>
    <edge id="-153134060#0" from="10707784192" to="296021288" name="6007" priority="19" type="railway.light_rail" spreadType="center" length="412.89" bidi="153134060#0">
        <lane id="-153134060#0_0" index="0" allow="rail_urban" speed="22.22" length="412.89" shape="-708.87,0.00 -299.89,0.00">
            <param key="origId" value="153134060"/>
        </lane>
    </edge>
    <edge id="-153134060#1" from="296020389" to="10707784192" name="6007" priority="19" type="railway.light_rail" spreadType="center" length="33.49" bidi="153134060#1">
        <lane id="-153134060#1_0" index="0" allow="rail_urban" speed="22.22" length="33.49" shape="-742.23,0.00 -708.87,0.00">
            <param key="origId" value="153134060"/>
        </lane>
    </edge>
    <edge id="-153134060#2" from="10707835705" to="296020389" name="6007" priority="19" type="railway.light_rail" spreadType="center" length="760.71" bidi="153134060#2">
        <lane id="-153134060#2_0" index="0" allow="rail_urban" speed="22.22" length="760.71" shape="-1499.69,0.00 -742.23,0.00">
            <param key="origId" value="153134060"/>
        </lane>
    </edge>
    <edge id="-153134060#3" from="10707835708" to="10707835705" name="6007" priority="19" type="railway.light_rail" spreadType="center" length="535.10" bidi="153134060#3">
        <lane id="-153134060#3_0" index="0" allow="rail_urban" speed="22.22" length="535.10" shape="1371.19,0.00 -1499.69,0.00">
            <param key="origId" value="153134060"/>
        </lane>
    </edge>
    <edge id="-153134060#4" from="10707835717" to="10707835708" name="6007" priority="19" type="railway.light_rail" spreadType="center" length="791.57" shape="583.87,0.00 889.54,0.00 1028.08,0.00 1371.19,0.00" bidi="153134060#4">
        <lane id="-153134060#4_0" index="0" allow="rail_urban" speed="22.22" length="791.57" shape="583.87,0.00 889.54,0.00 1028.08,0.00 1371.19,0.00">
            <param key="origId" value="153134060"/>
        </lane>
    </edge>
    <edge id="-153134060#5" from="418008014" to="10707835717" name="6007" priority="19" type="railway.light_rail" spreadType="center" length="177.48" bidi="153134060#5">
        <lane id="-153134060#5_0" index="0" allow="rail_urban" speed="22.22" length="177.48" shape="407.97,0.00 583.87,0.00">
            <param key="origId" value="153134060"/>
        </lane>
    </edge>
    <edge id="-176623658#0" from="4395205108" to="4360022513" name="6520" priority="20" type="railway.rail" spreadType="center" length="3110.07" bidi="-8044249">
        <lane id="-176623658#0_0" index="0" allow="rail" speed="22.22" length="3110.07" shape="-2254.92,0.00 820.02,0.00">
            <param key="origId" value="176623658 5650950 10414934 8044249"/>
        </lane>
    </edge>
    <edge id="-176623658#1" from="4359951274" to="4395205108" name="6520" priority="20" type="railway.rail" spreadType="center" length="394.40" bidi="176623658#1">
        <lane id="-176623658#1_0" index="0" allow="rail" speed="22.22" length="394.40" shape="-2562.12,0.00 -2254.92,0.00">
            <param key="origId" value="176623658"/>
        </lane>
    </edge>
    <edge id="-23369315" from="293605248" to="1363480438" name="6007" priority="19" type="railway.light_rail" spreadType="center" length="141.49" shape="369.54,200.00 421.27,200.00 511.02,300.00" bidi="294730185">
        <lane id="-23369315_0" index="0" allow="rail_urban" speed="22.22" length="141.49" shape="375.72,200.00 421.27,200.00 509.54,298.35">
            <param key="origId" value="23369315 23369316 294730185"/>
        </lane>
    </edge>
    <edge id="-254025498" from="2598612721" to="295049179" priority="20" type="railway.rail" spreadType="center" length="134.72" shape="-670.83,240.00 -692.09,220.00 -805.48,220.00" bidi="254025498">
        <lane id="-254025498_0" index="0" allow="rail rail_electric rail_fast" speed="27.78" length="134.72" shape="-674.86,236.21 -692.09,220.00 -797.54,220.00">
            <param key="origId" value="254025498"/>
        </lane>
    </edge>
    <edge id="-254033615#0" from="295049177" to="295049179" name="6142" priority="20" type="railway.rail" spreadType="center" length="113.39" bidi="254033615#0">
        <lane id="-254033615#0_0" index="0" allow="rail rail_electric rail_fast" speed="44.44" length="113.39" shape="-693.77,160.89 -798.46,216.28">
            <param key="origId" value="254033615"/>
        </lane>
    </edge>
    <edge id="-255228345#0" from="10707835741" to="428356234" name="6007" priority="19" type="railway.light_rail" spreadType="center" length="433.23" shape="-583.70,0.00 -494.04,0.00 -422.98,0.00 -153.82,0.00" bidi="255228345#0">
        <lane id="-255228345#0_0" index="0" allow="rail_urban" speed="22.22" length="433.23" shape="-583.70,0.00 -494.04,0.00 -422.98,0.00 -155.42,0.00">
            <param key="origId" value="255228345"/>
        </lane>
    </edge>
    <edge id="-255228346#0" from="10707835725" to="418008014" priority="19" type="railway.light_rail" spreadType="center" length="239.32" bidi="255228346#0">
        <lane id="-255228346#0_0" index="0" allow="rail_urban" speed="27.78" length="239.32" shape="167.15,20.00 366.69,3.32">
            <param key="origId" value="255228346"/>
        </lane>
        <param key="railway:track_ref" value="3"/>
    </edge>
    <edge id="-255228346#1" from="10707835734" to="10707835725" priority="19" type="railway.light_rail" spreadType="center" length="167.30" bidi="255228346#1">
        <lane id="-255228346#1_0" index="0" allow="rail_urban" speed="27.78" length="167.30" shape="-0.05,20.00 167.15,20.00">
            <param key="origId" value="255228346"/>
        </lane>
        <param key="railway:track_ref" value="3"/>
    </edge>
    <edge id="-255228346#2" from="428356234" to="10707835734" priority="19" type="railway.light_rail" spreadType="center" length="153.76" bidi="255228346#2">
        <lane id="-255228346#2_0" index="0" allow="rail_urban" speed="27.78" length="153.76" shape="-127.85,3.38 -0.25,19.99">
            <param key="origId" value="255228346"/>
        </lane>
        <param key="railway:track_ref" value="3"/>
    </edge>
    <edge id="-255228348#0" from="428356234" to="10707835735" name="6007" priority="19" type="railway.light_rail" spreadType="center" length="153.51" bidi="255228348#0">
        <lane id="-255228348#0_0" index="0" allow="rail_urban" speed="22.22" length="153.51" shape="-127.63,0.00 -0.44,0.00">
            <param key="origId" value="255228348"/>
        </lane>
        <param key="railway:track_ref" value="4"/>
    </edge>
    <edge id="-255228348#1" from="10707835735" to="10707835726" name="6007" priority="19" type="railway.light_rail" spreadType="center" length="167.93" bidi="255228348#1">
        <lane id="-255228348#1_0" index="0" allow="rail_urban" speed="22.22" length="167.93" shape="-0.44,0.00 167.47,0.00">
            <param key="origId" value="255228348"/>
        </lane>
        <param key="railway:track_ref" value="4"/>
    </edge>
    <edge id="-255228348#2" from="10707835726" to="418008014" name="6007" priority="19" type="railway.light_rail" spreadType="center" length="239.06" bidi="255228348#2">
        <lane id="-255228348#2_0" index="0" allow="rail_urban" speed="22.22" length="239.06" shape="167.47,0.00 366.55,0.00">
            <param key="origId" value="255228348"/>
        </lane>
        <param key="railway:track_ref" value="4"/>
    </edge>
    <edge id="-26926962" from="295049993" to="295049529" priority="20" type="railway.rail" spreadType="center" length="990.20" shape="-1587.65,120.00 -1196.71,120.00 -1187.34,120.00 -1048.78,120.00 -911.37,120.00 -844.13,120.00 -805.48,120.00 -692.09,120.00 -670.83,120.00 -601.92,120.00" bidi="121902859">
        <lane id="-26926962_0" index="0" allow="rail" speed="44.44" length="990.20" shape="-1587.65,120.00 -1196.71,120.00 -1187.34,120.00 -1048.78,120.00 -911.37,120.00 -844.13,120.00 -805.48,120.00 -692.09,120.00 -670.83,120.00 -604.37,120.00">
            <param key="origId" value="26926962 121902859"/>
        </lane>
    </edge>
    <edge id="-26927036" from="293604102" to="42132826" name="6520" priority="20" type="railway.rail" spreadType="center" length="561.79" shape="327.95,160.00 369.54,40.00 375.26,40.00 421.27,40.00 491.07,40.00 506.77,40.00 511.02,40.00 512.48,40.00 551.96,40.00 606.82,40.00 639.28,40.00 645.80,40.00 660.43,40.00 683.30,40.00 685.96,40.00 701.92,40.00 713.71,40.00 1096.83,0.00" bidi="314928807#1">
        <lane id="-26927036_0" index="0" allow="rail" speed="13.89" length="561.79" shape="329.18,156.46 369.54,40.00 375.26,40.00 421.27,40.00 491.07,40.00 506.77,40.00 511.02,40.00 512.48,40.00 551.96,40.00 606.82,40.00 639.28,40.00 645.80,40.00 660.43,40.00 683.30,40.00 685.96,40.00 701.92,40.00 713.71,40.00 1066.26,3.19">
            <param key="origId" value="26927036 314928807"/>
        </lane>
    </edge>
    <edge id="-294730182" from="293605247" to="293604102" name="6520" priority="20" type="railway.rail" spreadType="center" length="48.21" bidi="742458424">
        <lane id="-294730182_0" index="0" allow="rail" speed="44.44" length="48.21" shape="289.27,160.00 325.31,160.00">
            <param key="origId" value="294730182 742458423 742458424"/>
        </lane>
    </edge>
    <edge id="-294730183" from="428759039" to="293605248" name="6007" priority="19" type="railway.light_rail" spreadType="center" length="240.97" shape="128.58,200.00 159.27,200.00 175.07,200.00 206.12,200.00 209.75,200.00 218.18,200.00 263.62,200.00 279.74,200.00 327.95,200.00 340.62,200.00 369.54,200.00" bidi="742458420">
        <lane id="-294730183_0" index="0" allow="rail_urban" speed="22.22" length="240.97" shape="128.58,200.00 159.27,200.00 175.07,200.00 206.12,200.00 209.75,200.00 218.18,200.00 263.62,200.00 279.74,200.00 327.95,200.00 340.62,200.00 362.91,200.00">
            <param key="origId" value="294730183 742458419 742458420"/>
        </lane>
        <param key="railway:track_ref" value="2"/>
    </edge>
    <edge id="-295348086" from="2990609221" to="296021449" priority="19" type="railway.light_rail" spreadType="center" length="90.09" bidi="295348086">
        <lane id="-295348086_0" index="0" allow="rail_urban" speed="27.78" length="90.09" shape="417.97,3.49 359.87,16.51">
            <param key="origId" value="295348086"/>
        </lane>
    </edge>
    <edge id="-314928807#0" from="42132826" to="291831407" name="6520" priority="20" type="railway.rail" spreadType="center" length="209.96" bidi="314928807#0" distance="57310.36">
        <lane id="-314928807#0_0" index="0" allow="rail" speed="13.89" length="209.96" shape="1066.10,0.00 984.47,0.00">
            <param key="origId" value="314928807"/>
        </lane>
    </edge>
    <edge id="-314928808" from="291831407" to="42132803" name="6520" priority="20" type="railway.rail" spreadType="center" length="117.45" bidi="314928808">
        <lane id="-314928808_0" index="0" allow="rail" speed="5.56" length="117.45" shape="984.47,0.00 907.19,0.00">
            <param key="origId" value="314928808"/>
        </lane>
    </edge>
    <edge id="-326225735#0" from="10707835751" to="10707835741" name="6007" priority="19" type="railway.light_rail" spreadType="center" length="1053.19" bidi="255228345#1">
        <lane id="-326225735#0_0" index="0" allow="rail_urban" speed="22.22" length="1053.19" shape="-1589.88,0.00 -583.70,0.00">
            <param key="origId" value="326225735 326225725 255228345"/>
        </lane>
    </edge>
    <edge id="-326225735#1" from="1363480438" to="10707835751" name="6007" priority="19" type="railway.light_rail" spreadType="center" length="440.94" shape="511.02,300.00 551.96,340.00 606.82,340.00 639.28,340.00 645.80,340.00 660.43,340.00 683.30,340.00 685.96,340.00 701.92,340.00 713.71,340.00 729.55,340.00 744.13,340.00 750.56,340.00 770.62,340.00 774.08,340.00 795.59,340.00 918.81,340.00 919.03,340.00 923.83,340.00 -1610.36,0.00" bidi="326225735#1">
        <lane id="-326225735#1_0" index="0" allow="rail_urban" speed="22.22" length="440.94" shape="514.90,303.79 551.96,340.00 606.82,340.00 639.28,340.00 645.80,340.00 660.43,340.00 683.30,340.00 685.96,340.00 701.92,340.00 713.71,340.00 729.55,340.00 744.13,340.00 750.56,340.00 770.62,340.00 774.08,340.00 795.59,340.00 918.81,340.00 919.03,340.00 923.83,340.00 -1590.06,2.72">
            <param key="origId" value="326225735"/>
        </lane>
    </edge>
    <edge id="-33141915#0" from="10707518655" to="295049177" name="6142" priority="20" type="railway.rail" spreadType="center" length="238.02" shape="-454.35,160.00 -517.61,160.00 -549.37,160.00 -601.92,160.00 -670.83,160.00 -692.09,160.00" bidi="254033615#1">
        <lane id="-33141915#0_0" index="0" allow="rail rail_electric rail_fast" speed="44.44" length="238.02" shape="-454.35,160.00 -517.61,160.00 -549.37,160.00 -601.92,160.00 -670.83,160.00 -686.55,160.00">
            <param key="origId" value="33141915 121902856 254033615"/>
        </lane>
    </edge>
    <edge id="-33142145#0" from="4395254268" to="10707518655" name="6142" priority="20" type="railway.rail" spreadType="center" length="660.60" shape="206.12,160.00 175.07,160.00 159.27,160.00 145.88,160.00 128.58,160.00 120.31,160.00 97.65,160.00 86.49,160.00 65.99,160.00 -8.44,160.00 -11.41,160.00 -125.29,160.00 -253.89,160.00 -293.06,160.00 -313.46,160.00 -340.61,160.00 -369.80,160.00 -387.56,160.00 -419.75,160.00 -428.41,160.00 -454.35,160.00" bidi="33141915#1">
        <lane id="-33142145#0_0" index="0" allow="rail rail_electric rail_fast" speed="44.44" length="660.60" shape="206.12,160.00 175.07,160.00 159.27,160.00 145.88,160.00 128.58,160.00 120.31,160.00 97.65,160.00 86.49,160.00 65.99,160.00 -8.44,160.00 -11.41,160.00 -125.29,160.00 -253.89,160.00 -293.06,160.00 -313.46,160.00 -340.61,160.00 -369.80,160.00 -387.56,160.00 -419.75,160.00 -428.41,160.00 -454.35,160.00">
            <param key="origId" value="33142145 33141915"/>
        </lane>
        <param key="railway:track_ref" value="3"/>
    </edge>
    <edge id="-33142145#1" from="293605247" to="4395254268" name="6142" priority="20" type="railway.rail" spreadType="center" length="73.62" bidi="33142145#1">
        <lane id="-33142145#1_0" index="0" allow="rail rail_electric rail_fast" speed="44.44" length="73.62" shape="272.84,160.00 206.12,160.00">
            <param key="origId" value="33142145"/>
        </lane>
        <param key="railway:track_ref" value="3"/>
    </edge>
    <edge id="-334912225#0" from="10707518645" to="4395826741" name="6142" priority="20" type="railway.rail" spreadType="center" length="349.07" shape="-8.44,240.00 65.99,240.00 86.49,240.00 97.65,240.00 120.31,240.00 128.58,240.00 145.88,240.00 159.27,240.00 175.07,240.00 206.12,240.00 209.75,240.00 218.18,240.00 263.62,240.00 279.74,240.00 340.62,240.00" bidi="742458418#1">
        <lane id="-334912225#0_0" index="0" allow="rail rail_electric rail_fast" speed="27.78" length="349.07" shape="-8.44,240.00 65.99,240.00 86.49,240.00 97.65,240.00 120.31,240.00 128.58,240.00 145.88,240.00 159.27,240.00 175.07,240.00 206.12,240.00 209.75,240.00 218.18,240.00 263.62,240.00 279.74,240.00 340.62,240.00">
            <param key="origId" value="334912225 78766917 742458417 742458418"/>
        </lane>
    </edge>
    <edge id="-334912225#1" from="10707518656" to="10707518645" name="6142" priority="20" type="railway.rail" spreadType="center" length="426.80" shape="-435.24,240.00 -387.56,240.00 -369.80,240.00 -340.61,240.00 -313.46,240.00 -293.06,240.00 -253.89,240.00 -125.29,240.00 -8.44,240.00" bidi="334912225#1">
        <lane id="-334912225#1_0" index="0" allow="rail rail_electric rail_fast" speed="27.78" length="426.80" shape="-435.24,240.00 -387.56,240.00 -369.80,240.00 -340.61,240.00 -313.46,240.00 -293.06,240.00 -253.89,240.00 -125.29,240.00 -8.44,240.00">
            <param key="origId" value="334912225"/>
        </lane>
    </edge>
    <edge id="-334912225#2" from="2598612721" to="10707518656" name="6142" priority="20" type="railway.rail" spreadType="center" length="235.60" shape="-670.83,240.00 -601.92,240.00 -549.37,240.00 -517.61,240.00 -466.90,240.00 -435.24,240.00" bidi="334912225#2">
        <lane id="-334912225#2_0" index="0" allow="rail rail_electric rail_fast" speed="27.78" length="235.60" shape="-668.70,240.00 -601.92,240.00 -549.37,240.00 -517.61,240.00 -466.90,240.00 -435.24,240.00">
            <param key="origId" value="334912225"/>
        </lane>
    </edge>
    <edge id="-347977095" from="428647707" to="3542016595" priority="20" type="railway.rail" spreadType="center" length="190.85" shape="1045.67,40.00 1067.66,20.00 1138.73,20.00 1148.80,20.00 1171.12,20.00" bidi="347977095">
        <lane id="-347977095_0" index="0" allow="rail" speed="44.44" length="190.85" shape="1049.84,36.21 1067.66,20.00 1138.73,20.00 1148.80,20.00 1171.12,20.00">
            <param key="origId" value="347977095"/>
        </lane>
    </edge>
    <edge id="-36853643#0" from="10712435854" to="59143907" name="6007" priority="19" type="railway.light_rail" spreadType="center" length="38.23" bidi="36853643#0">
        <lane id="-36853643#0_0" index="0" allow="rail_urban" speed="27.78" length="38.23" shape="0.44,20.00 38.66,20.00">
            <param key="origId" value="36853643"/>
        </lane>
    </edge>
    <edge id="-36853643#1" from="296021288" to="10712435854" name="6007" priority="19" type="railway.light_rail" spreadType="center" length="298.89" bidi="36853643#1">
        <lane id="-36853643#1_0" index="0" allow="rail_urban" speed="27.78" length="298.89" shape="-249.09,3.30 0.44,20.00">
            <param key="origId" value="36853643"/>
        </lane>
    </edge>
    <edge id="-36867992" from="428648323" to="428648322" priority="20" type="railway.rail" spreadType="center" length="35.91" bidi="36867992">
        <lane id="-36867992_0" index="0" allow="rail" speed="44.44" length="35.91" shape="1207.86,100.00 1186.53,100.00">
            <param key="origId" value="36867992"/>
        </lane>
    </edge>
    <edge id="-392159899#1" from="295049179" to="295049181" name="6142" priority="20" type="railway.rail" spreadType="center" length="38.66" bidi="392159899#1">
        <lane id="-392159899#1_0" index="0" allow="rail rail_electric rail_fast" speed="27.78" length="38.66" shape="-803.11,220.00 -803.31,220.00">
            <param key="origId" value="392159899"/>
        </lane>
    </edge>
    <edge id="-438267819" from="42132803" to="4360022513" name="6520" priority="20" type="railway.rail" spreadType="center" length="103.20" bidi="438267819">
        <lane id="-438267819_0" index="0" allow="rail" speed="22.22" length="103.20" shape="907.19,0.00 820.02,0.00">
            <param key="origId" value="438267819"/>
        </lane>
    </edge>
    <edge id="-441932166#3" from="10712435852" to="296021449" name="6007" priority="19" type="railway.light_rail" spreadType="center" length="173.21" bidi="441932166#3">
        <lane id="-441932166#3_0" index="0" allow="rail_urban" speed="22.22" length="173.21" shape="171.59,20.00 342.62,20.00">
            <param key="origId" value="441932166"/>
        </lane>
    </edge>
    <edge id="-441932166#4" from="59143907" to="10712435852" name="6007" priority="19" type="railway.light_rail" spreadType="center" length="132.93" bidi="441932166#4">
        <lane id="-441932166#4_0" index="0" allow="rail_urban" speed="22.22" length="132.93" shape="38.66,20.00 171.59,20.00">
            <param key="origId" value="441932166"/>
        </lane>
    </edge>
    <edge id="-441932169#2" from="10712634699" to="2990609221" name="6007" priority="19" type="railway.light_rail" spreadType="center" length="247.85" bidi="441932169#2">
        <lane id="-441932169#2_0" index="0" allow="rail_urban" speed="22.22" length="247.85" shape="679.15,0.00 435.22,0.00">
            <param key="origId" value="441932169"/>
        </lane>
    </edge>
    <edge id="-441932169#3" from="296020248" to="10712634699" name="6007" priority="19" type="railway.light_rail" spreadType="center" length="16.96" bidi="441932169#3">
        <lane id="-441932169#3_0" index="0" allow="rail_urban" speed="22.22" length="16.96" shape="695.82,0.00 679.15,0.00">
            <param key="origId" value="441932169"/>
        </lane>
    </edge>
    <edge id="-441932169#4" from="10713196734" to="296020248" name="6007" priority="19" type="railway.light_rail" spreadType="center" length="394.82" bidi="441932169#4">
        <lane id="-441932169#4_0" index="0" allow="rail_urban" speed="22.22" length="394.82" shape="1081.74,0.00 695.82,0.00">
            <param key="origId" value="441932169"/>
        </lane>
    </edge>
    <edge id="-46843152" from="293605247" to="1363480434" priority="20" type="railway.rail" spreadType="center" length="61.89" bidi="46843152">
        <lane id="-46843152_0" index="0" allow="rail rail_electric rail_fast" speed="44.44" length="61.89" shape="273.96,156.24 220.70,121.64">
            <param key="origId" value="46843152"/>
        </lane>
    </edge>
    <edge id="-742458418#0" from="4395826741" to="374388207" name="6142" priority="20" type="railway.rail" spreadType="center" length="80.66" shape="340.62,240.00 369.54,240.00 375.26,240.00 421.27,240.00" bidi="742458418#0">
        <lane id="-742458418#0_0" index="0" allow="rail rail_electric rail_fast" speed="27.78" length="80.66" shape="340.62,240.00 369.54,240.00 375.26,240.00 415.09,240.00">
            <param key="origId" value="742458418"/>
        </lane>
    </edge>
    <edge id="-802024940" from="428760212" to="428759039" name="6007" priority="19" type="railway.light_rail" spreadType="center" length="140.13" shape="-11.41,200.00 65.99,200.00 86.49,200.00 97.65,200.00 128.58,200.00" bidi="802024940">
        <lane id="-802024940_0" index="0" allow="rail_urban" speed="27.78" length="140.13" shape="-11.41,200.00 65.99,200.00 86.49,200.00 97.65,200.00 128.58,200.00">
            <param key="origId" value="802024940"/>
        </lane>
        <param key="railway:track_ref" value="2"/>
    </edge>
    <edge id="-8044249" from="4360022513" to="4395205108" name="6520" priority="20" type="railway.rail" spreadType="center" length="3110.07" bidi="-176623658#0">
        <lane id="-8044249_0" index="0" allow="rail" speed="22.22" length="3110.07" shape="820.02,0.00 -2254.92,0.00">
            <param key="origId" value="8044249 10414934 5650950 176623658"/>
        </lane>
    </edge>