<?xml version="1.0" encoding="UTF-8"?>

<!-- generated on 2022-07-07 11:09:26.672635 by routeSampler.py v1_13_0+1343-240e5d48340
<configuration>
    <route-files value="input_routes.rou.xml"/>
    <turn-files value="input_turns.xml"/>
    <write-flows value="number"/>
</configuration>
-->

<routes xmlns:xsi="http://www.w3.org/2001/XMLSchema-instance" xsi:noNamespaceSchemaLocation="http://sumo.dlr.de/xsd/routes_file.xsd">
<!-- begin="0.0" end="200.0" -->
    <flow id="0_2" begin="0.00" end="180.00" number="10">
        <route edges="-3 -3.180.00 5"/>
    </flow>
<!-- begin="200.0" end="400.0" -->
    <flow id="200_0" begin="200.00" end="375.00" number="8">
        <route edges="-3 -3.180.00 11"/>
    </flow>
</routes>
