<?xml version="1.0" encoding="UTF-8"?>

<!-- generated on 2024-09-25 13:36:24 by Eclipse SUMO sumo Version v1_20_0+0593-8dcc4e49145
This data file and the accompanying materials
are made available under the terms of the Eclipse Public License v2.0
which accompanies this distribution, and is available at
http://www.eclipse.org/legal/epl-v20.html
This file may also be made available under the following Secondary
Licenses when the conditions for such availability set forth in the Eclipse
Public License 2.0 are satisfied: GNU General Public License, version 2
or later which is available at
https://www.gnu.org/licenses/old-licenses/gpl-2.0-standalone.html
SPDX-License-Identifier: EPL-2.0 OR GPL-2.0-or-later
<configuration xmlns:xsi="http://www.w3.org/2001/XMLSchema-instance" xsi:noNamespaceSchemaLocation="http://sumo.dlr.de/xsd/sumoConfiguration.xsd">

    <input>
        <net-file value="net.net.xml"/>
        <route-files value="input_routes.rou.xml"/>
    </input>

    <output>
        <write-license value="true"/>
        <railsignal-block-output value="railsignal_blocks.xml"/>
    </output>

    <processing>
        <collision.action value="warn"/>
        <default.speeddev value="0"/>
    </processing>

    <report>
        <xml-validation value="never"/>
        <duration-log.disable value="true"/>
        <no-step-log value="true"/>
    </report>

</configuration>
-->

<railsignal-block-output>
    <departJunction id="G">
        <driveWay id="G.d1" vehicle="RE2" edges="-f -e -d -c -b -a">
            <forward lanes="-f_0 :F_0_0 -e_0 :E_0_0 -d_0 :D_0_0 -c_0 :C_0_0 -b_0 :B_0_0 -a_0"/>
            <bidi lanes="f_0 :F_1_0 e_0 :E_1_0 d_0 :D_1_0 c_0 :C_1_0 b_0 :B_1_0 a_0"/>
            <flank lanes=""/>
            <conflictLinks signals=""/>
            <foes driveWays="A.d0 G.d1"/>
        </driveWay>
    </departJunction>
    <departJunction id="A">
        <driveWay id="A.d0" vehicle="RE1" edges="a b c d e f">
            <forward lanes="a_0 :B_1_0 b_0 :C_1_0 c_0 :D_1_0 d_0 :E_1_0 e_0 :F_1_0 f_0"/>
            <bidi lanes="-a_0 :B_0_0 -b_0 :C_0_0 -c_0 :D_0_0 -d_0 :E_0_0 -e_0 :F_0_0 -f_0"/>
            <flank lanes=""/>
            <conflictLinks signals=""/>
            <foes driveWays="A.d0 G.d1"/>
        </driveWay>
    </departJunction>
</railsignal-block-output>
