<?xml version="1.0"?>

<!-- generated on 12/10/08 10:44:47 by SUMO netgen Version dev-SVN-r6410
<configuration>

   <grid_network>
      <grid-net>true</grid-net>
      <grid-x-number>20</grid-x-number>
      <grid-y-number>5</grid-y-number>
      <grid-x-length>200</grid-x-length>
      <grid-y-length>40</grid-y-length>
   </grid_network>

   <output>
      <output-file>net.net.xml</output-file>
   </output>

   <building_defaults>
      <lanenumber>3</lanenumber>
   </building_defaults>

   <report>
      <verbose>true</verbose>
   </report>

</configuration>
-->

<net>

   <net-offset>0.00,0.00</net-offset>
   <conv-boundary>0.00,0.00,3800.00,160.00</conv-boundary>
   <orig-boundary>0.00,0.00,3800.00,160.00</orig-boundary>
   <orig-proj>!</orig-proj>

   <node_count>100</node_count>


   <edge id="0/0to0/1" from="0/0" to="0/1" priority="-1" type="netgen-default" function="normal">
      <lanes>
         <lane id="0/0to0/1_0" depart="1" vclasses="" maxspeed="13.90" length="18.80">8.25,9.85 8.25,28.65</lane>
         <lane id="0/0to0/1_1" depart="0" vclasses="" maxspeed="13.90" length="18.80">4.95,9.85 4.95,28.65</lane>
         <lane id="0/0to0/1_2" depart="0" vclasses="" maxspeed="13.90" length="18.80">1.65,9.85 1.65,28.65</lane>
      </lanes>
   </edge>

   <edge id="0/0to1/0" from="0/0" to="1/0" priority="-1" type="netgen-default" function="normal">
      <lanes>
         <lane id="0/0to1/0_0" depart="1" vclasses="" maxspeed="13.90" length="178.80">9.85,-8.25 188.65,-8.25</lane>
         <lane id="0/0to1/0_1" depart="0" vclasses="" maxspeed="13.90" length="178.80">9.85,-4.95 188.65,-4.95</lane>
         <lane id="0/0to1/0_2" depart="0" vclasses="" maxspeed="13.90" length="178.80">9.85,-1.65 188.65,-1.65</lane>
      </lanes>
   </edge>

   <edge id="0/1to0/0" from="0/1" to="0/0" priority="-1" type="netgen-default" function="normal">
      <lanes>
         <lane id="0/1to0/0_0" depart="1" vclasses="" maxspeed="13.90" length="18.80">-8.25,28.65 -8.25,9.85</lane>
         <lane id="0/1to0/0_1" depart="0" vclasses="" maxspeed="13.90" length="18.80">-4.95,28.65 -4.95,9.85</lane>
         <lane id="0/1to0/0_2" depart="0" vclasses="" maxspeed="13.90" length="18.80">-1.65,28.65 -1.65,9.85</lane>
      </lanes>
   </edge>

   <edge id="0/1to0/2" from="0/1" to="0/2" priority="-1" type="netgen-default" function="normal">
      <lanes>
         <lane id="0/1to0/2_0" depart="1" vclasses="" maxspeed="13.90" length="17.30">8.25,51.35 8.25,68.65</lane>
         <lane id="0/1to0/2_1" depart="0" vclasses="" maxspeed="13.90" length="17.30">4.95,51.35 4.95,68.65</lane>
         <lane id="0/1to0/2_2" depart="0" vclasses="" maxspeed="13.90" length="17.30">1.65,51.35 1.65,68.65</lane>
      </lanes>
   </edge>

   <edge id="0/1to1/1" from="0/1" to="1/1" priority="-1" type="netgen-default" function="normal">
      <lanes>
         <lane id="0/1to1/1_0" depart="1" vclasses="" maxspeed="13.90" length="177.30">11.35,31.75 188.65,31.75</lane>
         <lane id="0/1to1/1_1" depart="0" vclasses="" maxspeed="13.90" length="177.30">11.35,35.05 188.65,35.05</lane>
         <lane id="0/1to1/1_2" depart="0" vclasses="" maxspeed="13.90" length="177.30">11.35,38.35 188.65,38.35</lane>
      </lanes>
   </edge>

   <edge id="0/2to0/1" from="0/2" to="0/1" priority="-1" type="netgen-default" function="normal">
      <lanes>
         <lane id="0/2to0/1_0" depart="1" vclasses="" maxspeed="13.90" length="17.30">-8.25,68.65 -8.25,51.35</lane>
         <lane id="0/2to0/1_1" depart="0" vclasses="" maxspeed="13.90" length="17.30">-4.95,68.65 -4.95,51.35</lane>
         <lane id="0/2to0/1_2" depart="0" vclasses="" maxspeed="13.90" length="17.30">-1.65,68.65 -1.65,51.35</lane>
      </lanes>
   </edge>

   <edge id="0/2to0/3" from="0/2" to="0/3" priority="-1" type="netgen-default" function="normal">
      <lanes>
         <lane id="0/2to0/3_0" depart="1" vclasses="" maxspeed="13.90" length="17.30">8.25,91.35 8.25,108.65</lane>
         <lane id="0/2to0/3_1" depart="0" vclasses="" maxspeed="13.90" length="17.30">4.95,91.35 4.95,108.65</lane>
         <lane id="0/2to0/3_2" depart="0" vclasses="" maxspeed="13.90" length="17.30">1.65,91.35 1.65,108.65</lane>
      </lanes>
   </edge>

   <edge id="0/2to1/2" from="0/2" to="1/2" priority="-1" type="netgen-default" function="normal">
      <lanes>
         <lane id="0/2to1/2_0" depart="1" vclasses="" maxspeed="13.90" length="177.30">11.35,71.75 188.65,71.75</lane>
         <lane id="0/2to1/2_1" depart="0" vclasses="" maxspeed="13.90" length="177.30">11.35,75.05 188.65,75.05</lane>
         <lane id="0/2to1/2_2" depart="0" vclasses="" maxspeed="13.90" length="177.30">11.35,78.35 188.65,78.35</lane>
      </lanes>
   </edge>

   <edge id="0/3to0/2" from="0/3" to="0/2" priority="-1" type="netgen-default" function="normal">
      <lanes>
         <lane id="0/3to0/2_0" depart="1" vclasses="" maxspeed="13.90" length="17.30">-8.25,108.65 -8.25,91.35</lane>
         <lane id="0/3to0/2_1" depart="0" vclasses="" maxspeed="13.90" length="17.30">-4.95,108.65 -4.95,91.35</lane>
         <lane id="0/3to0/2_2" depart="0" vclasses="" maxspeed="13.90" length="17.30">-1.65,108.65 -1.65,91.35</lane>
      </lanes>
   </edge>

   <edge id="0/3to0/4" from="0/3" to="0/4" priority="-1" type="netgen-default" function="normal">
      <lanes>
         <lane id="0/3to0/4_0" depart="1" vclasses="" maxspeed="13.90" length="18.80">8.25,131.35 8.25,150.15</lane>
         <lane id="0/3to0/4_1" depart="0" vclasses="" maxspeed="13.90" length="18.80">4.95,131.35 4.95,150.15</lane>
         <lane id="0/3to0/4_2" depart="0" vclasses="" maxspeed="13.90" length="18.80">1.65,131.35 1.65,150.15</lane>
      </lanes>
   </edge>

   <edge id="0/3to1/3" from="0/3" to="1/3" priority="-1" type="netgen-default" function="normal">
      <lanes>
         <lane id="0/3to1/3_0" depart="1" vclasses="" maxspeed="13.90" length="177.30">11.35,111.75 188.65,111.75</lane>
         <lane id="0/3to1/3_1" depart="0" vclasses="" maxspeed="13.90" length="177.30">11.35,115.05 188.65,115.05</lane>
         <lane id="0/3to1/3_2" depart="0" vclasses="" maxspeed="13.90" length="177.30">11.35,118.35 188.65,118.35</lane>
      </lanes>
   </edge>

   <edge id="0/4to0/3" from="0/4" to="0/3" priority="-1" type="netgen-default" function="normal">
      <lanes>
         <lane id="0/4to0/3_0" depart="1" vclasses="" maxspeed="13.90" length="18.80">-8.25,150.15 -8.25,131.35</lane>
         <lane id="0/4to0/3_1" depart="0" vclasses="" maxspeed="13.90" length="18.80">-4.95,150.15 -4.95,131.35</lane>
         <lane id="0/4to0/3_2" depart="0" vclasses="" maxspeed="13.90" length="18.80">-1.65,150.15 -1.65,131.35</lane>
      </lanes>
   </edge>

   <edge id="0/4to1/4" from="0/4" to="1/4" priority="-1" type="netgen-default" function="normal">
      <lanes>
         <lane id="0/4to1/4_0" depart="1" vclasses="" maxspeed="13.90" length="178.80">9.85,151.75 188.65,151.75</lane>
         <lane id="0/4to1/4_1" depart="0" vclasses="" maxspeed="13.90" length="178.80">9.85,155.05 188.65,155.05</lane>
         <lane id="0/4to1/4_2" depart="0" vclasses="" maxspeed="13.90" length="178.80">9.85,158.35 188.65,158.35</lane>
      </lanes>
   </edge>

   <edge id="1/0to0/0" from="1/0" to="0/0" priority="-1" type="netgen-default" function="normal">
      <lanes>
         <lane id="1/0to0/0_0" depart="1" vclasses="" maxspeed="13.90" length="178.80">188.65,8.25 9.85,8.25</lane>
         <lane id="1/0to0/0_1" depart="0" vclasses="" maxspeed="13.90" length="178.80">188.65,4.95 9.85,4.95</lane>
         <lane id="1/0to0/0_2" depart="0" vclasses="" maxspeed="13.90" length="178.80">188.65,1.65 9.85,1.65</lane>
      </lanes>
   </edge>

   <edge id="1/0to1/1" from="1/0" to="1/1" priority="-1" type="netgen-default" function="normal">
      <lanes>
         <lane id="1/0to1/1_0" depart="1" vclasses="" maxspeed="13.90" length="17.30">208.25,11.35 208.25,28.65</lane>
         <lane id="1/0to1/1_1" depart="0" vclasses="" maxspeed="13.90" length="17.30">204.95,11.35 204.95,28.65</lane>
         <lane id="1/0to1/1_2" depart="0" vclasses="" maxspeed="13.90" length="17.30">201.65,11.35 201.65,28.65</lane>
      </lanes>
   </edge>

   <edge id="1/0to2/0" from="1/0" to="2/0" priority="-1" type="netgen-default" function="normal">
      <lanes>
         <lane id="1/0to2/0_0" depart="1" vclasses="" maxspeed="13.90" length="177.30">211.35,-8.25 388.65,-8.25</lane>
         <lane id="1/0to2/0_1" depart="0" vclasses="" maxspeed="13.90" length="177.30">211.35,-4.95 388.65,-4.95</lane>
         <lane id="1/0to2/0_2" depart="0" vclasses="" maxspeed="13.90" length="177.30">211.35,-1.65 388.65,-1.65</lane>
      </lanes>
   </edge>

   <edge id="1/1to0/1" from="1/1" to="0/1" priority="-1" type="netgen-default" function="normal">
      <lanes>
         <lane id="1/1to0/1_0" depart="1" vclasses="" maxspeed="13.90" length="177.30">188.65,48.25 11.35,48.25</lane>
         <lane id="1/1to0/1_1" depart="0" vclasses="" maxspeed="13.90" length="177.30">188.65,44.95 11.35,44.95</lane>
         <lane id="1/1to0/1_2" depart="0" vclasses="" maxspeed="13.90" length="177.30">188.65,41.65 11.35,41.65</lane>
      </lanes>
   </edge>

   <edge id="1/1to1/0" from="1/1" to="1/0" priority="-1" type="netgen-default" function="normal">
      <lanes>
         <lane id="1/1to1/0_0" depart="1" vclasses="" maxspeed="13.90" length="17.30">191.75,28.65 191.75,11.35</lane>
         <lane id="1/1to1/0_1" depart="0" vclasses="" maxspeed="13.90" length="17.30">195.05,28.65 195.05,11.35</lane>
         <lane id="1/1to1/0_2" depart="0" vclasses="" maxspeed="13.90" length="17.30">198.35,28.65 198.35,11.35</lane>
      </lanes>
   </edge>

   <edge id="1/1to1/2" from="1/1" to="1/2" priority="-1" type="netgen-default" function="normal">
      <lanes>
         <lane id="1/1to1/2_0" depart="1" vclasses="" maxspeed="13.90" length="17.30">208.25,51.35 208.25,68.65</lane>
         <lane id="1/1to1/2_1" depart="0" vclasses="" maxspeed="13.90" length="17.30">204.95,51.35 204.95,68.65</lane>
         <lane id="1/1to1/2_2" depart="0" vclasses="" maxspeed="13.90" length="17.30">201.65,51.35 201.65,68.65</lane>
      </lanes>
   </edge>

   <edge id="1/1to2/1" from="1/1" to="2/1" priority="-1" type="netgen-default" function="normal">
      <lanes>
         <lane id="1/1to2/1_0" depart="1" vclasses="" maxspeed="13.90" length="177.30">211.35,31.75 388.65,31.75</lane>
         <lane id="1/1to2/1_1" depart="0" vclasses="" maxspeed="13.90" length="177.30">211.35,35.05 388.65,35.05</lane>
         <lane id="1/1to2/1_2" depart="0" vclasses="" maxspeed="13.90" length="177.30">211.35,38.35 388.65,38.35</lane>
      </lanes>
   </edge>

   <edge id="1/2to0/2" from="1/2" to="0/2" priority="-1" type="netgen-default" function="normal">
      <lanes>
         <lane id="1/2to0/2_0" depart="1" vclasses="" maxspeed="13.90" length="177.30">188.65,88.25 11.35,88.25</lane>
         <lane id="1/2to0/2_1" depart="0" vclasses="" maxspeed="13.90" length="177.30">188.65,84.95 11.35,84.95</lane>
         <lane id="1/2to0/2_2" depart="0" vclasses="" maxspeed="13.90" length="177.30">188.65,81.65 11.35,81.65</lane>
      </lanes>
   </edge>

   <edge id="1/2to1/1" from="1/2" to="1/1" priority="-1" type="netgen-default" function="normal">
      <lanes>
         <lane id="1/2to1/1_0" depart="1" vclasses="" maxspeed="13.90" length="17.30">191.75,68.65 191.75,51.35</lane>
         <lane id="1/2to1/1_1" depart="0" vclasses="" maxspeed="13.90" length="17.30">195.05,68.65 195.05,51.35</lane>
         <lane id="1/2to1/1_2" depart="0" vclasses="" maxspeed="13.90" length="17.30">198.35,68.65 198.35,51.35</lane>
      </lanes>
   </edge>

   <edge id="1/2to1/3" from="1/2" to="1/3" priority="-1" type="netgen-default" function="normal">
      <lanes>
         <lane id="1/2to1/3_0" depart="1" vclasses="" maxspeed="13.90" length="17.30">208.25,91.35 208.25,108.65</lane>
         <lane id="1/2to1/3_1" depart="0" vclasses="" maxspeed="13.90" length="17.30">204.95,91.35 204.95,108.65</lane>
         <lane id="1/2to1/3_2" depart="0" vclasses="" maxspeed="13.90" length="17.30">201.65,91.35 201.65,108.65</lane>
      </lanes>
   </edge>

   <edge id="1/2to2/2" from="1/2" to="2/2" priority="-1" type="netgen-default" function="normal">
      <lanes>
         <lane id="1/2to2/2_0" depart="1" vclasses="" maxspeed="13.90" length="177.30">211.35,71.75 388.65,71.75</lane>
         <lane id="1/2to2/2_1" depart="0" vclasses="" maxspeed="13.90" length="177.30">211.35,75.05 388.65,75.05</lane>
         <lane id="1/2to2/2_2" depart="0" vclasses="" maxspeed="13.90" length="177.30">211.35,78.35 388.65,78.35</lane>
      </lanes>
   </edge>

   <edge id="1/3to0/3" from="1/3" to="0/3" priority="-1" type="netgen-default" function="normal">
      <lanes>
         <lane id="1/3to0/3_0" depart="1" vclasses="" maxspeed="13.90" length="177.30">188.65,128.25 11.35,128.25</lane>
         <lane id="1/3to0/3_1" depart="0" vclasses="" maxspeed="13.90" length="177.30">188.65,124.95 11.35,124.95</lane>
         <lane id="1/3to0/3_2" depart="0" vclasses="" maxspeed="13.90" length="177.30">188.65,121.65 11.35,121.65</lane>
      </lanes>
   </edge>

   <edge id="1/3to1/2" from="1/3" to="1/2" priority="-1" type="netgen-default" function="normal">
      <lanes>
         <lane id="1/3to1/2_0" depart="1" vclasses="" maxspeed="13.90" length="17.30">191.75,108.65 191.75,91.35</lane>
         <lane id="1/3to1/2_1" depart="0" vclasses="" maxspeed="13.90" length="17.30">195.05,108.65 195.05,91.35</lane>
         <lane id="1/3to1/2_2" depart="0" vclasses="" maxspeed="13.90" length="17.30">198.35,108.65 198.35,91.35</lane>
      </lanes>
   </edge>

   <edge id="1/3to1/4" from="1/3" to="1/4" priority="-1" type="netgen-default" function="normal">
      <lanes>
         <lane id="1/3to1/4_0" depart="1" vclasses="" maxspeed="13.90" length="17.30">208.25,131.35 208.25,148.65</lane>
         <lane id="1/3to1/4_1" depart="0" vclasses="" maxspeed="13.90" length="17.30">204.95,131.35 204.95,148.65</lane>
         <lane id="1/3to1/4_2" depart="0" vclasses="" maxspeed="13.90" length="17.30">201.65,131.35 201.65,148.65</lane>
      </lanes>
   </edge>

   <edge id="1/3to2/3" from="1/3" to="2/3" priority="-1" type="netgen-default" function="normal">
      <lanes>
         <lane id="1/3to2/3_0" depart="1" vclasses="" maxspeed="13.90" length="177.30">211.35,111.75 388.65,111.75</lane>
         <lane id="1/3to2/3_1" depart="0" vclasses="" maxspeed="13.90" length="177.30">211.35,115.05 388.65,115.05</lane>
         <lane id="1/3to2/3_2" depart="0" vclasses="" maxspeed="13.90" length="177.30">211.35,118.35 388.65,118.35</lane>
      </lanes>
   </edge>

   <edge id="1/4to0/4" from="1/4" to="0/4" priority="-1" type="netgen-default" function="normal">
      <lanes>
         <lane id="1/4to0/4_0" depart="1" vclasses="" maxspeed="13.90" length="178.80">188.65,168.25 9.85,168.25</lane>
         <lane id="1/4to0/4_1" depart="0" vclasses="" maxspeed="13.90" length="178.80">188.65,164.95 9.85,164.95</lane>
         <lane id="1/4to0/4_2" depart="0" vclasses="" maxspeed="13.90" length="178.80">188.65,161.65 9.85,161.65</lane>
      </lanes>
   </edge>

   <edge id="1/4to1/3" from="1/4" to="1/3" priority="-1" type="netgen-default" function="normal">
      <lanes>
         <lane id="1/4to1/3_0" depart="1" vclasses="" maxspeed="13.90" length="17.30">191.75,148.65 191.75,131.35</lane>
         <lane id="1/4to1/3_1" depart="0" vclasses="" maxspeed="13.90" length="17.30">195.05,148.65 195.05,131.35</lane>
         <lane id="1/4to1/3_2" depart="0" vclasses="" maxspeed="13.90" length="17.30">198.35,148.65 198.35,131.35</lane>
      </lanes>
   </edge>

   <edge id="1/4to2/4" from="1/4" to="2/4" priority="-1" type="netgen-default" function="normal">
      <lanes>
         <lane id="1/4to2/4_0" depart="1" vclasses="" maxspeed="13.90" length="177.30">211.35,151.75 388.65,151.75</lane>
         <lane id="1/4to2/4_1" depart="0" vclasses="" maxspeed="13.90" length="177.30">211.35,155.05 388.65,155.05</lane>
         <lane id="1/4to2/4_2" depart="0" vclasses="" maxspeed="13.90" length="177.30">211.35,158.35 388.65,158.35</lane>
      </lanes>
   </edge>

   <edge id="10/0to10/1" from="10/0" to="10/1" priority="-1" type="netgen-default" function="normal">
      <lanes>
         <lane id="10/0to10/1_0" depart="1" vclasses="" maxspeed="13.90" length="17.30">2008.25,11.35 2008.25,28.65</lane>
         <lane id="10/0to10/1_1" depart="0" vclasses="" maxspeed="13.90" length="17.30">2004.95,11.35 2004.95,28.65</lane>
         <lane id="10/0to10/1_2" depart="0" vclasses="" maxspeed="13.90" length="17.30">2001.65,11.35 2001.65,28.65</lane>
      </lanes>
   </edge>

   <edge id="10/0to11/0" from="10/0" to="11/0" priority="-1" type="netgen-default" function="normal">
      <lanes>
         <lane id="10/0to11/0_0" depart="1" vclasses="" maxspeed="13.90" length="177.30">2011.35,-8.25 2188.65,-8.25</lane>
         <lane id="10/0to11/0_1" depart="0" vclasses="" maxspeed="13.90" length="177.30">2011.35,-4.95 2188.65,-4.95</lane>
         <lane id="10/0to11/0_2" depart="0" vclasses="" maxspeed="13.90" length="177.30">2011.35,-1.65 2188.65,-1.65</lane>
      </lanes>
   </edge>

   <edge id="10/0to9/0" from="10/0" to="9/0" priority="-1" type="netgen-default" function="normal">
      <lanes>
         <lane id="10/0to9/0_0" depart="1" vclasses="" maxspeed="13.90" length="177.30">1988.65,8.25 1811.35,8.25</lane>
         <lane id="10/0to9/0_1" depart="0" vclasses="" maxspeed="13.90" length="177.30">1988.65,4.95 1811.35,4.95</lane>
         <lane id="10/0to9/0_2" depart="0" vclasses="" maxspeed="13.90" length="177.30">1988.65,1.65 1811.35,1.65</lane>
      </lanes>
   </edge>

   <edge id="10/1to10/0" from="10/1" to="10/0" priority="-1" type="netgen-default" function="normal">
      <lanes>
         <lane id="10/1to10/0_0" depart="1" vclasses="" maxspeed="13.90" length="17.30">1991.75,28.65 1991.75,11.35</lane>
         <lane id="10/1to10/0_1" depart="0" vclasses="" maxspeed="13.90" length="17.30">1995.05,28.65 1995.05,11.35</lane>
         <lane id="10/1to10/0_2" depart="0" vclasses="" maxspeed="13.90" length="17.30">1998.35,28.65 1998.35,11.35</lane>
      </lanes>
   </edge>

   <edge id="10/1to10/2" from="10/1" to="10/2" priority="-1" type="netgen-default" function="normal">
      <lanes>
         <lane id="10/1to10/2_0" depart="1" vclasses="" maxspeed="13.90" length="17.30">2008.25,51.35 2008.25,68.65</lane>
         <lane id="10/1to10/2_1" depart="0" vclasses="" maxspeed="13.90" length="17.30">2004.95,51.35 2004.95,68.65</lane>
         <lane id="10/1to10/2_2" depart="0" vclasses="" maxspeed="13.90" length="17.30">2001.65,51.35 2001.65,68.65</lane>
      </lanes>
   </edge>

   <edge id="10/1to11/1" from="10/1" to="11/1" priority="-1" type="netgen-default" function="normal">
      <lanes>
         <lane id="10/1to11/1_0" depart="1" vclasses="" maxspeed="13.90" length="177.30">2011.35,31.75 2188.65,31.75</lane>
         <lane id="10/1to11/1_1" depart="0" vclasses="" maxspeed="13.90" length="177.30">2011.35,35.05 2188.65,35.05</lane>
         <lane id="10/1to11/1_2" depart="0" vclasses="" maxspeed="13.90" length="177.30">2011.35,38.35 2188.65,38.35</lane>
      </lanes>
   </edge>

   <edge id="10/1to9/1" from="10/1" to="9/1" priority="-1" type="netgen-default" function="normal">
      <lanes>
         <lane id="10/1to9/1_0" depart="1" vclasses="" maxspeed="13.90" length="177.30">1988.65,48.25 1811.35,48.25</lane>
         <lane id="10/1to9/1_1" depart="0" vclasses="" maxspeed="13.90" length="177.30">1988.65,44.95 1811.35,44.95</lane>
         <lane id="10/1to9/1_2" depart="0" vclasses="" maxspeed="13.90" length="177.30">1988.65,41.65 1811.35,41.65</lane>
      </lanes>
   </edge>

   <edge id="10/2to10/1" from="10/2" to="10/1" priority="-1" type="netgen-default" function="normal">
      <lanes>
         <lane id="10/2to10/1_0" depart="1" vclasses="" maxspeed="13.90" length="17.30">1991.75,68.65 1991.75,51.35</lane>
         <lane id="10/2to10/1_1" depart="0" vclasses="" maxspeed="13.90" length="17.30">1995.05,68.65 1995.05,51.35</lane>
         <lane id="10/2to10/1_2" depart="0" vclasses="" maxspeed="13.90" length="17.30">1998.35,68.65 1998.35,51.35</lane>
      </lanes>
   </edge>

   <edge id="10/2to10/3" from="10/2" to="10/3" priority="-1" type="netgen-default" function="normal">
      <lanes>
         <lane id="10/2to10/3_0" depart="1" vclasses="" maxspeed="13.90" length="17.30">2008.25,91.35 2008.25,108.65</lane>
         <lane id="10/2to10/3_1" depart="0" vclasses="" maxspeed="13.90" length="17.30">2004.95,91.35 2004.95,108.65</lane>
         <lane id="10/2to10/3_2" depart="0" vclasses="" maxspeed="13.90" length="17.30">2001.65,91.35 2001.65,108.65</lane>
      </lanes>
   </edge>

   <edge id="10/2to11/2" from="10/2" to="11/2" priority="-1" type="netgen-default" function="normal">
      <lanes>
         <lane id="10/2to11/2_0" depart="1" vclasses="" maxspeed="13.90" length="177.30">2011.35,71.75 2188.65,71.75</lane>
         <lane id="10/2to11/2_1" depart="0" vclasses="" maxspeed="13.90" length="177.30">2011.35,75.05 2188.65,75.05</lane>
         <lane id="10/2to11/2_2" depart="0" vclasses="" maxspeed="13.90" length="177.30">2011.35,78.35 2188.65,78.35</lane>
      </lanes>
   </edge>

   <edge id="10/2to9/2" from="10/2" to="9/2" priority="-1" type="netgen-default" function="normal">
      <lanes>
         <lane id="10/2to9/2_0" depart="1" vclasses="" maxspeed="13.90" length="177.30">1988.65,88.25 1811.35,88.25</lane>
         <lane id="10/2to9/2_1" depart="0" vclasses="" maxspeed="13.90" length="177.30">1988.65,84.95 1811.35,84.95</lane>
         <lane id="10/2to9/2_2" depart="0" vclasses="" maxspeed="13.90" length="177.30">1988.65,81.65 1811.35,81.65</lane>
      </lanes>
   </edge>

   <edge id="10/3to10/2" from="10/3" to="10/2" priority="-1" type="netgen-default" function="normal">
      <lanes>
         <lane id="10/3to10/2_0" depart="1" vclasses="" maxspeed="13.90" length="17.30">1991.75,108.65 1991.75,91.35</lane>
         <lane id="10/3to10/2_1" depart="0" vclasses="" maxspeed="13.90" length="17.30">1995.05,108.65 1995.05,91.35</lane>
         <lane id="10/3to10/2_2" depart="0" vclasses="" maxspeed="13.90" length="17.30">1998.35,108.65 1998.35,91.35</lane>
      </lanes>
   </edge>

   <edge id="10/3to10/4" from="10/3" to="10/4" priority="-1" type="netgen-default" function="normal">
      <lanes>
         <lane id="10/3to10/4_0" depart="1" vclasses="" maxspeed="13.90" length="17.30">2008.25,131.35 2008.25,148.65</lane>
         <lane id="10/3to10/4_1" depart="0" vclasses="" maxspeed="13.90" length="17.30">2004.95,131.35 2004.95,148.65</lane>
         <lane id="10/3to10/4_2" depart="0" vclasses="" maxspeed="13.90" length="17.30">2001.65,131.35 2001.65,148.65</lane>
      </lanes>
   </edge>

   <edge id="10/3to11/3" from="10/3" to="11/3" priority="-1" type="netgen-default" function="normal">
      <lanes>
         <lane id="10/3to11/3_0" depart="1" vclasses="" maxspeed="13.90" length="177.30">2011.35,111.75 2188.65,111.75</lane>
         <lane id="10/3to11/3_1" depart="0" vclasses="" maxspeed="13.90" length="177.30">2011.35,115.05 2188.65,115.05</lane>
         <lane id="10/3to11/3_2" depart="0" vclasses="" maxspeed="13.90" length="177.30">2011.35,118.35 2188.65,118.35</lane>
      </lanes>
   </edge>

   <edge id="10/3to9/3" from="10/3" to="9/3" priority="-1" type="netgen-default" function="normal">
      <lanes>
         <lane id="10/3to9/3_0" depart="1" vclasses="" maxspeed="13.90" length="177.30">1988.65,128.25 1811.35,128.25</lane>
         <lane id="10/3to9/3_1" depart="0" vclasses="" maxspeed="13.90" length="177.30">1988.65,124.95 1811.35,124.95</lane>
         <lane id="10/3to9/3_2" depart="0" vclasses="" maxspeed="13.90" length="177.30">1988.65,121.65 1811.35,121.65</lane>
      </lanes>
   </edge>

   <edge id="10/4to10/3" from="10/4" to="10/3" priority="-1" type="netgen-default" function="normal">
      <lanes>
         <lane id="10/4to10/3_0" depart="1" vclasses="" maxspeed="13.90" length="17.30">1991.75,148.65 1991.75,131.35</lane>
         <lane id="10/4to10/3_1" depart="0" vclasses="" maxspeed="13.90" length="17.30">1995.05,148.65 1995.05,131.35</lane>
         <lane id="10/4to10/3_2" depart="0" vclasses="" maxspeed="13.90" length="17.30">1998.35,148.65 1998.35,131.35</lane>
      </lanes>
   </edge>

   <edge id="10/4to11/4" from="10/4" to="11/4" priority="-1" type="netgen-default" function="normal">
      <lanes>
         <lane id="10/4to11/4_0" depart="1" vclasses="" maxspeed="13.90" length="177.30">2011.35,151.75 2188.65,151.75</lane>
         <lane id="10/4to11/4_1" depart="0" vclasses="" maxspeed="13.90" length="177.30">2011.35,155.05 2188.65,155.05</lane>
         <lane id="10/4to11/4_2" depart="0" vclasses="" maxspeed="13.90" length="177.30">2011.35,158.35 2188.65,158.35</lane>
      </lanes>
   </edge>

   <edge id="10/4to9/4" from="10/4" to="9/4" priority="-1" type="netgen-default" function="normal">
      <lanes>
         <lane id="10/4to9/4_0" depart="1" vclasses="" maxspeed="13.90" length="177.30">1988.65,168.25 1811.35,168.25</lane>
         <lane id="10/4to9/4_1" depart="0" vclasses="" maxspeed="13.90" length="177.30">1988.65,164.95 1811.35,164.95</lane>
         <lane id="10/4to9/4_2" depart="0" vclasses="" maxspeed="13.90" length="177.30">1988.65,161.65 1811.35,161.65</lane>
      </lanes>
   </edge>

   <edge id="11/0to10/0" from="11/0" to="10/0" priority="-1" type="netgen-default" function="normal">
      <lanes>
         <lane id="11/0to10/0_0" depart="1" vclasses="" maxspeed="13.90" length="177.30">2188.65,8.25 2011.35,8.25</lane>
         <lane id="11/0to10/0_1" depart="0" vclasses="" maxspeed="13.90" length="177.30">2188.65,4.95 2011.35,4.95</lane>
         <lane id="11/0to10/0_2" depart="0" vclasses="" maxspeed="13.90" length="177.30">2188.65,1.65 2011.35,1.65</lane>
      </lanes>
   </edge>

   <edge id="11/0to11/1" from="11/0" to="11/1" priority="-1" type="netgen-default" function="normal">
      <lanes>
         <lane id="11/0to11/1_0" depart="1" vclasses="" maxspeed="13.90" length="17.30">2208.25,11.35 2208.25,28.65</lane>
         <lane id="11/0to11/1_1" depart="0" vclasses="" maxspeed="13.90" length="17.30">2204.95,11.35 2204.95,28.65</lane>
         <lane id="11/0to11/1_2" depart="0" vclasses="" maxspeed="13.90" length="17.30">2201.65,11.35 2201.65,28.65</lane>
      </lanes>
   </edge>

   <edge id="11/0to12/0" from="11/0" to="12/0" priority="-1" type="netgen-default" function="normal">
      <lanes>
         <lane id="11/0to12/0_0" depart="1" vclasses="" maxspeed="13.90" length="177.30">2211.35,-8.25 2388.65,-8.25</lane>
         <lane id="11/0to12/0_1" depart="0" vclasses="" maxspeed="13.90" length="177.30">2211.35,-4.95 2388.65,-4.95</lane>
         <lane id="11/0to12/0_2" depart="0" vclasses="" maxspeed="13.90" length="177.30">2211.35,-1.65 2388.65,-1.65</lane>
      </lanes>
   </edge>

   <edge id="11/1to10/1" from="11/1" to="10/1" priority="-1" type="netgen-default" function="normal">
      <lanes>
         <lane id="11/1to10/1_0" depart="1" vclasses="" maxspeed="13.90" length="177.30">2188.65,48.25 2011.35,48.25</lane>
         <lane id="11/1to10/1_1" depart="0" vclasses="" maxspeed="13.90" length="177.30">2188.65,44.95 2011.35,44.95</lane>
         <lane id="11/1to10/1_2" depart="0" vclasses="" maxspeed="13.90" length="177.30">2188.65,41.65 2011.35,41.65</lane>
      </lanes>
   </edge>

   <edge id="11/1to11/0" from="11/1" to="11/0" priority="-1" type="netgen-default" function="normal">
      <lanes>
         <lane id="11/1to11/0_0" depart="1" vclasses="" maxspeed="13.90" length="17.30">2191.75,28.65 2191.75,11.35</lane>
         <lane id="11/1to11/0_1" depart="0" vclasses="" maxspeed="13.90" length="17.30">2195.05,28.65 2195.05,11.35</lane>
         <lane id="11/1to11/0_2" depart="0" vclasses="" maxspeed="13.90" length="17.30">2198.35,28.65 2198.35,11.35</lane>
      </lanes>
   </edge>

   <edge id="11/1to11/2" from="11/1" to="11/2" priority="-1" type="netgen-default" function="normal">
      <lanes>
         <lane id="11/1to11/2_0" depart="1" vclasses="" maxspeed="13.90" length="17.30">2208.25,51.35 2208.25,68.65</lane>
         <lane id="11/1to11/2_1" depart="0" vclasses="" maxspeed="13.90" length="17.30">2204.95,51.35 2204.95,68.65</lane>
         <lane id="11/1to11/2_2" depart="0" vclasses="" maxspeed="13.90" length="17.30">2201.65,51.35 2201.65,68.65</lane>
      </lanes>
   </edge>

   <edge id="11/1to12/1" from="11/1" to="12/1" priority="-1" type="netgen-default" function="normal">
      <lanes>
         <lane id="11/1to12/1_0" depart="1" vclasses="" maxspeed="13.90" length="177.30">2211.35,31.75 2388.65,31.75</lane>
         <lane id="11/1to12/1_1" depart="0" vclasses="" maxspeed="13.90" length="177.30">2211.35,35.05 2388.65,35.05</lane>
         <lane id="11/1to12/1_2" depart="0" vclasses="" maxspeed="13.90" length="177.30">2211.35,38.35 2388.65,38.35</lane>
      </lanes>
   </edge>

   <edge id="11/2to10/2" from="11/2" to="10/2" priority="-1" type="netgen-default" function="normal">
      <lanes>
         <lane id="11/2to10/2_0" depart="1" vclasses="" maxspeed="13.90" length="177.30">2188.65,88.25 2011.35,88.25</lane>
         <lane id="11/2to10/2_1" depart="0" vclasses="" maxspeed="13.90" length="177.30">2188.65,84.95 2011.35,84.95</lane>
         <lane id="11/2to10/2_2" depart="0" vclasses="" maxspeed="13.90" length="177.30">2188.65,81.65 2011.35,81.65</lane>
      </lanes>
   </edge>

   <edge id="11/2to11/1" from="11/2" to="11/1" priority="-1" type="netgen-default" function="normal">
      <lanes>
         <lane id="11/2to11/1_0" depart="1" vclasses="" maxspeed="13.90" length="17.30">2191.75,68.65 2191.75,51.35</lane>
         <lane id="11/2to11/1_1" depart="0" vclasses="" maxspeed="13.90" length="17.30">2195.05,68.65 2195.05,51.35</lane>