<?xml version="1.0" encoding="UTF-8"?>

<!-- generated on Thu Jun  9 10:58:07 2016 by SUMO netconvert Version dev-SVN-r20932
<?xml version="1.0" encoding="UTF-8"?>

<configuration xmlns:xsi="http://www.w3.org/2001/XMLSchema-instance" xsi:noNamespaceSchemaLocation="http://sumo.dlr.de/xsd/netconvertConfiguration.xsd">

    <input>
        <node-files value="input_nodes.nod.xml"/>
        <edge-files value="input_edges.edg.xml"/>
    </input>

    <output>
        <junctions.join-output value="joined.nod.xml"/>
    </output>

    <processing>
        <junctions.join value="true"/>
        <junctions.join-dist value="4"/>
    </processing>

    <report>
        <xml-validation value="never"/>
    </report>

</configuration>
-->

<net version="0.27" xmlns:xsi="http://www.w3.org/2001/XMLSchema-instance" xsi:noNamespaceSchemaLocation="http://sumo.dlr.de/xsd/net_file.xsd">

    <location netOffset="0.00,0.00" convBoundary="0.00,0.00,92.46,78.21" origBoundary="0.00,0.00,92.46,78.21" projParameter="!"/>

    <edge id=":cluster_301292612_38919945_56231397_59993001_0" function="internal">
        <lane id=":cluster_301292612_38919945_56231397_59993001_0_0" index="0" speed="18.05" length="21.03" shape="47.83,60.83 41.62,58.06 36.40,56.05 31.94,54.75 28.02,54.06"/>
    </edge>
    <edge id=":cluster_301292612_38919945_56231397_59993001_1" function="internal">
        <lane id=":cluster_301292612_38919945_56231397_59993001_1_0" index="0" speed="13.89" length="23.33" shape="49.21,57.83 42.60,54.04 38.23,49.91 36.12,45.47 36.25,40.70"/>
    </edge>
    <edge id=":cluster_301292612_38919945_56231397_59993001_2" function="internal">
        <lane id=":cluster_301292612_38919945_56231397_59993001_2_0" index="0" speed="13.89" length="5.05" shape="49.21,57.83 47.58,55.18 47.51,53.25"/>
    </edge>
    <edge id=":cluster_301292612_38919945_56231397_59993001_9" function="internal">
        <lane id=":cluster_301292612_38919945_56231397_59993001_9_0" index="0" speed="13.89" length="5.05" shape="47.51,53.25 49.02,52.04 52.10,51.55"/>
    </edge>
    <edge id=":cluster_301292612_38919945_56231397_59993001_3" function="internal">
        <lane id=":cluster_301292612_38919945_56231397_59993001_3_0" index="0" speed="13.89" length="4.78" shape="51.67,44.64 51.47,45.89 51.70,46.96 52.37,47.85 53.47,48.55"/>
    </edge>
    <edge id=":cluster_301292612_38919945_56231397_59993001_4" function="internal">
        <lane id=":cluster_301292612_38919945_56231397_59993001_4_0" index="0" speed="18.05" length="10.12" shape="48.47,43.82 45.78,48.97 42.41,51.66"/>
    </edge>
    <edge id=":cluster_301292612_38919945_56231397_59993001_5" function="internal">
        <lane id=":cluster_301292612_38919945_56231397_59993001_5_0" index="0" speed="13.89" length="12.74" shape="48.47,43.82 44.25,47.62 40.80,48.37 38.13,46.06"/>
    </edge>
    <edge id=":cluster_301292612_38919945_56231397_59993001_10" function="internal">
        <lane id=":cluster_301292612_38919945_56231397_59993001_10_0" index="0" speed="18.05" length="14.89" shape="42.41,51.66 41.48,52.40 35.56,54.09 28.02,54.06"/>
    </edge>
    <edge id=":cluster_301292612_38919945_56231397_59993001_11" function="internal">
        <lane id=":cluster_301292612_38919945_56231397_59993001_11_0" index="0" speed="13.89" length="5.68" shape="38.13,46.06 36.25,40.70"/>
    </edge>
    <edge id=":cluster_301292612_38919945_56231397_59993001_6" function="internal">
        <lane id=":cluster_301292612_38919945_56231397_59993001_6_0" index="0" speed="18.05" length="6.02" shape="29.13,43.70 30.45,43.58 31.54,42.90 32.41,41.67 33.05,39.88"/>
    </edge>
    <edge id=":cluster_301292612_38919945_56231397_59993001_7" function="internal">
        <lane id=":cluster_301292612_38919945_56231397_59993001_7_0" index="0" speed="18.05" length="24.34" shape="29.13,43.70 33.54,44.57 39.07,46.26 45.37,48.64 52.10,51.55"/>
    </edge>
    <edge id=":cluster_301292612_38919945_56231397_59993001_8" function="internal">
        <lane id=":cluster_301292612_38919945_56231397_59993001_8_0" index="0" speed="22.22" length="12.58" shape="29.13,43.70 32.73,46.71 33.75,49.44 32.18,51.89 30.35,52.84"/>
    </edge>
    <edge id=":cluster_301292612_38919945_56231397_59993001_12" function="internal">
        <lane id=":cluster_301292612_38919945_56231397_59993001_12_0" index="0" speed="22.22" length="2.63" shape="30.35,52.84 28.02,54.06"/>
    </edge>

    <edge id="27437972" from="38918157" to="cluster_301292612_38919945_56231397_59993001" priority="7" spreadType="center" shape="88.72,78.21 43.13,56.80">
        <lane id="27437972_0" index="0" speed="13.89" length="44.41" shape="88.02,79.70 47.83,60.83"/>
        <lane id="27437972_1" index="1" speed="13.89" length="44.41" shape="89.42,76.72 49.21,57.83"/>
    </edge>
    <edge id="27441289.0" from="cluster_301292612_38919945_56231397_59993001" to="gneJ0" priority="7" shape="36.97,44.55 48.35,0.00">
        <lane id="27441289.0_0" index="0" speed="13.89" length="42.42" shape="33.05,39.88 43.55,-1.23"/>
        <lane id="27441289.0_1" index="1" speed="13.89" length="42.42" shape="36.25,40.70 46.75,-0.41"/>
    </edge>
    <edge id="27441289.95" from="gneJ1" to="cluster_301292612_38919945_56231397_59993001" priority="7" shape="59.75,2.19 45.80,46.84">
        <lane id="27441289.95_0" index="0" speed="13.89" length="43.01" shape="64.47,3.67 51.67,44.64"/>
        <lane id="27441289.95_1" index="1" speed="13.89" length="43.01" shape="61.32,2.68 48.47,43.82"/>
    </edge>
    <edge id="27445000#0" from="cluster_301292612_38919945_56231397_59993001" to="945141569" priority="6" spreadType="center" shape="35.18,54.83 0.00,51.05">
        <lane id="27445000#0_0" index="0" speed="22.22" length="28.18" shape="28.02,54.06 -0.00,51.05"/>
    </edge>
    <edge id="27445015#0" from="cluster_301292612_38919945_56231397_59993001" to="567607201" priority="7" spreadType="center" shape="45.80,46.84 92.46,68.26">
        <lane id="27445015#0_0" index="0" speed="13.89" length="43.65" shape="53.47,48.55 93.15,66.76"/>
        <lane id="27445015#0_1" index="1" speed="13.89" length="43.65" shape="52.10,51.55 91.77,69.76"/>
    </edge>
    <edge id="46039050" from="492462300" to="cluster_301292612_38919945_56231397_59993001" priority="6" spreadType="center" shape="1.87,40.76 36.97,44.55">
        <lane id="46039050_0" index="0" speed="22.22" length="27.42" shape="1.87,40.76 29.13,43.70"/>
    </edge>

    <tlLogic id="cluster_301292612_38919945_56231397_59993001" type="static" programID="0" offset="0">
        <phase duration="32" state="GGgGggrrr"/>
        <phase duration="7" state="yygyggrrr"/>
        <phase duration="6" state="rrGrGGrrr"/>
        <phase duration="7" state="rryryyrrr"/>
        <phase duration="31" state="GrrrrrGGg"/>
        <phase duration="7" state="yrrrrryyy"/>
    </tlLogic>

    <junction id="38918157" type="unregulated" x="88.72" y="78.21" incLanes="" intLanes="" shape="90.10,75.27 87.34,81.15"/>
    <junction id="492462300" type="unregulated" x="1.87" y="40.76" incLanes="" intLanes="" shape="1.70,42.35 2.04,39.17"/>
    <junction id="567607201" type="unregulated" x="92.46" y="68.26" incLanes="27445015#0_0 27445015#0_1" intLanes="" shape="93.82,65.31 91.10,71.21"/>
    <junction id="945141569" type="unregulated" x="0.00" y="51.05" incLanes="27445000#0_0" intLanes="" shape="-0.17,52.64 0.17,49.46"/>
    <junction id="cluster_301292612_38919945_56231397_59993001" type="traffic_light" x="40.27" y="50.76" incLanes="27437972_0 27437972_1 27441289.95_0 27441289.95_1 46039050_0" intLanes=":cluster_301292612_38919945_56231397_59993001_0_0 :cluster_301292612_38919945_56231397_59993001_1_0 :cluster_301292612_38919945_56231397_59993001_9_0 :cluster_301292612_38919945_56231397_59993001_3_0 :cluster_301292612_38919945_56231397_59993001_10_0 :cluster_301292612_38919945_56231397_59993001_11_0 :cluster_301292612_38919945_56231397_59993001_6_0 :cluster_301292612_38919945_56231397_59993001_7_0 :cluster_301292612_38919945_56231397_59993001_12_0" shape="47.17,62.29 54.14,47.09 53.23,45.04 31.50,39.48 29.30,42.11 27.85,55.65">
        <request index="0" response="000000000" foes="100010000" cont="0"/>
        <request index="1" response="000000000" foes="011110000" cont="0"/>
        <request index="2" response="010001000" foes="010001000" cont="1"/>
        <request index="3" response="000000000" foes="010000100" cont="0"/>
        <request index="4" response="000000011" foes="110000011" cont="1"/>
        <request index="5" response="001000010" foes="001000010" cont="1"/>
        <request index="6" response="000000010" foes="000100010" cont="0"/>
        <request index="7" response="000011010" foes="000011110" cont="0"/>
        <request index="8" response="000010001" foes="000010001" cont="1"/>
    </junction>
    <junction id="gneJ0" type="unregulated" x="48.35" y="0.00" incLanes="27441289.0_0 27441289.0_1" intLanes="" shape="42.00,-1.62 48.30,-0.01"/>
    <junction id="gneJ1" type="unregulated" x="59.75" y="2.19" incLanes="" intLanes="" shape="59.80,2.20 66.00,4.14"/>

    <junction id=":cluster_301292612_38919945_56231397_59993001_9_0" type="internal" x="47.51" y="53.25" incLanes=":cluster_301292612_38919945_56231397_59993001_2_0 27441289.95_0 46039050_0" intLanes=":cluster_301292612_38919945_56231397_59993001_3_0 :cluster_301292612_38919945_56231397_59993001_7_0"/>
    <junction id=":cluster_301292612_38919945_56231397_59993001_10_0" type="internal" x="42.41" y="51.66" incLanes=":cluster_301292612_38919945_56231397_59993001_4_0 27437972_0 27437972_1" intLanes=":cluster_301292612_38919945_56231397_59993001_0_0 :cluster_301292612_38919945_56231397_59993001_1_0 :cluster_301292612_38919945_56231397_59993001_7_0 :cluster_301292612_38919945_56231397_59993001_8_0"/>
    <junction id=":cluster_301292612_38919945_56231397_59993001_11_0" type="internal" x="38.13" y="46.06" incLanes=":cluster_301292612_38919945_56231397_59993001_5_0 27437972_1 46039050_0" intLanes=":cluster_301292612_38919945_56231397_59993001_1_0 :cluster_301292612_38919945_56231397_59993001_6_0"/>
    <junction id=":cluster_301292612_38919945_56231397_59993001_12_0" type="internal" x="30.35" y="52.84" incLanes=":cluster_301292612_38919945_56231397_59993001_8_0 27437972_0 27441289.95_1" intLanes=":cluster_301292612_38919945_56231397_59993001_0_0 :cluster_301292612_38919945_56231397_59993001_4_0"/>

    <connection from="27437972" to="27445000#0" fromLane="0" toLane="0" via=":cluster_301292612_38919945_56231397_59993001_0_0" tl="cluster_301292612_38919945_56231397_59993001" linkIndex="0" dir="s" state="o"/>
    <connection from="27437972" to="27441289.0" fromLane="1" toLane="1" via=":cluster_301292612_38919945_56231397_59993001_1_0" tl="cluster_301292612_38919945_56231397_59993001" linkIndex="1" dir="l" state="o"/>
    <connection from="27437972" to="27445015#0" fromLane="1" toLane="1" via=":cluster_301292612_38919945_56231397_59993001_2_0" tl="cluster_301292612_38919945_56231397_59993001" linkIndex="2" dir="t" state="o"/>
    <connection from="27441289.95" to="27445015#0" fromLane="0" toLane="0" via=":cluster_301292612_38919945_56231397_59993001_3_0" tl="cluster_301292612_38919945_56231397_59993001" linkIndex="3" dir="r" state="o"/>
    <connection from="27441289.95" to="27445000#0" fromLane="1" toLane="0" via=":cluster_301292612_38919945_56231397_59993001_4_0" tl="cluster_301292612_38919945_56231397_59993001" linkIndex="4" dir="l" state="o"/>
    <connection from="27441289.95" to="27441289.0" fromLane="1" toLane="1" via=":cluster_301292612_38919945_56231397_59993001_5_0" tl="cluster_301292612_38919945_56231397_59993001" linkIndex="5" dir="t" state="o"/>
    <connection from="46039050" to="27441289.0" fromLane="0" toLane="0" via=":cluster_301292612_38919945_56231397_59993001_6_0" tl="cluster_301292612_38919945_56231397_59993001" linkIndex="6" dir="r" state="o"/>
    <connection from="46039050" to="27445015#0" fromLane="0" toLane="1" via=":cluster_301292612_38919945_56231397_59993001_7_0" tl="cluster_301292612_38919945_56231397_59993001" linkIndex="7" dir="s" state="o"/>
    <connection from="46039050" to="27445000#0" fromLane="0" toLane="0" via=":cluster_301292612_38919945_56231397_59993001_8_0" tl="cluster_301292612_38919945_56231397_59993001" linkIndex="8" dir="t" state="o"/>

    <connection from=":cluster_301292612_38919945_56231397_59993001_0" to="27445000#0" fromLane="0" toLane="0" dir="s" state="M"/>
    <connection from=":cluster_301292612_38919945_56231397_59993001_1" to="27441289.0" fromLane="0" toLane="1" dir="s" state="M"/>
    <connection from=":cluster_301292612_38919945_56231397_59993001_2" to="27445015#0" fromLane="0" toLane="1" via=":cluster_301292612_38919945_56231397_59993001_9_0" dir="s" state="m"/>
    <connection from=":cluster_301292612_38919945_56231397_59993001_9" to="27445015#0" fromLane="0" toLane="1" dir="s" state="M"/>
    <connection from=":cluster_301292612_38919945_56231397_59993001_3" to="27445015#0" fromLane="0" toLane="0" dir="s" state="M"/>
    <connection from=":cluster_301292612_38919945_56231397_59993001_4" to="27445000#0" fromLane="0" toLane="0" via=":cluster_301292612_38919945_56231397_59993001_10_0" dir="s" state="m"/>
    <connection from=":cluster_301292612_38919945_56231397_59993001_10" to="27445000#0" fromLane="0" toLane="0" dir="s" state="M"/>
    <connection from=":cluster_301292612_38919945_56231397_59993001_5" to="27441289.0" fromLane="0" toLane="1" via=":cluster_301292612_38919945_56231397_59993001_11_0" dir="s" state="m"/>
    <connection from=":cluster_301292612_38919945_56231397_59993001_11" to="27441289.0" fromLane="0" toLane="1" dir="s" state="M"/>
    <connection from=":cluster_301292612_38919945_56231397_59993001_6" to="27441289.0" fromLane="0" toLane="0" dir="s" state="M"/>
    <connection from=":cluster_301292612_38919945_56231397_59993001_7" to="27445015#0" fromLane="0" toLane="1" dir="s" state="M"/>
    <connection from=":cluster_301292612_38919945_56231397_59993001_8" to="27445000#0" fromLane="0" toLane="0" via=":cluster_301292612_38919945_56231397_59993001_12_0" dir="s" state="m"/>
    <connection from=":cluster_301292612_38919945_56231397_59993001_12" to="27445000#0" fromLane="0" toLane="0" dir="s" state="M"/>

</net>
