<?xml version="1.0" encoding="UTF-8"?>

<!-- generated on Mon Nov  6 14:12:27 2017 by SUMO Version v0_31_0-899-g50b783e
<?xml version="1.0" encoding="UTF-8"?>

<configuration xmlns:xsi="http://www.w3.org/2001/XMLSchema-instance" xsi:noNamespaceSchemaLocation="http://sumo.dlr.de/xsd/sumoConfiguration.xsd">

    <input>
        <net-file value="net.net.xml"/>
        <route-files value="input_routes.rou.xml"/>
    </input>

    <output>
        <fcd-output value="fcd.xml"/>
        <tripinfo-output value="tripinfos.xml"/>
        <lanechange-output value="lanechanges.xml"/>
    </output>

    <processing>
        <lateral-resolution value="0.2"/>
    </processing>

    <report>
        <xml-validation value="never"/>
        <no-step-log value="true"/>
    </report>

</configuration>
-->

<lanechanges>
    <change id="merge" type="t0" time="2.00" from="beg_0" to="beg_1" dir="1" speed="13.89" pos="27.78" reason="strategic|urgent" leaderGap="None" leaderSecureGap="None" followerGap="None" followerSecureGap="None" origLeaderGap="None" origLeaderSecureGap="None" latGap="0.90"/>
    <change id="blocker1" type="t1" time="15.00" from="end_0" to="end_1" dir="1" speed="13.89" pos="8.35" reason="stay|sublane" leaderGap="None" leaderSecureGap="None" followerGap="None" followerSecureGap="None" origLeaderGap="None" origLeaderSecureGap="None" latGap="0.50"/>
</lanechanges>
