<?xml version="1.0" encoding="UTF-8"?>

<!-- generated on 2022-05-12 14:56:48 by Eclipse SUMO netedit Version v1_13_0+0209-c80bd0b05ce
<configuration xmlns:xsi="http://www.w3.org/2001/XMLSchema-instance" xsi:noNamespaceSchemaLocation="http://sumo.dlr.de/xsd/netconvertConfiguration.xsd">

    <input>
        <sumo-net-file value="C:\Users\SUMO-Test\.texttest\tmp\netedit.gui.12May145105.4444\netedit.gui\bugs\ticket5552\input_net.net.xml"/>
    </input>

    <output>
        <output-file value="C:\Users\SUMO-Test\.texttest\tmp\netedit.gui.12May145105.4444\netedit.gui\bugs\ticket5552\net.net.xml"/>
    </output>

    <processing>
        <geometry.min-radius.fix.railways value="false"/>
        <geometry.max-grade.fix value="false"/>
        <offset.disable-normalization value="true"/>
        <lefthand value="false"/>
    </processing>

    <junctions>
        <no-internal-links value="false"/>
        <no-turnarounds value="true"/>
        <junctions.corner-detail value="0"/>
        <junctions.limit-turn-speed value="-1"/>
        <rectangular-lane-cut value="false"/>
    </junctions>

    <pedestrian>
        <walkingareas value="true"/>
    </pedestrian>

    <netedit>
        <additional-files value="C:\Users\SUMO-Test\.texttest\tmp\netedit.gui.12May145105.4444\netedit.gui\bugs\ticket5552\additionals.xml"/>
        <additionals-output value="C:\Users\SUMO-Test\.texttest\tmp\netedit.gui.12May145105.4444\netedit.gui\bugs\ticket5552\additionals.xml"/>
        <route-files value="C:\Users\SUMO-Test\.texttest\tmp\netedit.gui.12May145105.4444\netedit.gui\bugs\ticket5552\routes.xml"/>
        <demandelements-output value="C:\Users\SUMO-Test\.texttest\tmp\netedit.gui.12May145105.4444\netedit.gui\bugs\ticket5552\routes.xml"/>
        <data-files value="C:\Users\SUMO-Test\.texttest\tmp\netedit.gui.12May145105.4444\netedit.gui\bugs\ticket5552\datas.xml"/>
        <dataelements-output value="C:\Users\SUMO-Test\.texttest\tmp\netedit.gui.12May145105.4444\netedit.gui\bugs\ticket5552\datas.xml"/>
    </netedit>

    <visualisation>
        <window-size value="936,697"/>
        <window-pos value="50,50"/>
        <gui-testing value="true"/>
        <gui-testing.setting-output value="C:\Users\SUMO-Test\.texttest\tmp\netedit.gui.12May145105.4444\netedit.gui\bugs\ticket5552\guisettingsoutput.xml"/>
    </visualisation>

    <report>
        <no-warnings value="true"/>
        <aggregate-warnings value="5"/>
        <error-log value="C:\Users\SUMO-Test\.texttest\tmp\netedit.gui.12May145105.4444\netedit.gui\bugs\ticket5552\log.txt"/>
    </report>

</configuration>
-->

<net version="1.9" walkingareas="true" xmlns:xsi="http://www.w3.org/2001/XMLSchema-instance" xsi:noNamespaceSchemaLocation="http://sumo.dlr.de/xsd/net_file.xsd">

    <location netOffset="50.00,50.00" convBoundary="-50.00,-40.00,10.00,20.00" origBoundary="-50.000000,-50.000000,50.000000,50.000000" projParameter="+proj=utm +zone=33 +ellps=WGS84 +datum=WGS84 +units=m +no_defs"/>

    <edge id=":J0_0" function="internal">
        <lane id=":J0_0_0" index="0" disallow="pedestrian" speed="13.89" length="3.08" width="2.00" shape="-21.60,1.50 -21.51,0.60 -21.30,-0.00 -21.09,-0.60 -21.00,-1.50"/>
    </edge>
    <edge id=":J0_1" function="internal">
        <lane id=":J0_1_0" index="0" disallow="pedestrian" speed="13.89" length="3.08" shape="-19.00,-1.50 -18.91,-0.60 -18.70,0.00 -18.49,0.60 -18.40,1.50"/>
    </edge>
    <edge id=":J1_0" function="internal">
        <lane id=":J1_0_0" index="0" allow="bicycle" speed="13.89" length="0.10" width="2.00" shape="-9.29,-0.71 -9.29,-0.71"/>
    </edge>
    <edge id=":J2_0" function="internal">
        <lane id=":J2_0_0" index="0" disallow="pedestrian" speed="13.89" length="3.08" width="2.00" shape="-8.50,-8.40 -9.40,-8.49 -10.00,-8.70 -10.60,-8.91 -11.50,-9.00"/>
    </edge>
    <edge id=":J2_1" function="internal">
        <lane id=":J2_1_0" index="0" disallow="pedestrian" speed="13.89" length="3.08" shape="-11.50,-11.00 -10.60,-11.09 -10.00,-11.30 -9.40,-11.51 -8.50,-11.60"/>
    </edge>
    <edge id=":J3_0" function="internal">
        <lane id=":J3_0_0" index="0" disallow="pedestrian" speed="13.89" length="3.08" shape="-21.00,-18.50 -21.09,-19.40 -21.30,-20.00 -21.51,-20.60 -21.60,-21.50"/>
    </edge>
    <edge id=":J3_1" function="internal">
        <lane id=":J3_1_0" index="0" disallow="pedestrian" speed="13.89" length="3.08" width="2.00" shape="-18.40,-21.50 -18.49,-20.60 -18.70,-20.00 -18.91,-19.40 -19.00,-18.50"/>
    </edge>
    <edge id=":J4_0" function="internal">
        <lane id=":J4_0_0" index="0" allow="bicycle" speed="13.89" length="0.10" width="2.00" shape="-29.29,-20.71 -29.29,-20.71"/>
    </edge>
    <edge id=":J5_0" function="internal">
        <lane id=":J5_0_0" index="0" disallow="pedestrian" speed="13.89" length="3.08" shape="-28.50,-9.00 -29.40,-8.91 -30.00,-8.70 -30.60,-8.49 -31.50,-8.40"/>
    </edge>
    <edge id=":J5_1" function="internal">
        <lane id=":J5_1_0" index="0" disallow="pedestrian" speed="13.89" length="3.08" width="2.00" shape="-31.50,-11.60 -30.60,-11.51 -30.00,-11.30 -29.40,-11.09 -28.50,-11.00"/>
    </edge>
    <edge id=":gneJ12_w0" function="walkingarea">
        <lane id=":gneJ12_w0_0" index="0" allow="pedestrian" speed="1.00" length="8.40" width="2.00" shape="-16.80,-40.00 -14.80,-40.00 -25.20,-40.00 -23.20,-40.00"/>
    </edge>
    <edge id=":gneJ13_w0" function="walkingarea">
        <lane id=":gneJ13_w0_0" index="0" allow="pedestrian" speed="1.00" length="8.40" width="2.00" shape="10.00,-6.80 10.00,-4.80 10.00,-15.20 10.00,-13.20"/>
    </edge>
    <edge id=":gneJ7_w0" function="walkingarea">
        <lane id=":gneJ7_w0_0" index="0" allow="pedestrian" speed="1.00" length="8.40" width="2.00" shape="-23.20,20.00 -25.20,20.00 -14.80,20.00 -16.80,20.00"/>
    </edge>
    <edge id=":gneJ9_w0" function="walkingarea">
        <lane id=":gneJ9_w0_0" index="0" allow="pedestrian" speed="1.00" length="8.40" width="2.00" shape="-50.00,-13.20 -50.00,-15.20 -50.00,-4.80 -50.00,-6.80"/>
    </edge>

    <edge id="-E1" from="J2" to="J5" priority="-1">
        <lane id="-E1_0" index="0" disallow="pedestrian" speed="13.89" length="17.00" width="2.00" shape="-11.50,-9.00 -28.50,-9.00"/>
    </edge>
    <edge id="-E2" from="J3" to="J0" priority="-1">
        <lane id="-E2_0" index="0" disallow="pedestrian" speed="13.89" length="17.00" width="2.00" shape="-19.00,-18.50 -19.00,-1.50"/>
    </edge>
    <edge id="-gneE10" from="gneJ12" to="J3" priority="-1">
        <lane id="-gneE10_0" index="0" allow="pedestrian" speed="13.89" length="18.50" width="2.00" shape="-15.80,-40.00 -15.80,-21.50"/>
        <lane id="-gneE10_1" index="1" disallow="pedestrian" speed="13.89" length="18.50" shape="-18.40,-40.00 -18.40,-21.50"/>
    </edge>
    <edge id="-gneE11" from="J2" to="gneJ13" priority="-1">
        <lane id="-gneE11_0" index="0" allow="pedestrian" speed="13.89" length="18.50" width="2.00" shape="-8.50,-14.20 10.00,-14.20"/>
        <lane id="-gneE11_1" index="1" disallow="pedestrian" speed="13.89" length="18.50" shape="-8.50,-11.60 10.00,-11.60"/>
    </edge>
    <edge id="-gneE8" from="J0" to="gneJ7" priority="-1">
        <lane id="-gneE8_0" index="0" allow="pedestrian" speed="13.89" length="18.50" width="2.00" shape="-15.80,1.50 -15.80,20.00"/>
        <lane id="-gneE8_1" index="1" disallow="pedestrian" speed="13.89" length="18.50" shape="-18.40,1.50 -18.40,20.00"/>
    </edge>
    <edge id="-gneE9" from="J5" to="gneJ9" priority="-1">
        <lane id="-gneE9_0" index="0" allow="pedestrian" speed="13.89" length="18.50" width="2.00" shape="-31.50,-5.80 -50.00,-5.80"/>
        <lane id="-gneE9_1" index="1" disallow="pedestrian" speed="13.89" length="18.50" shape="-31.50,-8.40 -50.00,-8.40"/>
    </edge>
    <edge id="E0" from="J4" to="J1" priority="-1">
        <lane id="E0_0" index="0" allow="bicycle" speed="13.89" length="28.28" width="2.00" shape="-29.29,-20.71 -9.29,-0.71"/>
    </edge>
    <edge id="E1" from="J5" to="J2" priority="-1">
        <lane id="E1_0" index="0" disallow="pedestrian" speed="13.89" length="17.00" width="2.00" shape="-28.50,-11.00 -11.50,-11.00"/>
    </edge>
    <edge id="E2" from="J0" to="J3" priority="-1">
        <lane id="E2_0" index="0" disallow="pedestrian" speed="13.89" length="17.00" width="2.00" shape="-21.00,-1.50 -21.00,-18.50"/>
    </edge>
    <edge id="gneE10" from="J3" to="gneJ12" priority="-1">
        <lane id="gneE10_0" index="0" allow="pedestrian" speed="13.89" length="18.50" width="2.00" shape="-24.20,-21.50 -24.20,-40.00"/>
        <lane id="gneE10_1" index="1" disallow="pedestrian" speed="13.89" length="18.50" shape="-21.60,-21.50 -21.60,-40.00"/>
    </edge>
    <edge id="gneE11" from="gneJ13" to="J2" priority="-1">
        <lane id="gneE11_0" index="0" allow="pedestrian" speed="13.89" length="18.50" width="2.00" shape="10.00,-5.80 -8.50,-5.80"/>
        <lane id="gneE11_1" index="1" disallow="pedestrian" speed="13.89" length="18.50" shape="10.00,-8.40 -8.50,-8.40"/>
    </edge>
    <edge id="gneE12" from="gneJ15" to="J4" priority="-1">
        <lane id="gneE12_0" index="0" allow="bicycle" speed="13.89" length="28.28" width="2.00" shape="-49.29,-40.71 -29.29,-20.71"/>
    </edge>
    <edge id="gneE13" from="J1" to="gneJ18" priority="-1">
        <lane id="gneE13_0" index="0" allow="bicycle" speed="13.89" length="28.28" width="2.00" shape="-9.29,-0.71 10.71,19.29"/>
    </edge>
    <edge id="gneE8" from="gneJ7" to="J0" priority="-1">
        <lane id="gneE8_0" index="0" allow="pedestrian" speed="13.89" length="18.50" width="2.00" shape="-24.20,20.00 -24.20,1.50"/>
        <lane id="gneE8_1" index="1" disallow="pedestrian" speed="13.89" length="18.50" shape="-21.60,20.00 -21.60,1.50"/>
    </edge>
    <edge id="gneE9" from="gneJ9" to="J5" priority="-1">
        <lane id="gneE9_0" index="0" allow="pedestrian" speed="13.89" length="18.50" width="2.00" shape="-50.00,-14.20 -31.50,-14.20"/>
        <lane id="gneE9_1" index="1" disallow="pedestrian" speed="13.89" length="18.50" shape="-50.00,-11.60 -31.50,-11.60"/>
    </edge>

    <junction id="J0" type="priority" x="-20.00" y="0.00" incLanes="gneE8_0 gneE8_1 -E2_0" intLanes=":J0_0_0 :J0_1_0" shape="-25.20,1.50 -14.80,1.50 -18.00,-1.50 -22.00,-1.50">
        <request index="0" response="00" foes="00" cont="0"/>
        <request index="1" response="00" foes="00" cont="0"/>
    </junction>
    <junction id="J1" type="priority" x="-10.00" y="0.00" incLanes="E0_0" intLanes=":J1_0_0" shape="-10.00,0.00 -8.59,-1.41 -10.00,-0.00">
        <request index="0" response="0" foes="0" cont="0"/>
    </junction>
    <junction id="J2" type="priority" x="-10.00" y="-10.00" incLanes="gneE11_0 gneE11_1 E1_0" intLanes=":J2_0_0 :J2_1_0" shape="-8.50,-4.80 -8.50,-15.20 -11.50,-12.00 -11.50,-8.00">
        <request index="0" response="00" foes="00" cont="0"/>
        <request index="1" response="00" foes="00" cont="0"/>
    </junction>
    <junction id="J3" type="priority" x="-20.00" y="-20.00" incLanes="E2_0 -gneE10_0 -gneE10_1" intLanes=":J3_0_0 :J3_1_0" shape="-22.00,-18.50 -18.00,-18.50 -14.80,-21.50 -25.20,-21.50">
        <request index="0" response="00" foes="00" cont="0"/>
        <request index="1" response="00" foes="00" cont="0"/>
    </junction>
    <junction id="J4" type="priority" x="-30.00" y="-20.00" incLanes="gneE12_0" intLanes=":J4_0_0" shape="-30.00,-20.00 -28.59,-21.41 -30.00,-20.00">
        <request index="0" response="0" foes="0" cont="0"/>
    </junction>
    <junction id="J5" type="priority" x="-30.00" y="-10.00" incLanes="-E1_0 gneE9_0 gneE9_1" intLanes=":J5_0_0 :J5_1_0" shape="-28.50,-8.00 -28.50,-12.00 -31.50,-15.20 -31.50,-4.80">
        <request index="0" response="00" foes="00" cont="0"/>
        <request index="1" response="00" foes="00" cont="0"/>
    </junction>
    <junction id="gneJ12" type="dead_end" x="-20.00" y="-40.00" incLanes="gneE10_0 gneE10_1" intLanes="" shape="-20.00,-40.00 -25.20,-40.00 -20.00,-40.00"/>
    <junction id="gneJ13" type="dead_end" x="10.00" y="-10.00" incLanes="-gneE11_0 -gneE11_1" intLanes="" shape="10.00,-10.00 10.00,-15.20 10.00,-10.00"/>
    <junction id="gneJ15" type="dead_end" x="-50.00" y="-40.00" incLanes="" intLanes="" shape="-50.00,-40.00 -48.59,-41.41"/>
    <junction id="gneJ18" type="dead_end" x="10.00" y="20.00" incLanes="gneE13_0" intLanes="" shape="11.41,18.59 10.00,20.00"/>
    <junction id="gneJ7" type="dead_end" x="-20.00" y="20.00" incLanes="-gneE8_0 -gneE8_1" intLanes="" shape="-20.00,20.00 -14.80,20.00 -20.00,20.00"/>
    <junction id="gneJ9" type="dead_end" x="-50.00" y="-10.00" incLanes="-gneE9_0 -gneE9_1" intLanes="" shape="-50.00,-10.00 -50.00,-4.80 -50.00,-10.00"/>

    <connection from="-E1" to="-gneE9" fromLane="0" toLane="1" via=":J5_0_0" dir="s" state="M"/>
    <connection from="-E2" to="-gneE8" fromLane="0" toLane="1" via=":J0_1_0" dir="s" state="M"/>
    <connection from="-gneE10" to="-E2" fromLane="1" toLane="0" via=":J3_1_0" dir="s" state="M"/>
    <connection from="E0" to="gneE13" fromLane="0" toLane="0" via=":J1_0_0" dir="s" state="M"/>
    <connection from="E1" to="-gneE11" fromLane="0" toLane="1" via=":J2_1_0" dir="s" state="M"/>
    <connection from="E2" to="gneE10" fromLane="0" toLane="1" via=":J3_0_0" dir="s" state="M"/>
    <connection from="gneE11" to="-E1" fromLane="1" toLane="0" via=":J2_0_0" dir="s" state="M"/>
    <connection from="gneE12" to="E0" fromLane="0" toLane="0" via=":J4_0_0" dir="s" state="M"/>
    <connection from="gneE8" to="E2" fromLane="1" toLane="0" via=":J0_0_0" dir="s" state="M"/>
    <connection from="gneE9" to="E1" fromLane="1" toLane="0" via=":J5_1_0" dir="s" state="M"/>

    <connection from=":J0_0" to="E2" fromLane="0" toLane="0" dir="s" state="M"/>
    <connection from=":J0_1" to="-gneE8" fromLane="0" toLane="1" dir="s" state="M"/>
    <connection from=":J1_0" to="gneE13" fromLane="0" toLane="0" dir="s" state="M"/>
    <connection from=":J2_0" to="-E1" fromLane="0" toLane="0" dir="s" state="M"/>
    <connection from=":J2_1" to="-gneE11" fromLane="0" toLane="1" dir="s" state="M"/>
    <connection from=":J3_0" to="gneE10" fromLane="0" toLane="1" dir="s" state="M"/>
    <connection from=":J3_1" to="-E2" fromLane="0" toLane="0" dir="s" state="M"/>
    <connection from=":J4_0" to="E0" fromLane="0" toLane="0" dir="s" state="M"/>
    <connection from=":J5_0" to="-gneE9" fromLane="0" toLane="1" dir="s" state="M"/>
    <connection from=":J5_1" to="E1" fromLane="0" toLane="0" dir="s" state="M"/>

    <connection from=":gneJ12_w0" to="-gneE10" fromLane="0" toLane="0" dir="s" state="M"/>
    <connection from="gneE10" to=":gneJ12_w0" fromLane="0" toLane="0" dir="s" state="M"/>
    <connection from=":gneJ13_w0" to="gneE11" fromLane="0" toLane="0" dir="s" state="M"/>
    <connection from="-gneE11" to=":gneJ13_w0" fromLane="0" toLane="0" dir="s" state="M"/>
    <connection from=":gneJ7_w0" to="gneE8" fromLane="0" toLane="0" dir="s" state="M"/>
    <connection from="-gneE8" to=":gneJ7_w0" fromLane="0" toLane="0" dir="s" state="M"/>
    <connection from=":gneJ9_w0" to="gneE9" fromLane="0" toLane="0" dir="s" state="M"/>
    <connection from="-gneE9" to=":gneJ9_w0" fromLane="0" toLane="0" dir="s" state="M"/>
</net>
