<?xml version="1.0"?>

<!-- generated on 03/18/10 13:38:26 by SUMO sumo Version dev-SVN-r8460
<configuration>

    <input>
        <net-file value="net.net.xml"/>
        <additional-files value="input_routes.rou.xml,input_additional.add.xml,input_additional2.add.xml"/>
    </input>

    <time>
        <begin value="0"/>
        <end value="1000"/>
    </time>

    <processing>
        <time-to-teleport value="-1"/>
    </processing>

    <report>
        <no-duration-log value="true"/>
        <no-step-log value="true"/>
    </report>

</configuration>
-->

<netstats>
    <interval begin="600.00" end="660.00" id="dump_60">
        <edge id="3/1to2/1">
            <lane id="3/1to2/1_0" sampledSeconds="3180.00" CO_abs="2e+004" CO2_abs="1.9e+006" HC_abs="1.1e+003" PMx_abs="68" NOx_abs="2.7e+003" fuel_abs="7.6e+002"
            CO_normed="3.1e+003" CO2_normed="2.9e+005" HC_normed="1.7e+002" PMx_normed="10" NOx_normed="4.1e+002" fuel_normed="1.2e+002"
            CO_perVeh="6.4e+002" CO2_perVeh="6e+004" HC_perVeh="35" PMx_perVeh="2.1" NOx_perVeh="84" fuel_perVeh="24"/>
        </edge>
        <edge id="4/1to3/1">
            <lane id="4/1to3/1_0" sampledSeconds="1500.00" CO_abs="9.6e+003" CO2_abs="9e+005" HC_abs="5.2e+002" PMx_abs="32" NOx_abs="1.3e+003" fuel_abs="3.6e+002"
            CO_normed="1.5e+003" CO2_normed="1.4e+005" HC_normed="81" PMx_normed="4.9" NOx_normed="1.9e+002" fuel_normed="55"
            CO_perVeh="6.4e+002" CO2_perVeh="6e+004" HC_perVeh="35" PMx_perVeh="2.1" NOx_perVeh="84" fuel_perVeh="24"/>
        </edge>
    </interval>
</netstats>
