<?xml version="1.0"?>

<!-- generated on 05/13/09 14:03:46 by SUMO sumo Version dev-SVN-r7157
<configuration>

   <input>
      <net-file>net.net.xml</net-file>
      <additional-files>input_routes.rou.xml,input_additional.add.xml,input_additional2.add.xml</additional-files>
   </input>

   <time>
      <begin>0</begin>
      <end>1000</end>
   </time>

   <processing>
      <time-to-teleport>-1</time-to-teleport>
      <no-duration-log>true</no-duration-log>
      <no-step-log>true</no-step-log>
   </processing>

</configuration>
-->

<netstats>
   <interval begin="600" end="615" id="dump_15">
      <edge id="3/1to2/1">
         <lane id="3/1to2/1_0" sampledSeconds="780.00" CO_abs="4.97" CO2_abs="469.32" HC_abs="0.27" PMx_abs="0.02" NOx_abs="0.65" fuel_abs="0.19" CO_normed="3054.42" CO2_normed="288441.81" HC_normed="167.51" PMx_normed="10.19" NOx_normed="402.45" fuel_normed="115.00"/>
      </edge>
      <edge id="4/1to3/1">
         <lane id="4/1to3/1_0" sampledSeconds="390.00" CO_abs="2.48" CO2_abs="234.66" HC_abs="0.14" PMx_abs="0.01" NOx_abs="0.33" fuel_abs="0.09" CO_normed="1527.22" CO2_normed="144222.08" HC_normed="83.75" PMx_normed="5.10" NOx_normed="201.22" fuel_normed="57.50"/>
      </edge>
   </interval>
   <interval begin="615" end="630" id="dump_15">
      <edge id="3/1to2/1">
         <lane id="3/1to2/1_0" sampledSeconds="780.00" CO_abs="4.97" CO2_abs="469.32" HC_abs="0.27" PMx_abs="0.02" NOx_abs="0.65" fuel_abs="0.19" CO_normed="3054.42" CO2_normed="288441.81" HC_normed="167.51" PMx_normed="10.19" NOx_normed="402.45" fuel_normed="115.00"/>
      </edge>
      <edge id="4/1to3/1">
         <lane id="4/1to3/1_0" sampledSeconds="390.00" CO_abs="2.48" CO2_abs="234.66" HC_abs="0.14" PMx_abs="0.01" NOx_abs="0.33" fuel_abs="0.09" CO_normed="1527.22" CO2_normed="144222.08" HC_normed="83.75" PMx_normed="5.10" NOx_normed="201.22" fuel_normed="57.50"/>
      </edge>
   </interval>
   <interval begin="630" end="645" id="dump_15">
      <edge id="3/1to2/1">
         <lane id="3/1to2/1_0" sampledSeconds="780.00" CO_abs="4.97" CO2_abs="469.32" HC_abs="0.27" PMx_abs="0.02" NOx_abs="0.65" fuel_abs="0.19" CO_normed="3054.42" CO2_normed="288441.81" HC_normed="167.51" PMx_normed="10.19" NOx_normed="402.45" fuel_normed="115.00"/>
      </edge>
      <edge id="4/1to3/1">
         <lane id="4/1to3/1_0" sampledSeconds="390.00" CO_abs="2.48" CO2_abs="234.66" HC_abs="0.14" PMx_abs="0.01" NOx_abs="0.33" fuel_abs="0.09" CO_normed="1527.22" CO2_normed="144222.08" HC_normed="83.75" PMx_normed="5.10" NOx_normed="201.22" fuel_normed="57.50"/>
      </edge>
   </interval>
   <interval begin="645" end="660" id="dump_15">
      <edge id="3/1to2/1">
         <lane id="3/1to2/1_0" sampledSeconds="780.00" CO_abs="4.97" CO2_abs="469.32" HC_abs="0.27" PMx_abs="0.02" NOx_abs="0.65" fuel_abs="0.19" CO_normed="3054.42" CO2_normed="288441.81" HC_normed="167.51" PMx_normed="10.19" NOx_normed="402.45" fuel_normed="115.00"/>
      </edge>
      <edge id="4/1to3/1">
         <lane id="4/1to3/1_0" sampledSeconds="390.00" CO_abs="2.48" CO2_abs="234.66" HC_abs="0.14" PMx_abs="0.01" NOx_abs="0.33" fuel_abs="0.09" CO_normed="1527.22" CO2_normed="144222.08" HC_normed="83.75" PMx_normed="5.10" NOx_normed="201.22" fuel_normed="57.50"/>
      </edge>
   </interval>
</netstats>
