<?xml version="1.0"?>

<!-- generated on 03/09/11 14:28:06 by SUMO sumo Version dev-SVN-r9885
<?xml version="1.0" encoding="iso-8859-1"?>

<configuration xmlns:xsi="http://www.w3.org/2001/XMLSchema-instance" xsi:noNamespaceSchemaLocation="http://sumo.sf.net/xsd/sumoConfiguration.xsd">

    <input>
        <net-file value="net.net.xml"/>
        <additional-files value="input_routes.rou.xml,input_additional.add.xml,input_additional2.add.xml"/>
    </input>

    <time>
        <begin value="0"/>
        <end value="1000"/>
    </time>

    <processing>
        <time-to-teleport value="-1"/>
    </processing>

    <report>
        <no-duration-log value="true"/>
        <no-step-log value="true"/>
    </report>

</configuration>
-->

<netstats>
    <interval begin="600.00" end="660.00" id="dump_60">
        <edge id="3/1to2/1">
            <lane id="3/1to2/1_0" sampledSeconds="3180.00" CO_abs="20261.564333" CO2_abs="1913383.033333" HC_abs="1111.155600" PMx_abs="67.611526" NOx_abs="2669.641800" fuel_abs="762.835932"
            CO_normed="3113.172497" CO2_normed="293989.710627" HC_normed="170.728133" PMx_normed="10.388455" NOx_normed="410.188241" fuel_normed="117.209106"
            traveltime="100000.00" CO_perVeh="637.156111" CO2_perVeh="60169.277778" HC_perVeh="34.942000" PMx_perVeh="2.126149" NOx_perVeh="83.951000" fuel_perVeh="23.988551"/>
        </edge>
        <edge id="4/1to3/1">
            <lane id="4/1to3/1_0" sampledSeconds="1500.0000000000" CO_abs="9557.341667" CO2_abs="902539.166667" HC_abs="524.130000" PMx_abs="31.892229" NOx_abs="1259.265000" fuel_abs="359.828270"
            CO_normed="1468.477593" CO2_normed="138674.391805" HC_normed="80.532138" PMx_normed="4.900214" NOx_normed="193.485019" fuel_normed="55.287314"
            traveltime="100000.00" CO_perVeh="637.156111" CO2_perVeh="60169.277778" HC_perVeh="34.942000" PMx_perVeh="2.126149" NOx_perVeh="83.951000" fuel_perVeh="23.988551"/>
        </edge>
    </interval>
</netstats>
