<?xml version="1.0"?>

<!-- generated on 09/08/09 09:46:46 by SUMO duarouter Version dev-SVN-r7683
<configuration>

    <input
        net-file="input_net.net.xml"
        trip-defs="input_trips.trips.xml"
    />

    <output
        output-file="routes.rou.xml"
    />

    <processing
        unsorted="true"
    />

</configuration>
-->

<route-alternatives>
   <vtype model="SUMO_KRAUSS" id="0" accel="2.60" decel="4.50" sigma="0.50" length="5.00" maxspeed="70.00" tau="1.00" color="1,1,0"/>
   <vehicle id="8" type="0" depart="1">
      <routeDistribution last="0">
         <route cost="125.11" probability="1.00000000" edges="beg middle end rend"/>
      </routeDistribution>
   </vehicle>
   <vehicle id="7" type="0" depart="18">
      <routeDistribution last="0">
         <route cost="125.11" probability="1.00000000" edges="beg middle end rend"/>
      </routeDistribution>
   </vehicle>
   <vehicle id="2" type="0" depart="20">
      <routeDistribution last="0">
         <route cost="125.11" probability="1.00000000" edges="beg middle end rend"/>
      </routeDistribution>
   </vehicle>
   <vehicle id="6" type="0" depart="43">
      <routeDistribution last="0">
         <route cost="125.11" probability="1.00000000" edges="beg middle end rend"/>
      </routeDistribution>
   </vehicle>
   <vehicle id="1" type="0" depart="51">
      <routeDistribution last="0">
         <route cost="125.11" probability="1.00000000" edges="beg middle end rend"/>
      </routeDistribution>
   </vehicle>
   <vehicle id="5" type="0" depart="66">
      <routeDistribution last="0">
         <route cost="125.11" probability="1.00000000" edges="beg middle end rend"/>
      </routeDistribution>
   </vehicle>
   <vehicle id="0" type="0" depart="71">
      <routeDistribution last="0">
         <route cost="125.11" probability="1.00000000" edges="beg middle end rend"/>
      </routeDistribution>
   </vehicle>
   <vehicle id="3" type="0" depart="78">
      <routeDistribution last="0">
         <route cost="125.11" probability="1.00000000" edges="beg middle end rend"/>
      </routeDistribution>
   </vehicle>
   <vehicle id="4" type="0" depart="84">
      <routeDistribution last="0">
         <route cost="125.11" probability="1.00000000" edges="beg middle end rend"/>
      </routeDistribution>
   </vehicle>
   <vehicle id="9" type="0" depart="99">
      <routeDistribution last="0">
         <route cost="125.11" probability="1.00000000" edges="beg middle end rend"/>
      </routeDistribution>
   </vehicle>
</route-alternatives>
