<?xml version="1.0"?>

<!-- generated on 09/16/09 09:09:53 by SUMO duarouter Version dev-SVN-r7726
<configuration>

    <input
        net-file="input_net.net.xml"
        trip-defs="input_trips.trips.xml"
    />

    <output
        output-file="routes.rou.xml"
    />

    <processing
        unsorted="true"
    />

</configuration>
-->

<routes>
   <vtype id="0" length="5.00" maxspeed="70.00" color="1.00,1.00,0.00">
      <carFollow-Krauss accel="2.60" decel="4.50" sigma="0.50"/>
   </vtype>
   <vehicle id="8" type="0" depart="1">
      <route edges="beg middle end rend"/>
   </vehicle>
   <vehicle id="7" type="0" depart="18">
      <route edges="beg middle end rend"/>
   </vehicle>
   <vehicle id="2" type="0" depart="20">
      <route edges="beg middle end rend"/>
   </vehicle>
   <vehicle id="6" type="0" depart="43">
      <route edges="beg middle end rend"/>
   </vehicle>
   <vehicle id="1" type="0" depart="51">
      <route edges="beg middle end rend"/>
   </vehicle>
   <vehicle id="5" type="0" depart="66">
      <route edges="beg middle end rend"/>
   </vehicle>
   <vehicle id="0" type="0" depart="71">
      <route edges="beg middle end rend"/>
   </vehicle>
   <vehicle id="3" type="0" depart="78">
      <route edges="beg middle end rend"/>
   </vehicle>
   <vehicle id="4" type="0" depart="84">
      <route edges="beg middle end rend"/>
   </vehicle>
   <vehicle id="9" type="0" depart="99">
      <route edges="beg middle end rend"/>
   </vehicle>
</routes>
