<additional>
	<rerouter id="rerouter" edges="beg" pos="20" file="input_definition.def.xml"/>
	<rerouter id="rerouter" edges="beg" pos="50" file="input_definition2.def.xml"/>
</additional>