<?xml version="1.0" encoding="UTF-8"?>

<!-- generated on 2026-01-23T17:44:52.145259+01:00 by Eclipse SUMO sumo v1_25_0+1167-e4289d0ddf3
<sumoConfiguration xmlns:xsi="http://www.w3.org/2001/XMLSchema-instance" xsi:noNamespaceSchemaLocation="http://sumo.dlr.de/xsd/sumoConfiguration.xsd">

    <input>
        <net-file value="input_net2.net.xml"/>
        <route-files value="input_routes.rou.xml"/>
    </input>

    <report>
        <no-step-log value="true"/>
    </report>

    <traci_server>
        <remote-port value="33673"/>
    </traci_server>

</sumoConfiguration>
-->

<snapshot type="micro" version="v1_25_0+1167-e4289d0ddf3" time="10.00" xmlns:xsi="http://www.w3.org/2001/XMLSchema-instance" xsi:noNamespaceSchemaLocation="http://sumo.dlr.de/xsd/state_file.xsd">
    <route id="r0" state="1" edges="SC"/>
    <delay number="1" begin="10" end="9" depart="0.00" time="9.00"/>
    <vType id="DEFAULT_VEHTYPE"/>
    <vehicle id="v.9" depart="9.00" departLane="best" departPos="last" departSpeed="max" route="r0" distance="0 0" speedFactor="0.8569" state="2236 9000 0 91.85 0 0.00 10000 0 0" pos="91.85 86.85 11.90" speed="11.90 11.90" angle="0.00" posLat="0.00" waitingTime="100000 0"/>
    <flowState id="v" begin="0.00" end="20.00" period="1" departLane="best" departPos="last" departSpeed="max" next="10.00" route="r0" done="10" index="10"/>
    <lane id="SC_0">
        <vehicles value="v.9"/>
    </lane>
    <tlLogic id="C" programID="0" phase="0" duration="10000" active="1"/>
</snapshot>
