<?xml version="1.0" encoding="UTF-8"?>

<!-- generated on 2025-12-19T17:50:52.731925+01:00 by Eclipse SUMO sumo v1_25_0+0646-5052cf5c68d
This data file and the accompanying materials
are made available under the terms of the Eclipse Public License v2.0
which accompanies this distribution, and is available at
http://www.eclipse.org/legal/epl-v20.html
This file may also be made available under the following Secondary
Licenses when the conditions for such availability set forth in the Eclipse
Public License 2.0 are satisfied: GNU General Public License, version 2
or later which is available at
https://www.gnu.org/licenses/old-licenses/gpl-2.0-standalone.html
SPDX-License-Identifier: EPL-2.0 OR GPL-2.0-or-later
<sumoConfiguration xmlns:xsi="http://www.w3.org/2001/XMLSchema-instance" xsi:noNamespaceSchemaLocation="http://sumo.dlr.de/xsd/sumoConfiguration.xsd">

    <input>
        <net-file value="net.net.xml"/>
        <route-files value="input_routes.rou.xml"/>
        <additional-files value="input_additional.add.xml"/>
    </input>

    <output>
        <write-license value="true"/>
        <fcd-output value="fcd.xml"/>
        <railsignal-block-output value="railsignal_blocks.xml"/>
    </output>

    <time>
        <end value="550"/>
    </time>

    <processing>
        <time-to-teleport.railsignal-deadlock value="200"/>
        <default.speeddev value="0"/>
    </processing>

    <report>
        <xml-validation value="never"/>
        <duration-log.disable value="true"/>
        <no-step-log value="true"/>
    </report>

    <mesoscopic>
        <mesosim value="true"/>
        <meso-junction-control value="true"/>
    </mesoscopic>

</sumoConfiguration>
-->

<railsignal-block-output>
    <railSignal id="11">
        <link linkIndex="0" from="h2_0" to="i_0">
            <driveWay id="11.0" vehicle="light_rail_S46:0.0" edges="i -i -h2 -h g end">
                <forward lanes="i_0 -i_0"/>
                <bidi lanes="-i_0 i_0 h2_0 h_0"/>
                <flank lanes=""/>
                <conflictLinks signals=""/>
                <foes driveWays="0.d0 11.0"/>
            </driveWay>
        </link>
        <link linkIndex="1" from="-i_0" to="-h2_0">
            <driveWay id="11.1" vehicle="light_rail_S46:0.0" edges="-h2 -h g end">
                <forward lanes="-h2_0 -h_0 g_0 end_0"/>
                <bidi lanes="h2_0 h_0"/>
                <flank lanes=""/>
                <conflictLinks signals=""/>
                <foes driveWays="0.d0 11.1"/>
            </driveWay>
            <subDriveWay id="11.1.0" vehicle="" edges="-h2 -h">
                <forward lanes="-h2_0 -h_0"/>
            </subDriveWay>
        </link>
    </railSignal>
    <departJunction id="0">
        <driveWay id="0.d0" vehicle="light_rail_S46:0.0" edges="beg f h h2 i -i -h2 -h g end">
            <forward lanes="beg_0 f_0 h_0 h2_0"/>
            <bidi lanes="-h_0 -h2_0 -i_0"
                    deadlockCheck="i_0 h2_0 h_0"/>
            <flank lanes=""/>
            <conflictLinks signals="11_0"/>
            <foes driveWays="0.d0 11.0 11.1.0"/>
        </driveWay>
    </departJunction>
</railsignal-block-output>
