<?xml version="1.0" encoding="UTF-8"?>

<!-- generated on Mon 07 Aug 2017 01:42:37 PM CEST by Netedit Version dev-SVN-r25495
<?xml version="1.0" encoding="UTF-8"?>

<configuration xmlns:xsi="http://www.w3.org/2001/XMLSchema-instance" xsi:noNamespaceSchemaLocation="http://sumo.dlr.de/xsd/netconvertConfiguration.xsd">

    <input>
        <sumo-net-file value="/scr1/sumoD/tests/sumo/sublane_model/bugs/ticket3333/net.net.xml"/>
    </input>

    <output>
        <output-file value="/scr1/sumoD/tests/sumo/sublane_model/bugs/ticket3333/net.net.xml"/>
    </output>

    <processing>
        <no-internal-links value="true"/>
        <no-turnarounds value="true"/>
        <offset.disable-normalization value="true"/>
        <lefthand value="false"/>
        <junctions.corner-detail value="0"/>
        <rectangular-lane-cut value="false"/>
        <walkingareas value="false"/>
    </processing>

</configuration>
-->

<net version="0.27" xmlns:xsi="http://www.w3.org/2001/XMLSchema-instance" xsi:noNamespaceSchemaLocation="http://sumo.dlr.de/xsd/net_file.xsd">

    <location netOffset="0.00,0.00" convBoundary="0.00,0.00,200.00,0.00" origBoundary="-10000000000.00,-10000000000.00,10000000000.00,10000000000.00" projParameter="!"/>

    <edge id="beg" from="gneJ0" to="B" priority="1" spreadType="center">
        <lane id="beg_0" index="0" speed="10.00" length="200.00" shape="0.00,-3.30 200.00,-3.30"/>
        <lane id="beg_1" index="1" speed="10.00" length="200.00" shape="0.00,0.00 200.00,0.00"/>
        <lane id="beg_2" index="2" speed="10.00" length="200.00" shape="0.00,3.30 200.00,3.30"/>
    </edge>

    <junction id="B" type="dead_end" x="200.00" y="0.00" incLanes="beg_0 beg_1 beg_2" intLanes="" shape="200.00,-4.90 200.00,4.90" radius="10.00"/>
    <junction id="gneJ0" type="dead_end" x="0.00" y="0.00" incLanes="" intLanes="" shape="0.00,4.90 0.00,-4.90"/>

</net>
