<?xml version="1.0" encoding="UTF-8"?>

<!-- generated on 2024-03-15 10:15:51 by Eclipse SUMO netconvert Version v1_19_0+1305-3dcf69d3212
This data file and the accompanying materials
are made available under the terms of the Eclipse Public License v2.0
which accompanies this distribution, and is available at
http://www.eclipse.org/legal/epl-v20.html
This file may also be made available under the following Secondary
Licenses when the conditions for such availability set forth in the Eclipse
Public License 2.0 are satisfied: GNU General Public License, version 2
or later which is available at
https://www.gnu.org/licenses/old-licenses/gpl-2.0-standalone.html
SPDX-License-Identifier: EPL-2.0 OR GPL-2.0-or-later
<configuration xmlns:xsi="http://www.w3.org/2001/XMLSchema-instance" xsi:noNamespaceSchemaLocation="http://sumo.dlr.de/xsd/netconvertConfiguration.xsd">

    <input>
        <osm-files value="osm.xml"/>
    </input>

    <output>
        <write-license value="true"/>
    </output>

    <projection>
        <proj.utm value="true"/>
    </projection>

    <junctions>
        <no-internal-links value="true"/>
    </junctions>

    <railway>
        <railway.topology.repair value="true"/>
    </railway>

    <formats>
        <osm.railsignals value="ALL"/>
    </formats>

    <report>
        <xml-validation value="never"/>
    </report>

</configuration>
-->

<net version="1.20" junctionCornerDetail="5" limitTurnSpeed="5.50" xmlns:xsi="http://www.w3.org/2001/XMLSchema-instance" xsi:noNamespaceSchemaLocation="http://sumo.dlr.de/xsd/net_file.xsd">

    <location netOffset="-383413.27,-5813938.80" convBoundary="0.00,0.00,13143.88,9438.27" origBoundary="13.282321,52.464876,13.475724,52.549758" projParameter="+proj=utm +zone=33 +ellps=WGS84 +datum=WGS84 +units=m +no_defs"/>

    <type id="railway.light_rail" priority="19" numLanes="1" speed="27.78" allow="rail_urban" oneway="1"/>

    <edge id="-1007479688#0" from="1499711630" to="9294648955" priority="19" type="railway.light_rail" spreadType="center" bidi="1007479688#0">
        <lane id="-1007479688#0_0" index="0" allow="rail_urban" speed="22.22" length="3.97" shape="12214.64,3207.94 12212.89,3204.71"/>
        <param key="railway:track_ref" value="2"/>
    </edge>
    <edge id="-1007479688#1" from="9294648953" to="1499711630" priority="19" type="railway.light_rail" spreadType="center" shape="12269.53,3296.67 12262.16,3287.70 12253.78,3276.67 12244.38,3262.46 12232.41,3242.04 12223.55,3224.75 12220.47,3219.13 12214.71,3208.07" bidi="1007479688#1">
        <lane id="-1007479688#1_0" index="0" allow="rail_urban" speed="22.22" length="104.48" shape="12269.46,3296.59 12262.16,3287.70 12253.78,3276.67 12244.38,3262.46 12232.41,3242.04 12223.55,3224.75 12220.47,3219.13 12214.77,3208.19"/>
        <param key="railway:track_ref" value="2"/>
    </edge>
    <edge id="-1007479688#2" from="261750074" to="9294648953" priority="19" type="railway.light_rail" spreadType="center" bidi="1007479688#2">
        <lane id="-1007479688#2_0" index="0" allow="rail_urban" speed="22.22" length="1.77" shape="12270.61,3297.88 12269.59,3296.75"/>
        <param key="railway:track_ref" value="2"/>
    </edge>
    <edge id="-1023966238" from="27186947" to="27186946" priority="19" type="railway.light_rail" spreadType="center" bidi="1023966238">
        <lane id="-1023966238_0" index="0" allow="rail_urban" speed="19.44" length="17.68" shape="4394.59,1590.63 4378.12,1584.97"/>
    </edge>
    <edge id="-1023966242" from="27325964" to="27186947" priority="19" type="railway.light_rail" spreadType="center" shape="4537.62,1644.13 4447.82,1610.84 4440.58,1608.06 4394.71,1590.67" bidi="1023966242">
        <lane id="-1023966242_0" index="0" allow="rail_urban" speed="19.44" length="152.59" shape="4537.49,1644.08 4447.82,1610.84 4440.58,1608.06 4394.82,1590.71"/>
    </edge>
    <edge id="-1066932616" from="316780310" to="29925383" priority="19" type="railway.light_rail" spreadType="center" shape="11926.92,2203.81 11914.24,2118.02 11903.02,2042.08 11895.67,1991.09 11883.51,1906.88 11867.01,1792.04 11820.20,1471.76" bidi="1066932616">
        <lane id="-1066932616_0" index="0" allow="rail_urban" speed="27.78" length="739.79" shape="11926.90,2203.67 11914.24,2118.02 11903.02,2042.08 11895.67,1991.09 11883.51,1906.88 11867.01,1792.04 11820.22,1471.91"/>
    </edge>
    <edge id="-1115652877" from="29925363" to="9796784044" priority="19" type="railway.light_rail" spreadType="center" bidi="1115652877">
        <lane id="-1115652877_0" index="0" allow="rail_urban" speed="27.78" length="88.17" shape="11969.63,2471.01 11955.36,2384.31"/>
    </edge>
    <edge id="-1115652878" from="9796784047" to="29879243" priority="19" type="railway.light_rail" spreadType="center" bidi="1115652878">
        <lane id="-1115652878_0" index="0" allow="rail_urban" speed="27.78" length="26.62" shape="11936.33,2268.06 11932.87,2241.93"/>
    </edge>
    <edge id="-1115652881" from="29925362" to="29925363" priority="19" type="railway.light_rail" spreadType="center" shape="11977.20,2517.93 11971.44,2482.24 11969.65,2471.16" bidi="1115652881">
        <lane id="-1115652881_0" index="0" allow="rail_urban" speed="27.78" length="47.38" shape="11977.17,2517.79 11971.44,2482.24 11969.67,2471.31"/>
    </edge>
    <edge id="-1125072786#0" from="10288523920" to="10288523919" priority="19" type="railway.light_rail" spreadType="center" bidi="1125072786#0">
        <lane id="-1125072786#0_0" index="0" allow="rail_urban" speed="22.22" length="0.55" shape="12008.88,2701.07 12008.79,2700.52"/>
    </edge>
    <edge id="-1125072786#1" from="6222911223" to="10288523920" priority="19" type="railway.light_rail" spreadType="center" bidi="1125072786#1">
        <lane id="-1125072786#1_0" index="0" allow="rail_urban" speed="22.22" length="1.06" shape="12009.04,2701.98 12008.88,2701.07"/>
    </edge>
    <edge id="-1125072786#2" from="244430172" to="6222911223" priority="19" type="railway.light_rail" spreadType="center" bidi="1125072786#2">
        <lane id="-1125072786#2_0" index="0" allow="rail_urban" speed="22.22" length="22.39" shape="12012.29,2724.12 12009.08,2702.24"/>
    </edge>
    <edge id="-1125299946#0" from="10290541012" to="10290541014" priority="19" type="railway.light_rail" spreadType="center" bidi="1125299946#0">
        <lane id="-1125299946#0_0" index="0" allow="rail_urban" speed="13.89" length="0.48" shape="13117.92,5293.93 13117.94,5293.74"/>
    </edge>
    <edge id="-1125299946#1" from="28842104" to="10290541012" priority="19" type="railway.light_rail" spreadType="center" bidi="1125299946#1">
        <lane id="-1125299946#1_0" index="0" allow="rail_urban" speed="13.89" length="6.35" shape="13117.17,5300.23 13117.89,5294.22"/>
    </edge>
    <edge id="-1125949326" from="4264708621" to="3776392659" priority="19" type="railway.light_rail" spreadType="center" bidi="1125949326">
        <lane id="-1125949326_0" index="0" allow="rail_urban" speed="19.44" length="7.21" shape="13036.16,5591.75 13038.86,5585.38"/>
    </edge>
    <edge id="-1125949328#0" from="10288523910" to="28842105" priority="19" type="railway.light_rail" spreadType="center" shape="13098.75,5415.47 13103.05,5396.98 13106.57,5378.12 13109.09,5363.26 13110.95,5349.52" bidi="1125949328#0">
        <lane id="-1125949328#0_0" index="0" allow="rail_urban" speed="13.89" length="67.11" shape="13098.79,5415.33 13103.05,5396.98 13106.57,5378.12 13109.09,5363.26 13110.93,5349.67"/>
    </edge>
    <edge id="-1125949328#1" from="10288479807" to="10288523910" priority="19" type="railway.light_rail" spreadType="center" bidi="1125949328#1">
        <lane id="-1125949328#1_0" index="0" allow="rail_urban" speed="13.89" length="0.50" shape="13098.68,5415.83 13098.73,5415.61"/>
    </edge>
    <edge id="-1154986481" from="29925384" to="2611292813" priority="19" type="railway.light_rail" spreadType="center" shape="11811.74,1408.95 11766.72,1097.05 11753.52,1010.02" bidi="1154986481">
        <lane id="-1154986481_0" index="0" allow="rail_urban" speed="27.78" length="403.16" shape="11811.72,1408.81 11766.72,1097.05 11753.54,1010.16"/>
    </edge>
    <edge id="-1154993712#0" from="10741227445" to="10659804393" priority="19" type="railway.light_rail" spreadType="center" bidi="1154993712#0">
        <lane id="-1154993712#0_0" index="0" allow="rail_urban" speed="16.67" length="0.85" shape="5838.64,825.03 5838.01,825.36"/>
    </edge>
    <edge id="-1154993712#1" from="10659804397" to="10741227445" priority="19" type="railway.light_rail" spreadType="center" shape="6033.49,775.99 5988.86,777.73 5965.98,780.12 5953.87,782.09 5942.04,784.51 5921.96,789.77 5902.13,796.00 5880.86,804.44 5859.94,813.69 5838.77,824.96" bidi="1154993712#1">
        <lane id="-1154993712#1_0" index="0" allow="rail_urban" speed="16.67" length="203.29" shape="6033.34,775.99 5988.86,777.73 5965.98,780.12 5953.87,782.09 5942.04,784.51 5921.96,789.77 5902.13,796.00 5880.86,804.44 5859.94,813.69 5838.90,824.89"/>
    </edge>
    <edge id="-1154993712#2" from="2071462107" to="10659804397" priority="19" type="railway.light_rail" spreadType="center" bidi="1154993712#2">
        <lane id="-1154993712#2_0" index="0" allow="rail_urban" speed="16.67" length="93.64" shape="6126.93,772.86 6033.63,775.98"/>
    </edge>
    <edge id="-1155777190" from="10748342367" to="27555336" priority="19" type="railway.light_rail" spreadType="center" bidi="1155777190">
        <lane id="-1155777190_0" index="0" allow="rail_urban" speed="27.78" length="117.57" shape="11089.58,503.41 10975.08,478.00"/>
    </edge>
    <edge id="-1155801227#0" from="10748539816" to="10748539815" priority="19" type="railway.light_rail" spreadType="center" bidi="1155801227#0">
        <lane id="-1155801227#0_0" index="0" allow="rail_urban" speed="22.22" length="1.04" shape="1318.30,7480.45 1319.33,7480.65"/>
    </edge>
    <edge id="-1155801227#1" from="26784434" to="10748539816" priority="19" type="railway.light_rail" spreadType="center" shape="1023.46,7411.23 1127.09,7441.13 1169.29,7451.19 1219.77,7461.35 1318.30,7480.45" bidi="1155801227#1">
        <lane id="-1155801227#1_0" index="0" allow="rail_urban" speed="22.22" length="303.10" shape="1023.60,7411.27 1127.09,7441.13 1169.29,7451.19 1219.77,7461.35 1318.30,7480.45"/>
    </edge>
    <edge id="-1155801229#0" from="10748539820" to="10748539821" priority="19" type="railway.light_rail" spreadType="center" bidi="1155801229#0" distance="31120.56">
        <lane id="-1155801229#0_0" index="0" allow="rail_urban" speed="16.67" length="1.08" shape="119.86,5035.73 120.24,5036.42"/>
    </edge>
    <edge id="-1155801229#1" from="128376778" to="10748539820" priority="19" type="railway.light_rail" spreadType="center" bidi="1155801229#1" distance="31121.92">
        <lane id="-1155801229#1_0" index="0" allow="rail_urban" speed="16.67" length="1.36" shape="119.19,5034.54 119.71,5035.47"/>
    </edge>
    <edge id="-1155801229#2" from="10748539819" to="128376778" priority="19" type="railway.light_rail" spreadType="center" shape="47.12,4881.69 58.70,4910.08 81.11,4958.29 84.14,4964.64 105.25,5008.95 119.12,5034.42" bidi="1155801229#2" distance="31290.86">
        <lane id="-1155801229#2_0" index="0" allow="rail_urban" speed="16.67" length="168.94" shape="47.12,4881.69 58.70,4910.08 81.11,4958.29 84.14,4964.64 105.25,5008.95 119.05,5034.29"/>
    </edge>
    <edge id="-1155801230#0" from="559819225" to="10748539819" priority="19" type="railway.light_rail" spreadType="center" bidi="1155801230#0">
        <lane id="-1155801230#0_0" index="0" allow="rail_urban" speed="22.22" length="1.45" shape="46.57,4880.35 47.12,4881.69"/>
    </edge>
    <edge id="-1155801230#1" from="1135738966" to="559819225" priority="19" type="railway.light_rail" spreadType="center" shape="11.99,4385.44 7.38,4410.20 3.67,4442.08 1.13,4469.21 0.25,4489.12 0.00,4524.93 1.04,4560.96 5.33,4617.65 10.92,4684.38 15.26,4737.16 20.56,4780.72 25.38,4812.20 33.73,4842.20 44.41,4873.93 46.57,4880.35" bidi="1155801230#1">
        <lane id="-1155801230#1_0" index="0" allow="rail_urban" speed="22.22" length="500.21" shape="11.97,4385.56 7.38,4410.20 3.67,4442.08 1.13,4469.21 0.25,4489.12 0.00,4524.93 1.04,4560.96 5.33,4617.65 10.92,4684.38 15.26,4737.16 20.56,4780.72 25.38,4812.20 33.73,4842.20 44.41,4873.93 46.57,4880.35"/>
    </edge>
    <edge id="-1155804298#0" from="4531543099" to="10748548627" priority="19" type="railway.light_rail" spreadType="center" bidi="1155804298#0">
        <lane id="-1155804298#0_0" index="0" allow="rail_urban" speed="27.78" length="73.56" shape="4285.42,8041.90 4357.39,8055.62"/>
    </edge>
    <edge id="-1155804298#1" from="4531543098" to="4531543099" priority="19" type="railway.light_rail" spreadType="center" bidi="1155804298#1">
        <lane id="-1155804298#1_0" index="0" allow="rail_urban" speed="27.78" length="0.83" shape="4284.60,8041.74 4285.12,8041.85"/>
    </edge>
    <edge id="-1155847955#0" from="4264864761" to="10748887671" priority="19" type="railway.light_rail" spreadType="center" bidi="1155847955#0">
        <lane id="-1155847955#0_0" index="0" allow="rail_urban" speed="22.22" length="60.23" shape="12924.99,5867.34 12947.38,5811.59"/>
    </edge>
    <edge id="-1155847955#1" from="3787008857" to="4264864761" priority="19" type="railway.light_rail" spreadType="center" shape="12863.77,6018.28 12868.86,6004.19 12924.93,5867.47" bidi="1155847955#1">
        <lane id="-1155847955#1_0" index="0" allow="rail_urban" speed="22.22" length="162.74" shape="12863.82,6018.14 12868.86,6004.19 12924.87,5867.61"/>
    </edge>
    <edge id="-1155847956" from="9921606966" to="21385746" priority="19" type="railway.light_rail" spreadType="center" bidi="1155847956">
        <lane id="-1155847956_0" index="0" allow="rail_urban" speed="19.44" length="25.14" shape="12813.33,6171.31 12821.75,6147.89"/>
    </edge>
    <edge id="-1155847957#0" from="10732947153" to="4264708624" priority="19" type="railway.light_rail" spreadType="center" bidi="1155847957#0">
        <lane id="-1155847957#0_0" index="0" allow="rail_urban" speed="13.89" length="2.50" shape="12653.66,6370.60 12655.68,6369.39"/>
    </edge>
    <edge id="-1155847957#1" from="10748887672" to="10732947153" priority="19" type="railway.light_rail" spreadType="center" bidi="1155847957#1">
        <lane id="-1155847957#1_0" index="0" allow="rail_urban" speed="13.89" length="1.10" shape="12652.72,6371.17 12653.40,6370.76"/>
    </edge>
    <edge id="-1155847957#2" from="10748887673" to="10748887672" priority="19" type="railway.light_rail" spreadType="center" shape="12545.62,6423.90 12577.65,6410.56 12594.57,6402.88 12621.99,6389.62 12652.59,6371.25" bidi="1155847957#2">
        <lane id="-1155847957#2_0" index="0" allow="rail_urban" speed="13.89" length="119.43" shape="12545.76,6423.84 12577.65,6410.56 12594.57,6402.88 12621.99,6389.62 12652.46,6371.32"/>
    </edge>
    <edge id="-1155847959" from="10748887676" to="316786614" priority="19" type="railway.light_rail" spreadType="center" shape="12090.20,6654.93 12102.77,6646.75 12126.80,6632.01" bidi="1155847959">
        <lane id="-1155847959_0" index="0" allow="rail_urban" speed="22.22" length="43.19" shape="12090.33,6654.85 12102.77,6646.75 12126.71,6632.06"/>
    </edge>
    <edge id="-121421962#0" from="3672491287" to="1359442566" priority="19" type="railway.light_rail" spreadType="center" shape="12846.16,4465.58 12841.39,4457.61 12822.00,4425.95" bidi="121421962#0">
        <lane id="-121421962#0_0" index="0" allow="rail_urban" speed="22.22" length="46.41" shape="12846.08,4465.45 12841.39,4457.61 12822.00,4425.95"/>
    </edge>
    <edge id="-121421962#1" from="10731596951" to="3672491287" priority="19" type="railway.light_rail" spreadType="center" shape="12943.97,4625.46 12943.17,4624.15 12942.84,4623.60 12870.18,4504.50 12863.17,4493.22 12846.16,4465.58" bidi="121421962#1" distance="-12598.46">
        <lane id="-121421962#1_0" index="0" allow="rail_urban" speed="22.22" length="187.43" shape="12943.89,4625.34 12943.17,4624.15 12942.84,4623.60 12870.18,4504.50 12863.17,4493.22 12846.23,4465.70"/>
    </edge>
    <edge id="-121421962#2" from="10296033398" to="10731596951" priority="19" type="railway.light_rail" spreadType="center" bidi="121421962#2" distance="-12524.02">
        <lane id="-121421962#2_0" index="0" allow="rail_urban" speed="22.22" length="74.43" shape="12982.74,4689.00 12944.05,4625.59"/>
    </edge>
    <edge id="-121421962#3" from="310198582" to="10296033398" priority="19" type="railway.light_rail" spreadType="center" bidi="121421962#3" distance="-12505.03">
        <lane id="-121421962#3_0" index="0" allow="rail_urban" speed="22.22" length="19.00" shape="12992.56,4705.09 12982.74,4689.00"/>
    </edge>
    <edge id="-127025010" from="1359442566" to="1406769631" priority="19" type="railway.light_rail" spreadType="center" bidi="127025010">
        <lane id="-127025010_0" index="0" allow="rail_urban" speed="22.22" length="28.95" shape="12822.00,4425.95 12806.96,4401.39"/>
    </edge>
    <edge id="-127025011#0" from="6685372103" to="4264708618" priority="19" type="railway.light_rail" spreadType="center" bidi="127025011#0" distance="-13003.28">
        <lane id="-127025011#0_0" index="0" allow="rail_urban" speed="16.67" length="0.34" shape="12739.34,4271.31 12739.26,4271.12"/>
    </edge>
    <edge id="-127025011#1" from="6685372104" to="6685372103" priority="19" type="railway.light_rail" spreadType="center" shape="12772.64,4343.76 12762.56,4324.72 12750.34,4298.41 12742.82,4279.87 12740.63,4274.48 12739.40,4271.43" bidi="127025011#1" distance="-12929.44">
        <lane id="-127025011#1_0" index="0" allow="rail_urban" speed="16.67" length="79.66" shape="12772.58,4343.64 12762.56,4324.72 12750.34,4298.41 12742.82,4279.87 12740.63,4274.48 12739.44,4271.55"/>
    </edge>
    <edge id="-127025011#2" from="6669645396" to="6685372104" priority="19" type="railway.light_rail" spreadType="center" bidi="127025011#2" distance="-12928.71">
        <lane id="-127025011#2_0" index="0" allow="rail_urban" speed="16.67" length="0.73" shape="12772.93,4344.26 12772.71,4343.87"/>
    </edge>
    <edge id="-13252387" from="27554955" to="27554954" priority="19" type="railway.light_rail" spreadType="center" bidi="13252387">
        <lane id="-13252387_0" index="0" allow="rail_urban" speed="27.78" length="28.51" shape="10750.03,427.46 10722.46,421.43"/>
    </edge>
    <edge id="-13252388#0" from="6222911215" to="27554955" priority="19" type="railway.light_rail" spreadType="center" bidi="13252388#0">
        <lane id="-13252388#0_0" index="0" allow="rail_urban" speed="27.78" length="30.52" shape="10779.94,433.51 10750.31,427.52"/>
    </edge>
    <edge id="-13252388#1" from="3776974133" to="6222911215" priority="19" type="railway.light_rail" spreadType="center" shape="10926.31,466.24 10912.57,463.09 10824.40,443.04 10799.31,437.59 10780.08,433.54" bidi="13252388#1">
        <lane id="-13252388#1_0" index="0" allow="rail_urban" speed="27.78" length="149.85" shape="10926.17,466.20 10912.57,463.09 10824.40,443.04 10799.31,437.59 10780.23,433.57"/>
    </edge>
    <edge id="-13252388#2" from="27555336" to="3776974133" priority="19" type="railway.light_rail" spreadType="center" shape="10974.95,477.97 10943.86,470.20 10926.31,466.24" bidi="13252388#2">
        <lane id="-13252388#2_0" index="0" allow="rail_urban" speed="27.78" length="50.04" shape="10974.82,477.94 10943.86,470.20 10926.46,466.27"/>
    </edge>
    <edge id="-13252425#0" from="10729784797" to="26953362" priority="19" type="railway.light_rail" spreadType="center" shape="12035.00,2847.75 12034.62,2846.40 12028.99,2820.95 12021.52,2779.80" bidi="13252425#0">
        <lane id="-13252425#0_0" index="0" allow="rail_urban" speed="22.22" length="69.28" shape="12034.96,2847.60 12034.62,2846.40 12028.99,2820.95 12021.54,2779.94"/>
    </edge>
    <edge id="-13252425#1" from="10729784794" to="10729784797" priority="19" type="railway.light_rail" spreadType="center" shape="12052.85,2902.57 12040.73,2868.12 12035.00,2847.75" bidi="13252425#1">
        <lane id="-13252425#1_0" index="0" allow="rail_urban" speed="22.22" length="57.68" shape="12052.85,2902.57 12040.73,2868.12 12035.04,2847.89"/>
    </edge>
    <edge id="-13252425#2" from="320481193" to="10729784794" priority="19" type="railway.light_rail" spreadType="center" shape="12075.75,2959.57 12060.63,2923.35 12055.91,2911.27 12052.85,2902.57" bidi="13252425#2">
        <lane id="-13252425#2_0" index="0" allow="rail_urban" speed="22.22" length="61.45" shape="12075.70,2959.45 12060.63,2923.35 12055.91,2911.27 12052.85,2902.57"/>
    </edge>
    <edge id="-136703834#0" from="10729870568" to="261866764" priority="19" type="railway.light_rail" spreadType="center" bidi="136703834#0">
        <lane id="-136703834#0_0" index="0" allow="rail_urban" speed="22.22" length="8.22" shape="12133.41,3072.23 12128.90,3065.54"/>
        <param key="railway:track_ref" value="2"/>
    </edge>
    <edge id="-136703834#1" from="10729870567" to="10729870568" priority="19" type="railway.light_rail" spreadType="center" bidi="136703834#1">
        <lane id="-136703834#1_0" index="0" allow="rail_urban" speed="22.22" length="19.63" shape="12144.39,3088.51 12133.41,3072.23"/>
        <param key="railway:track_ref" value="2"/>
    </edge>
    <edge id="-136703834#2" from="10729870566" to="10729870567" priority="19" type="railway.light_rail" spreadType="center" bidi="136703834#2">
        <lane id="-136703834#2_0" index="0" allow="rail_urban" speed="22.22" length="24.82" shape="12158.26,3109.09 12144.39,3088.51"/>
        <param key="railway:track_ref" value="2"/>
    </edge>
    <edge id="-136703834#3" from="10729870565" to="10729870566" priority="19" type="railway.light_rail" spreadType="center" shape="12183.05,3150.01 12182.53,3149.10 12171.06,3129.37 12161.46,3113.84 12158.26,3109.09" bidi="136703834#3">
        <lane id="-136703834#3_0" index="0" allow="rail_urban" speed="22.22" length="47.86" shape="12183.05,3150.01 12182.53,3149.10 12171.06,3129.37 12161.46,3113.84 12158.26,3109.09"/>
        <param key="railway:track_ref" value="2"/>
    </edge>
    <edge id="-136703834#4" from="10729870564" to="10729870565" priority="19" type="railway.light_rail" spreadType="center" bidi="136703834#4">
        <lane id="-136703834#4_0" index="0" allow="rail_urban" speed="22.22" length="20.05" shape="12192.84,3167.34 12183.05,3150.01"/>
        <param key="railway:track_ref" value="2"/>
    </edge>
    <edge id="-136703834#5" from="9294648956" to="10729870564" priority="19" type="railway.light_rail" spreadType="center" shape="12210.17,3199.64 12200.09,3180.99 12194.74,3170.71 12192.91,3167.47" bidi="136703834#5">
        <lane id="-136703834#5_0" index="0" allow="rail_urban" speed="22.22" length="36.51" shape="12210.10,3199.51 12200.09,3180.99 12194.74,3170.71 12192.98,3167.60"/>
        <param key="railway:track_ref" value="2"/>
    </edge>
    <edge id="-136703834#6" from="9294648955" to="9294648956" priority="19" type="railway.light_rail" spreadType="center" bidi="136703834#6">
        <lane id="-136703834#6_0" index="0" allow="rail_urban" speed="22.22" length="5.60" shape="12212.75,3204.45 12210.24,3199.77"/>
        <param key="railway:track_ref" value="2"/>
    </edge>
    <edge id="-141176100" from="27554979" to="1545446244" priority="19" type="railway.light_rail" spreadType="center" bidi="141176100">
        <lane id="-141176100_0" index="0" allow="rail_urban" speed="27.78" length="81.04" shape="10034.10,266.81 9955.38,248.85"/>
    </edge>
    <edge id="-15245080" from="27587889" to="27587890" priority="19" type="railway.light_rail" spreadType="center" shape="282.83,7284.37 289.92,7288.39 297.95,7292.83 308.99,7298.19 322.02,7304.48 333.24,7309.61 345.60,7314.87 363.76,7322.22" bidi="15245080">
        <lane id="-15245080_0" index="0" allow="rail_urban" speed="22.22" length="89.43" shape="282.95,7284.43 289.92,7288.39 297.95,7292.83 308.99,7298.19 322.02,7304.48 333.24,7309.61 345.60,7314.87 363.63,7322.16"/>
    </edge>
    <edge id="-15245081" from="151026254" to="27587889" priority="19" type="railway.light_rail" spreadType="center" shape="153.96,6247.95 152.39,6258.93 150.31,6278.28 149.09,6288.27 137.72,6381.61 120.65,6525.30 117.24,6553.98 113.64,6583.10 106.91,6639.27 102.78,6673.60 98.78,6706.63 94.54,6742.90 91.60,6767.11 86.08,6812.69 80.86,6857.75 78.24,6886.27 77.26,6900.81 76.62,6916.15 76.14,6929.00 76.24,6943.58 76.72,6957.25 77.93,6972.55 79.18,6985.14 81.20,6999.00 83.76,7013.57 87.09,7029.10 91.99,7047.12 95.09,7057.40 97.30,7064.13 101.53,7075.84 105.90,7087.14 109.85,7096.61 113.43,7104.36 119.10,7116.03 124.38,7125.88 133.57,7141.91 140.87,7153.55 148.25,7164.40 155.37,7174.04 162.60,7183.41 168.44,7190.47 173.74,7196.60 180.61,7204.41 186.77,7211.05 191.51,7215.87 200.62,7224.66 208.84,7232.17 216.20,7238.56 225.16,7245.91 234.65,7253.23 243.05,7259.43 252.05,7265.71 263.86,7273.24 270.67,7277.57 276.75,7281.07 282.83,7284.37" bidi="15245081">
        <lane id="-15245081_0" index="0" allow="rail_urban" speed="22.22" length="1117.73" shape="153.95,6248.08 152.39,6258.93 150.31,6278.28 149.09,6288.27 137.72,6381.61 120.65,6525.30 117.24,6553.98 113.64,6583.10 106.91,6639.27 102.78,6673.60 98.78,6706.63 94.54,6742.90 91.60,6767.11 86.08,6812.69 80.86,6857.75 78.24,6886.27 77.26,6900.81 76.62,6916.15 76.14,6929.00 76.24,6943.58 76.72,6957.25 77.93,6972.55 79.18,6985.14 81.20,6999.00 83.76,7013.57 87.09,7029.10 91.99,7047.12 95.09,7057.40 97.30,7064.13 101.53,7075.84 105.90,7087.14 109.85,7096.61 113.43,7104.36 119.10,7116.03 124.38,7125.88 133.57,7141.91 140.87,7153.55 148.25,7164.40 155.37,7174.04 162.60,7183.41 168.44,7190.47 173.74,7196.60 180.61,7204.41 186.77,7211.05 191.51,7215.87 200.62,7224.66 208.84,7232.17 216.20,7238.56 225.16,7245.91 234.65,7253.23 243.05,7259.43 252.05,7265.71 263.86,7273.24 270.67,7277.57 276.75,7281.07 282.70,7284.30"/>
    </edge>
    <edge id="-154456590#0" from="3834380584" to="1409385367" priority="19" type="railway.light_rail" spreadType="center" bidi="154456590#0">
        <lane id="-154456590#0_0" index="0" allow="rail_urban" speed="22.22" length="7.36" shape="12674.92,4076.93 12672.91,4070.15"/>
        <param key="railway:track_ref" value="12"/>
    </edge>
    <edge id="-154456590#1" from="10294263637" to="3834380584" priority="19" type="railway.light_rail" spreadType="center" bidi="154456590#1">
        <lane id="-154456590#1_0" index="0" allow="rail_urban" speed="22.22" length="16.25" shape="12679.75,4092.45 12675.00,4077.21"/>
        <param key="railway:track_ref" value="12"/>
    </edge>
    <edge id="-154456590#2" from="1406769625" to="10294263637" priority="19" type="railway.light_rail" spreadType="center" shape="12727.27,4235.13 12722.32,4219.99 12679.80,4092.58" bidi="154456590#2">
        <lane id="-154456590#2_0" index="0" allow="rail_urban" speed="22.22" length="150.24" shape="12727.23,4235.00 12722.32,4219.99 12679.84,4092.71"/>
        <param key="railway:track_ref" value="12"/>
    </edge>
    <edge id="-155187886#0" from="4264679417" to="30206358" priority="19" type="railway.light_rail" spreadType="center" bidi="155187886#0">
        <lane id="-155187886#0_0" index="0" allow="rail_urban" speed="25.00" length="9.71" shape="7685.00,9414.37 7694.42,9414.67"/>
    </edge>
    <edge id="-155187886#1" from="4264679415" to="4264679417" priority="19" type="railway.light_rail" spreadType="center" bidi="155187886#1">
        <lane id="-155187886#1_0" index="0" allow="rail_urban" speed="25.00" length="88.26" shape="7596.64,9411.46 7684.70,9414.36"/>
    </edge>
    <edge id="-155187886#2" from="30206146" to="4264679415" priority="19" type="railway.light_rail" spreadType="center" shape="7481.16,9406.09 7510.32,9407.49 7534.50,9408.47 7587.57,9411.16 7596.64,9411.46" bidi="155187886#2">
        <lane id="-155187886#2_0" index="0" allow="rail_urban" speed="25.00" length="115.60" shape="7481.31,9406.10 7510.32,9407.49 7534.50,9408.47 7587.57,9411.16 7596.64,9411.46"/>
    </edge>
    <edge id="-155594940#0" from="10748342366" to="10748342367" priority="19" type="railway.light_rail" spreadType="center" bidi="155594940#0">
        <lane id="-155594940#0_0" index="0" allow="rail_urban" speed="22.22" length="2.31" shape="11091.83,503.92 11089.87,503.48"/>
    </edge>
    <edge id="-155594940#1" from="263568091" to="10748342366" priority="19" type="railway.light_rail" spreadType="center" shape="11455.78,586.01 11443.33,580.88 11431.65,576.61 11414.67,571.43 11394.93,566.27 11378.03,562.43 11361.62,559.14 11324.25,551.55 11287.44,544.23 11212.98,529.32 11182.89,523.26 11139.11,514.41 11091.98,503.95" bidi="155594940#1">
        <lane id="-155594940#1_0" index="0" allow="rail_urban" speed="22.22" length="373.36" shape="11455.78,586.01 11443.33,580.88 11431.65,576.61 11414.67,571.43 11394.93,566.27 11378.03,562.43 11361.62,559.14 11324.25,551.55 11287.44,544.23 11212.98,529.32 11182.89,523.26 11139.11,514.41 11092.12,503.99"/>
    </edge>
    <edge id="-180406884#0" from="5157041448" to="151026254" priority="19" type="railway.light_rail" spreadType="center" shape="158.69,6207.67 157.64,6215.91 153.96,6247.95" bidi="180406884#0">
        <lane id="-180406884#0_0" index="0" allow="rail_urban" speed="22.22" length="40.55" shape="158.69,6207.67 157.64,6215.91 153.98,6247.82"/>
    </edge>
    <edge id="-180406884#1" from="5157040684" to="5157041448" priority="19" type="railway.light_rail" spreadType="center" shape="168.20,6132.14 161.41,6186.32 158.69,6207.67" bidi="180406884#1">
        <lane id="-180406884#1_0" index="0" allow="rail_urban" speed="22.22" length="76.13" shape="168.20,6132.14 161.41,6186.32 158.69,6207.67"/>
    </edge>
    <edge id="-180406884#2" from="4946539231" to="5157040684" priority="19" type="railway.light_rail" spreadType="center" bidi="180406884#2">
        <lane id="-180406884#2_0" index="0" allow="rail_urban" speed="22.22" length="21.86" shape="170.90,6110.59 168.20,6132.14"/>
    </edge>