<?xml version="1.0" encoding="iso-8859-1"?>

<configuration xmlns:xsi="http://www.w3.org/2001/XMLSchema-instance" xsi:noNamespaceSchemaLocation="http://sumo.sf.net/xsd/sumoConfiguration.xsd">

    <input>
        <net-file value="nöt.net.xml"/>
        <route-files value="input_routes.rou.xml"/>
    </input>

    <gui_only>
        <gui-settings-file value=""/>
    </gui_only>

</configuration>
