<?xml version="1.0" encoding="UTF-8"?>

<!-- generated on 2025-12-03T15:43:43.992636+01:00 by Eclipse SUMO netedit v1_25_0+0312-f508c03ca92
This data file and the accompanying materials
are made available under the terms of the Eclipse Public License v2.0
which accompanies this distribution, and is available at
http://www.eclipse.org/legal/epl-v20.html
This file may also be made available under the following Secondary
Licenses when the conditions for such availability set forth in the Eclipse
Public License 2.0 are satisfied: GNU General Public License, version 2
or later which is available at
https://www.gnu.org/licenses/old-licenses/gpl-2.0-standalone.html
SPDX-License-Identifier: EPL-2.0 OR GPL-2.0-or-later
-->

<additional xmlns:xsi="http://www.w3.org/2001/XMLSchema-instance" xsi:noNamespaceSchemaLocation="http://sumo.dlr.de/xsd/additional_file.xsd">
    <!-- RouteProbes -->
    <routeProbe id="RouteProbeA" begin="0.00" period="3600.00" edge="EdgeCenter0" file="RouteProbeA.xml"/>
    <routeProbe id="customRouteProbeName" begin="0.00" period="3600.00" edge="Edge2" file="RouteProbeB.xml"/>
    <!-- Calibrators -->
    <calibrator id="calibratorA" name="NameA" lane="Edge0_1" pos="21.36" period="30.00" output="fileA.txt" routeProbe="RouteProbeA" vTypes="type1 type2">
        <param key="KeyA1" value="valueA1"/>
        <param key="KeyA2" value="valueA3"/>
        <param key="KeyA3" value="valueA2"/>
    </calibrator>
</additional>
