<?xml version="1.0" encoding="UTF-8"?>

<!-- generated on 2022-04-08 13:11:10 by Eclipse SUMO netedit Version v1_12_0+2061-ece7e36bc2d
-->

<routes xmlns:xsi="http://www.w3.org/2001/XMLSchema-instance" xsi:noNamespaceSchemaLocation="http://sumo.dlr.de/xsd/routes_file.xsd">
    <!-- Vehicles, persons and containers (sorted by depart) -->
    <flow id="flow_6" begin="0.00" from="gneE2" to="gneE5" end="100.00" period="exp(2.30)"/>
    <flow id="flow_7" begin="0.00" from="gneE2" to="gneE5" end="100.00" period="exp(1.70)"/>
</routes>
