<?xml version="1.0" encoding="UTF-8"?>

<!-- generated on 2022-03-04 10:57:21 by Eclipse SUMO netedit Version v1_12_0+1137-e9106068858
-->

<additional xmlns:xsi="http://www.w3.org/2001/XMLSchema-instance" xsi:noNamespaceSchemaLocation="http://sumo.dlr.de/xsd/additional_file.xsd">
    <!-- Shapes -->
    <poly id="poly_0" color="red" fill="0" lineWidth="2.50" layer="128.00" shape="12.000000,8.000000 12.000000,18.000000 2.000000,18.000000 2.000000,8.000000 12.000000,8.000000"/>
    <poly id="poly_1" color="red" fill="0" lineWidth="2.50" layer="64.00" shape="32.000000,8.000000 32.000000,18.000000 22.000000,18.000000 22.000000,8.000000 32.000000,8.000000"/>
</additional>
