<?xml version="1.0" encoding="UTF-8"?>

<!-- generated on Tue Feb 25 12:11:25 2014 by SUMO netconvert Version dev-SVN-r15728
<?xml version="1.0" encoding="UTF-8"?>

<configuration xmlns:xsi="http://www.w3.org/2001/XMLSchema-instance" xsi:noNamespaceSchemaLocation="http://sumo-sim.org/xsd/netconvertConfiguration.xsd">

    <input>
        <node-files value="input_nodes.nod.xml"/>
        <edge-files value="input_edges.edg.xml"/>
    </input>

    <output>
        <output-file value="net.net.xml"/>
    </output>

    <processing>
        <speed-in-kmh value="true"/>
        <lefthand value="true"/>
    </processing>

    <report>
        <xml-validation value="never"/>
    </report>

</configuration>
-->

<net version="0.13" xmlns:xsi="http://www.w3.org/2001/XMLSchema-instance" xsi:noNamespaceSchemaLocation="http://sumo-sim.org/xsd/net_file.xsd">

    <location netOffset="500.00,500.00" convBoundary="0.00,0.00,1000.00,1000.00" origBoundary="-500.00,-500.00,500.00,500.00" projParameter="!"/>

    <edge id=":0_0" function="internal">
        <lane id=":0_0_0" index="0" speed="12.50" length="8.73" shape="508.25,500.00 507.73,500.72 506.19,501.24 503.61,501.55 500.00,501.65"/>
    </edge>
    <edge id=":0_1" function="internal">
        <lane id=":0_1_0" index="0" speed="12.50" length="3.30" shape="504.95,500.00 501.65,500.00"/>
    </edge>
    <edge id=":0_2" function="internal">
        <lane id=":0_2_0" index="0" speed="12.50" length="2.66" shape="501.65,500.00 501.55,499.28 501.24,498.76 500.72,498.45 500.00,498.35"/>
    </edge>
    <edge id=":0_3" function="internal">
        <lane id=":0_3_0" index="0" speed="12.50" length="2.41" shape="501.65,500.00 500.82,501.24 500.00,501.65"/>
    </edge>
    <edge id=":0_16" function="internal">
        <lane id=":0_16_0" index="0" speed="12.50" length="2.41" shape="500.00,501.65 499.18,501.24 498.35,500.00"/>
    </edge>
    <edge id=":0_4" function="internal">
        <lane id=":0_4_0" index="0" speed="12.50" length="8.73" shape="500.00,491.75 500.72,492.27 501.24,493.81 501.55,496.39 501.65,500.00"/>
    </edge>
    <edge id=":0_5" function="internal">
        <lane id=":0_5_0" index="0" speed="12.50" length="3.30" shape="500.00,495.05 500.00,498.35"/>
    </edge>
    <edge id=":0_6" function="internal">
        <lane id=":0_6_0" index="0" speed="12.50" length="2.66" shape="500.00,498.35 499.28,498.45 498.76,498.76 498.45,499.28 498.35,500.00"/>
    </edge>
    <edge id=":0_7" function="internal">
        <lane id=":0_7_0" index="0" speed="12.50" length="4.82" shape="500.00,498.35 501.24,499.18 501.65,500.00 501.24,500.82 500.00,501.65"/>
    </edge>
    <edge id=":0_8" function="internal">
        <lane id=":0_8_0" index="0" speed="12.50" length="8.73" shape="491.75,500.00 492.27,499.28 493.81,498.76 496.39,498.45 500.00,498.35"/>
    </edge>
    <edge id=":0_9" function="internal">
        <lane id=":0_9_0" index="0" speed="12.50" length="3.30" shape="495.05,500.00 498.35,500.00"/>
    </edge>
    <edge id=":0_10" function="internal">
        <lane id=":0_10_0" index="0" speed="12.50" length="2.66" shape="498.35,500.00 498.45,500.72 498.76,501.24 499.28,501.55 500.00,501.65"/>
    </edge>
    <edge id=":0_11" function="internal">
        <lane id=":0_11_0" index="0" speed="12.50" length="2.41" shape="498.35,500.00 499.18,498.76 500.00,498.35"/>
    </edge>
    <edge id=":0_17" function="internal">
        <lane id=":0_17_0" index="0" speed="12.50" length="2.41" shape="500.00,498.35 500.82,498.76 501.65,500.00"/>
    </edge>
    <edge id=":0_12" function="internal">
        <lane id=":0_12_0" index="0" speed="12.50" length="8.73" shape="500.00,508.25 499.28,507.73 498.76,506.19 498.45,503.61 498.35,500.00"/>
    </edge>
    <edge id=":0_13" function="internal">
        <lane id=":0_13_0" index="0" speed="12.50" length="3.30" shape="500.00,504.95 500.00,501.65"/>
    </edge>
    <edge id=":0_14" function="internal">
        <lane id=":0_14_0" index="0" speed="12.50" length="2.66" shape="500.00,501.65 500.72,501.55 501.24,501.24 501.55,500.72 501.65,500.00"/>
    </edge>
    <edge id=":0_15" function="internal">
        <lane id=":0_15_0" index="0" speed="12.50" length="4.82" shape="500.00,501.65 498.76,500.82 498.35,500.00 498.76,499.18 500.00,498.35"/>
    </edge>
    <edge id=":1_0" function="internal">
        <lane id=":1_0_0" index="0" speed="11.11" length="4.82" shape="0.00,498.35 1.24,499.18 1.65,500.00 1.24,500.82 0.00,501.65"/>
    </edge>
    <edge id=":2_0" function="internal">
        <lane id=":2_0_0" index="0" speed="11.11" length="4.82" shape="1000.00,501.65 998.76,500.82 998.35,500.00 998.76,499.18 1000.00,498.35"/>
    </edge>
    <edge id=":3_0" function="internal">
        <lane id=":3_0_0" index="0" speed="11.11" length="4.82" shape="501.65,0.00 500.82,1.24 500.00,1.65 499.18,1.24 498.35,0.00"/>
    </edge>
    <edge id=":4_0" function="internal">
        <lane id=":4_0_0" index="0" speed="11.11" length="4.82" shape="498.35,1000.00 499.18,998.76 500.00,998.35 500.82,998.76 501.65,1000.00"/>
    </edge>
    <edge id=":m1_0" function="internal">
        <lane id=":m1_0_0" index="0" speed="12.50" length="3.49" shape="248.50,504.95 251.50,508.25"/>
        <lane id=":m1_0_1" index="1" speed="12.50" length="3.49" shape="248.50,504.95 251.50,504.95"/>
        <lane id=":m1_0_2" index="2" speed="12.50" length="3.49" shape="248.50,501.65 251.50,501.65"/>
    </edge>
    <edge id=":m2_0" function="internal">
        <lane id=":m2_0_0" index="0" speed="12.50" length="3.49" shape="751.50,495.05 748.50,491.75"/>
        <lane id=":m2_0_1" index="1" speed="12.50" length="3.49" shape="751.50,495.05 748.50,495.05"/>
        <lane id=":m2_0_2" index="2" speed="12.50" length="3.49" shape="751.50,498.35 748.50,498.35"/>
    </edge>
    <edge id=":m3_0" function="internal">
        <lane id=":m3_0_0" index="0" speed="12.50" length="3.49" shape="495.05,248.50 491.75,251.50"/>
        <lane id=":m3_0_1" index="1" speed="12.50" length="3.49" shape="495.05,248.50 495.05,251.50"/>
        <lane id=":m3_0_2" index="2" speed="12.50" length="3.49" shape="498.35,248.50 498.35,251.50"/>
    </edge>
    <edge id=":m4_0" function="internal">
        <lane id=":m4_0_0" index="0" speed="12.50" length="3.49" shape="504.95,751.50 508.25,748.50"/>
        <lane id=":m4_0_1" index="1" speed="12.50" length="3.49" shape="504.95,751.50 504.95,748.50"/>
        <lane id=":m4_0_2" index="2" speed="12.50" length="3.49" shape="501.65,751.50 501.65,748.50"/>
    </edge>

    <edge id="1fi" from="1" to="m1" priority="2">
        <lane id="1fi_0" index="0" speed="11.11" length="248.50" shape="0.00,504.95 248.50,504.95"/>
        <lane id="1fi_1" index="1" speed="11.11" length="248.50" shape="0.00,501.65 248.50,501.65"/>
    </edge>
    <edge id="1o" from="0" to="1" priority="1">
        <lane id="1o_0" index="0" speed="11.11" length="500.00" shape="500.00,498.35 0.00,498.35"/>
    </edge>
    <edge id="1si" from="m1" to="0" priority="3">
        <lane id="1si_0" index="0" speed="13.89" length="248.50" shape="251.50,508.25 500.00,508.25"/>
        <lane id="1si_1" index="1" speed="13.89" length="248.50" shape="251.50,504.95 500.00,504.95"/>
        <lane id="1si_2" index="2" speed="13.89" length="248.50" shape="251.50,501.65 500.00,501.65"/>
    </edge>
    <edge id="2fi" from="2" to="m2" priority="2">
        <lane id="2fi_0" index="0" speed="11.11" length="248.50" shape="1000.00,495.05 751.50,495.05"/>
        <lane id="2fi_1" index="1" speed="11.11" length="248.50" shape="1000.00,498.35 751.50,498.35"/>
    </edge>
    <edge id="2o" from="0" to="2" priority="1">
        <lane id="2o_0" index="0" speed="11.11" length="500.00" shape="500.00,501.65 1000.00,501.65"/>
    </edge>
    <edge id="2si" from="m2" to="0" priority="3">
        <lane id="2si_0" index="0" speed="13.89" length="248.50" shape="748.50,491.75 500.00,491.75"/>
        <lane id="2si_1" index="1" speed="13.89" length="248.50" shape="748.50,495.05 500.00,495.05"/>
        <lane id="2si_2" index="2" speed="13.89" length="248.50" shape="748.50,498.35 500.00,498.35"/>
    </edge>
    <edge id="3fi" from="3" to="m3" priority="2">
        <lane id="3fi_0" index="0" speed="11.11" length="248.50" shape="495.05,0.00 495.05,248.50"/>
        <lane id="3fi_1" index="1" speed="11.11" length="248.50" shape="498.35,0.00 498.35,248.50"/>
    </edge>
    <edge id="3o" from="0" to="3" priority="1">
        <lane id="3o_0" index="0" speed="11.11" length="500.00" shape="501.65,500.00 501.65,0.00"/>
    </edge>
    <edge id="3si" from="m3" to="0" priority="3">
        <lane id="3si_0" index="0" speed="13.89" length="248.50" shape="491.75,251.50 491.75,500.00"/>
        <lane id="3si_1" index="1" speed="13.89" length="248.50" shape="495.05,251.50 495.05,500.00"/>
        <lane id="3si_2" index="2" speed="13.89" length="248.50" shape="498.35,251.50 498.35,500.00"/>
    </edge>
    <edge id="4fi" from="4" to="m4" priority="2">
        <lane id="4fi_0" index="0" speed="11.11" length="248.50" shape="504.95,1000.00 504.95,751.50"/>
        <lane id="4fi_1" index="1" speed="11.11" length="248.50" shape="501.65,1000.00 501.65,751.50"/>
    </edge>
    <edge id="4o" from="0" to="4" priority="1">
        <lane id="4o_0" index="0" speed="11.11" length="500.00" shape="498.35,500.00 498.35,1000.00"/>
    </edge>
    <edge id="4si" from="m4" to="0" priority="3">
        <lane id="4si_0" index="0" speed="13.89" length="248.50" shape="508.25,748.50 508.25,500.00"/>
        <lane id="4si_1" index="1" speed="13.89" length="248.50" shape="504.95,748.50 504.95,500.00"/>
        <lane id="4si_2" index="2" speed="13.89" length="248.50" shape="501.65,748.50 501.65,500.00"/>
    </edge>

    <junction id="0" type="priority" x="500.00" y="500.00" incLanes="4si_0 4si_1 4si_2 2si_0 2si_1 2si_2 3si_0 3si_1 3si_2 1si_0 1si_1 1si_2" intLanes=":0_0_0 :0_1_0 :0_2_0 :0_16_0 :0_4_0 :0_5_0 :0_6_0 :0_7_0 :0_8_0 :0_9_0 :0_10_0 :0_17_0 :0_12_0 :0_13_0 :0_14_0 :0_15_0" shape="500.05,501.45 501.45,499.95 499.95,498.55 498.55,500.05">
        <request index="0" response="0000000000001110" foes="0010010010001110" cont="0"/>
        <request index="1" response="0000000000001100" foes="0110110001111100" cont="0"/>
        <request index="2" response="0000001100000000" foes="1110001101100000" cont="0"/>
        <request index="3" response="0001001001000000" foes="0001001001000000" cont="1"/>
        <request index="4" response="0000000011100010" foes="0100100011100010" cont="0"/>
        <request index="5" response="0000011111000110" foes="1100011111000110" cont="0"/>
        <request index="6" response="0011011000000110" foes="0011011000001110" cont="0"/>
        <request index="7" response="0010010000000001" foes="0010010000000001" cont="0"/>
        <request index="8" response="0000111000000000" foes="1000111000100100" cont="0"/>
        <request index="9" response="0000110000000000" foes="0111110001101100" cont="0"/>
        <request index="10" response="0000000000000011" foes="0110000011100011" cont="0"/>
        <request index="11" response="0100000000010010" foes="0100000000010010" cont="1"/>
        <request index="12" response="1110001000000000" foes="1110001001001000" cont="0"/>
        <request index="13" response="1100011000000111" foes="1100011011000111" cont="0"/>
        <request index="14" response="0000011000110110" foes="0000111000110110" cont="0"/>
        <request index="15" response="0000000100100100" foes="0000000100100100" cont="0"/>
    </junction>
    <junction id="1" type="priority" x="0.00" y="500.00" incLanes="1o_0" intLanes=":1_0_0" shape="-0.00,499.95 -0.00,496.75 0.00,506.55 0.00,500.05">
        <request index="0" response="0" foes="0" cont="0"/>
    </junction>
    <junction id="2" type="priority" x="1000.00" y="500.00" incLanes="2o_0" intLanes=":2_0_0" shape="1000.00,500.05 1000.00,503.25 1000.00,493.45 1000.00,499.95">
        <request index="0" response="0" foes="0" cont="0"/>
    </junction>
    <junction id="3" type="priority" x="500.00" y="0.00" incLanes="3o_0" intLanes=":3_0_0" shape="500.05,-0.00 503.25,-0.00 493.45,0.00 499.95,0.00">
        <request index="0" response="0" foes="0" cont="0"/>
    </junction>
    <junction id="4" type="priority" x="500.00" y="1000.00" incLanes="4o_0" intLanes=":4_0_0" shape="499.95,1000.00 496.75,1000.00 506.55,1000.00 500.05,1000.00">
        <request index="0" response="0" foes="0" cont="0"/>
    </junction>
    <junction id="m1" type="priority" x="250.00" y="500.00" incLanes="1fi_0 1fi_1" intLanes=":m1_0_0 :m1_0_1 :m1_0_2" shape="251.50,509.85 251.50,500.05 248.50,500.05 248.50,506.55">
        <request index="0" response="100" foes="100" cont="0"/>
        <request index="1" response="100" foes="100" cont="0"/>
        <request index="2" response="000" foes="000" cont="0"/>
    </junction>
    <junction id="m2" type="priority" x="750.00" y="500.00" incLanes="2fi_0 2fi_1" intLanes=":m2_0_0 :m2_0_1 :m2_0_2" shape="751.50,499.95 751.50,493.45 748.50,490.15 748.50,499.95">
        <request index="0" response="100" foes="100" cont="0"/>
        <request index="1" response="100" foes="100" cont="0"/>
        <request index="2" response="000" foes="000" cont="0"/>
    </junction>
    <junction id="m3" type="priority" x="500.00" y="250.00" incLanes="3fi_0 3fi_1" intLanes=":m3_0_0 :m3_0_1 :m3_0_2" shape="490.15,251.50 499.95,251.50 499.95,248.50 493.45,248.50">
        <request index="0" response="100" foes="100" cont="0"/>
        <request index="1" response="100" foes="100" cont="0"/>
        <request index="2" response="000" foes="000" cont="0"/>
    </junction>
    <junction id="m4" type="priority" x="500.00" y="750.00" incLanes="4fi_0 4fi_1" intLanes=":m4_0_0 :m4_0_1 :m4_0_2" shape="500.05,751.50 506.55,751.50 509.85,748.50 500.05,748.50">
        <request index="0" response="100" foes="100" cont="0"/>
        <request index="1" response="100" foes="100" cont="0"/>
        <request index="2" response="000" foes="000" cont="0"/>
    </junction>

    <junction id=":0_16_0" type="internal" x="500.00" y="501.65" incLanes=":0_3_0 1si_0 2si_2 3si_1" intLanes=":0_6_0 :0_9_0 :0_12_0"/>
    <junction id=":0_17_0" type="internal" x="500.00" y="498.35" incLanes=":0_11_0 1si_2 2si_0 4si_1" intLanes=":0_1_0 :0_4_0 :0_14_0"/>

    <connection from="1fi" to="1si" fromLane="0" toLane="0" via=":m1_0_0" dir="s" state="M"/>
    <connection from="1fi" to="1si" fromLane="0" toLane="1" via=":m1_0_1" dir="s" state="M"/>
    <connection from="1fi" to="1si" fromLane="1" toLane="2" via=":m1_0_2" dir="s" state="M"/>
    <connection from="1o" to="1fi" fromLane="0" toLane="1" via=":1_0_0" dir="t" state="M"/>
    <connection from="1si" to="4o" fromLane="0" toLane="0" via=":0_12_0" dir="l" state="m"/>
    <connection from="1si" to="2o" fromLane="1" toLane="0" via=":0_13_0" dir="s" state="m"/>
    <connection from="1si" to="3o" fromLane="2" toLane="0" via=":0_14_0" dir="R" state="m"/>
    <connection from="1si" to="1o" fromLane="2" toLane="0" via=":0_15_0" dir="t" state="m"/>
    <connection from="2fi" to="2si" fromLane="0" toLane="0" via=":m2_0_0" dir="s" state="M"/>
    <connection from="2fi" to="2si" fromLane="0" toLane="1" via=":m2_0_1" dir="s" state="M"/>
    <connection from="2fi" to="2si" fromLane="1" toLane="2" via=":m2_0_2" dir="s" state="M"/>
    <connection from="2o" to="2fi" fromLane="0" toLane="1" via=":2_0_0" dir="t" state="M"/>
    <connection from="2si" to="3o" fromLane="0" toLane="0" via=":0_4_0" dir="l" state="m"/>
    <connection from="2si" to="1o" fromLane="1" toLane="0" via=":0_5_0" dir="s" state="m"/>
    <connection from="2si" to="4o" fromLane="2" toLane="0" via=":0_6_0" dir="R" state="m"/>
    <connection from="2si" to="2o" fromLane="2" toLane="0" via=":0_7_0" dir="t" state="m"/>
    <connection from="3fi" to="3si" fromLane="0" toLane="0" via=":m3_0_0" dir="s" state="M"/>
    <connection from="3fi" to="3si" fromLane="0" toLane="1" via=":m3_0_1" dir="s" state="M"/>
    <connection from="3fi" to="3si" fromLane="1" toLane="2" via=":m3_0_2" dir="s" state="M"/>
    <connection from="3o" to="3fi" fromLane="0" toLane="1" via=":3_0_0" dir="t" state="M"/>
    <connection from="3si" to="1o" fromLane="0" toLane="0" via=":0_8_0" dir="l" state="M"/>
    <connection from="3si" to="4o" fromLane="1" toLane="0" via=":0_9_0" dir="s" state="M"/>
    <connection from="3si" to="2o" fromLane="2" toLane="0" via=":0_10_0" dir="R" state="m"/>
    <connection from="3si" to="3o" fromLane="2" toLane="0" via=":0_11_0" dir="t" state="m"/>
    <connection from="4fi" to="4si" fromLane="0" toLane="0" via=":m4_0_0" dir="s" state="M"/>
    <connection from="4fi" to="4si" fromLane="0" toLane="1" via=":m4_0_1" dir="s" state="M"/>
    <connection from="4fi" to="4si" fromLane="1" toLane="2" via=":m4_0_2" dir="s" state="M"/>
    <connection from="4o" to="4fi" fromLane="0" toLane="1" via=":4_0_0" dir="t" state="M"/>
    <connection from="4si" to="2o" fromLane="0" toLane="0" via=":0_0_0" dir="l" state="M"/>
    <connection from="4si" to="3o" fromLane="1" toLane="0" via=":0_1_0" dir="s" state="M"/>
    <connection from="4si" to="1o" fromLane="2" toLane="0" via=":0_2_0" dir="R" state="m"/>
    <connection from="4si" to="4o" fromLane="2" toLane="0" via=":0_3_0" dir="t" state="m"/>

    <connection from=":0_0" to="2o" fromLane="0" toLane="0" dir="s" state="M"/>
    <connection from=":0_1" to="3o" fromLane="0" toLane="0" dir="s" state="M"/>
    <connection from=":0_2" to="1o" fromLane="0" toLane="0" dir="s" state="M"/>
    <connection from=":0_3" to="4o" fromLane="0" toLane="0" via=":0_16_0" dir="s" state="m"/>
    <connection from=":0_16" to="4o" fromLane="0" toLane="0" dir="s" state="M"/>
    <connection from=":0_4" to="3o" fromLane="0" toLane="0" dir="s" state="M"/>
    <connection from=":0_5" to="1o" fromLane="0" toLane="0" dir="s" state="M"/>
    <connection from=":0_6" to="4o" fromLane="0" toLane="0" dir="s" state="M"/>
    <connection from=":0_7" to="2o" fromLane="0" toLane="0" dir="s" state="M"/>
    <connection from=":0_8" to="1o" fromLane="0" toLane="0" dir="s" state="M"/>
    <connection from=":0_9" to="4o" fromLane="0" toLane="0" dir="s" state="M"/>
    <connection from=":0_10" to="2o" fromLane="0" toLane="0" dir="s" state="M"/>
    <connection from=":0_11" to="3o" fromLane="0" toLane="0" via=":0_17_0" dir="s" state="m"/>
    <connection from=":0_17" to="3o" fromLane="0" toLane="0" dir="s" state="M"/>
    <connection from=":0_12" to="4o" fromLane="0" toLane="0" dir="s" state="M"/>
    <connection from=":0_13" to="2o" fromLane="0" toLane="0" dir="s" state="M"/>
    <connection from=":0_14" to="3o" fromLane="0" toLane="0" dir="s" state="M"/>
    <connection from=":0_15" to="1o" fromLane="0" toLane="0" dir="s" state="M"/>
    <connection from=":1_0" to="1fi" fromLane="0" toLane="1" dir="s" state="M"/>
    <connection from=":2_0" to="2fi" fromLane="0" toLane="1" dir="s" state="M"/>
    <connection from=":3_0" to="3fi" fromLane="0" toLane="1" dir="s" state="M"/>
    <connection from=":4_0" to="4fi" fromLane="0" toLane="1" dir="s" state="M"/>
    <connection from=":m1_0" to="1si" fromLane="0" toLane="0" dir="s" state="M"/>
    <connection from=":m1_0" to="1si" fromLane="1" toLane="1" dir="s" state="M"/>
    <connection from=":m1_0" to="1si" fromLane="2" toLane="2" dir="s" state="M"/>
    <connection from=":m2_0" to="2si" fromLane="0" toLane="0" dir="s" state="M"/>
    <connection from=":m2_0" to="2si" fromLane="1" toLane="1" dir="s" state="M"/>
    <connection from=":m2_0" to="2si" fromLane="2" toLane="2" dir="s" state="M"/>
    <connection from=":m3_0" to="3si" fromLane="0" toLane="0" dir="s" state="M"/>
    <connection from=":m3_0" to="3si" fromLane="1" toLane="1" dir="s" state="M"/>
    <connection from=":m3_0" to="3si" fromLane="2" toLane="2" dir="s" state="M"/>
    <connection from=":m4_0" to="4si" fromLane="0" toLane="0" dir="s" state="M"/>
    <connection from=":m4_0" to="4si" fromLane="1" toLane="1" dir="s" state="M"/>
    <connection from=":m4_0" to="4si" fromLane="2" toLane="2" dir="s" state="M"/>

</net>
