<?xml version="1.0" encoding="UTF-8"?>

<!-- generated on 2024-07-10 09:43:32 by Eclipse SUMO netedit Version v1_20_0+1142-6d00dbf5efa
-->

<routes xmlns:xsi="http://www.w3.org/2001/XMLSchema-instance" xsi:noNamespaceSchemaLocation="http://sumo.dlr.de/xsd/routes_file.xsd">
    <!-- Vehicles, persons and containers (sorted by depart) -->
    <person id="p_0" depart="0.00">
        <walk from="WC" to="CE"/>
    </person>
    <person id="p_1" depart="0.00">
        <walk from="CE" to="WC"/>
    </person>
</routes>
