<?xml version="1.0" encoding="UTF-8"?>

<!-- generated on 2021-09-16 11:03:41 by Eclipse SUMO netedit Version v1_10_0+0721-94326db740
<configuration xmlns:xsi="http://www.w3.org/2001/XMLSchema-instance" xsi:noNamespaceSchemaLocation="http://sumo.dlr.de/xsd/netconvertConfiguration.xsd">

    <input>
        <sumo-net-file value="C:\Users\SUMO-Test\.texttest\tmp\netedit.gui.16Sep101129.5652\netedit.gui\demandElements\trip\load\arrivalSpeed\input_net.net.xml"/>
    </input>

    <output>
        <output-file value="C:\Users\SUMO-Test\.texttest\tmp\netedit.gui.16Sep101129.5652\netedit.gui\demandElements\trip\load\arrivalSpeed\net.net.xml"/>
    </output>

    <processing>
        <geometry.min-radius.fix.railways value="false"/>
        <geometry.max-grade.fix value="false"/>
        <offset.disable-normalization value="true"/>
        <lefthand value="false"/>
    </processing>

    <junctions>
        <no-turnarounds value="true"/>
        <junctions.corner-detail value="5"/>
        <junctions.limit-turn-speed value="5.5"/>
        <rectangular-lane-cut value="false"/>
    </junctions>

    <pedestrian>
        <walkingareas value="false"/>
    </pedestrian>

    <netedit>
        <additional-files value="C:\Users\SUMO-Test\.texttest\tmp\netedit.gui.16Sep101129.5652\netedit.gui\demandElements\trip\load\arrivalSpeed\additionals.xml"/>
        <additionals-output value="C:\Users\SUMO-Test\.texttest\tmp\netedit.gui.16Sep101129.5652\netedit.gui\demandElements\trip\load\arrivalSpeed\additionals.xml"/>
        <route-files value="C:\Users\SUMO-Test\.texttest\tmp\netedit.gui.16Sep101129.5652\netedit.gui\demandElements\trip\load\arrivalSpeed\routes.xml"/>
        <demandelements-output value="C:\Users\SUMO-Test\.texttest\tmp\netedit.gui.16Sep101129.5652\netedit.gui\demandElements\trip\load\arrivalSpeed\routes.xml"/>
        <data-files value="C:\Users\SUMO-Test\.texttest\tmp\netedit.gui.16Sep101129.5652\netedit.gui\demandElements\trip\load\arrivalSpeed\datas.xml"/>
        <dataelements-output value="C:\Users\SUMO-Test\.texttest\tmp\netedit.gui.16Sep101129.5652\netedit.gui\demandElements\trip\load\arrivalSpeed\datas.xml"/>
    </netedit>

    <visualisation>
        <gui-settings-file value="C:\Users\SUMO-Test\.texttest\tmp\netedit.gui.16Sep101129.5652\netedit.gui\demandElements\trip\load\arrivalSpeed\gui-settings.xml"/>
        <window-size value="936,697"/>
        <window-pos value="50,50"/>
        <gui-testing value="true"/>
        <gui-testing-debug value="true"/>
        <gui-testing-debug-gl value="true"/>
        <gui-testing.setting-output value="C:\Users\SUMO-Test\.texttest\tmp\netedit.gui.16Sep101129.5652\netedit.gui\demandElements\trip\load\arrivalSpeed\guisettingsoutput.xml"/>
    </visualisation>

    <report>
        <no-warnings value="true"/>
        <aggregate-warnings value="5"/>
        <error-log value="C:\Users\SUMO-Test\.texttest\tmp\netedit.gui.16Sep101129.5652\netedit.gui\demandElements\trip\load\arrivalSpeed\log.txt"/>
    </report>

</configuration>
-->

<routes xmlns:xsi="http://www.w3.org/2001/XMLSchema-instance" xsi:noNamespaceSchemaLocation="http://sumo.dlr.de/xsd/routes_file.xsd">
    <trip id="trip_2" depart="20.00" arrivalSpeed="0.00" fromJunction="gneJ4" toJunction="gneJ7"/>
    <trip id="trip_3" depart="20.00" arrivalSpeed="500.00" fromJunction="gneJ4" toJunction="gneJ7"/>
    <trip id="trip_4" depart="20.00" arrivalSpeed="1.00" fromJunction="gneJ4" toJunction="gneJ7"/>
    <trip id="trip_5" depart="20.00" arrivalSpeed="current" fromJunction="gneJ4" toJunction="gneJ7"/>
</routes>
