<?xml version="1.0" encoding="UTF-8"?>

<!-- generated on 2026-04-17T10:28:12.051714+01:00 by Eclipse SUMO sumo v1_26_0+1238-9348d776a1c
This data file and the accompanying materials
are made available under the terms of the Eclipse Public License v2.0
which accompanies this distribution, and is available at
http://www.eclipse.org/legal/epl-v20.html
This file may also be made available under the following Secondary
Licenses when the conditions for such availability set forth in the Eclipse
Public License 2.0 are satisfied: GNU General Public License, version 2
or later which is available at
https://www.gnu.org/licenses/old-licenses/gpl-2.0-standalone.html
SPDX-License-Identifier: EPL-2.0 OR GPL-2.0-or-later
<sumoConfiguration xmlns:xsi="http://www.w3.org/2001/XMLSchema-instance" xsi:noNamespaceSchemaLocation="http://sumo.dlr.de/xsd/sumoConfiguration.xsd">

    <input>
        <net-file value="net.net.xml"/>
        <route-files value="input_routes.rou.xml"/>
    </input>

    <output>
        <write-license value="true"/>
        <save-state.times value="10"/>
        <save-state.files value="state.xml"/>
    </output>

    <processing>
        <default.departspeed value="0"/>
        <default.departlane value="first"/>
        <default.speeddev value="0"/>
    </processing>

    <report>
        <verbose value="true"/>
        <xml-validation value="never"/>
        <duration-log.disable value="true"/>
        <no-step-log value="true"/>
    </report>

    <mesoscopic>
        <mesosim value="true"/>
    </mesoscopic>

</sumoConfiguration>
-->

<snapshot type="meso" version="v1_26_0+1238-9348d776a1c" time="10.00" xmlns:xsi="http://www.w3.org/2001/XMLSchema-instance" xsi:noNamespaceSchemaLocation="http://sumo.dlr.de/xsd/state_file.xsd">
    <route id="r0" state="1" edges="beg middle end"/>
    <delay number="1" begin="1" end="0" depart="0.00" time="0.00" speedFactor="1.00" decel="4.50"/>
    <vType id="t0" sigma="0"/>
    <vehicle id="v0" type="t0" depart="0.00" route="r0" distance="0 0" speedFactor="1.0000" state="2050 0 0 0 0 0 12000 0 9223372036854774807 1 0">
        <stop edge="beg" until="5.00" started="0.00" ended="3.00"/>
    </vehicle>
    <segment id="beg:0">
        <vehicles time="-1" blockTime="-9223372036854775808" value="v0"/>
    </segment>
</snapshot>
