<?xml version="1.0" encoding="UTF-8"?>

<!-- generated on 2023-01-11 13:47:00 by Eclipse SUMO sumo Version v1_15_0+1552-77b40087aab
This data file and the accompanying materials
are made available under the terms of the Eclipse Public License v2.0
which accompanies this distribution, and is available at
http://www.eclipse.org/legal/epl-v20.html
This file may also be made available under the following Secondary
Licenses when the conditions for such availability set forth in the Eclipse
Public License 2.0 are satisfied: GNU General Public License, version 2
or later which is available at
https://www.gnu.org/licenses/old-licenses/gpl-2.0-standalone.html
SPDX-License-Identifier: EPL-2.0 OR GPL-2.0-or-later
<configuration xmlns:xsi="http://www.w3.org/2001/XMLSchema-instance" xsi:noNamespaceSchemaLocation="http://sumo.dlr.de/xsd/sumoConfiguration.xsd">

    <input>
        <net-file value="net2.net.xml"/>
        <route-files value="input_routes.rou.xml"/>
    </input>

    <output>
        <write-license value="true"/>
        <person-summary-output value="summary.xml"/>
    </output>

    <time>
        <end value="10"/>
    </time>

    <processing>
        <default.speeddev value="0"/>
    </processing>

    <report>
        <xml-validation value="never"/>
        <duration-log.disable value="true"/>
        <no-step-log value="true"/>
    </report>

</configuration>
-->

<personSummary xmlns:xsi="http://www.w3.org/2001/XMLSchema-instance" xsi:noNamespaceSchemaLocation="http://sumo.dlr.de/xsd/person_summary_file.xsd">
    <step time="0.00" loaded="1" inserted="0" walking="0" waitingForRide="0" riding="0" stopping="0" jammed="0" ended="0" arrived="0" teleports="0"/>
    <step time="1.00" loaded="1" inserted="0" walking="0" waitingForRide="0" riding="0" stopping="0" jammed="0" ended="0" arrived="0" teleports="0"/>
    <step time="2.00" loaded="1" inserted="0" walking="0" waitingForRide="0" riding="0" stopping="0" jammed="0" ended="0" arrived="0" teleports="0"/>
    <step time="3.00" loaded="1" inserted="0" walking="0" waitingForRide="0" riding="0" stopping="0" jammed="0" ended="0" arrived="0" teleports="0"/>
    <step time="4.00" loaded="1" inserted="0" walking="0" waitingForRide="0" riding="0" stopping="0" jammed="0" ended="0" arrived="0" teleports="0"/>
    <step time="5.00" loaded="1" inserted="0" walking="0" waitingForRide="0" riding="0" stopping="0" jammed="0" ended="0" arrived="0" teleports="0"/>
    <step time="6.00" loaded="1" inserted="0" walking="0" waitingForRide="0" riding="0" stopping="0" jammed="0" ended="0" arrived="0" teleports="0"/>
    <step time="7.00" loaded="1" inserted="0" walking="0" waitingForRide="0" riding="0" stopping="0" jammed="0" ended="0" arrived="0" teleports="0"/>
    <step time="8.00" loaded="1" inserted="0" walking="0" waitingForRide="0" riding="0" stopping="0" jammed="0" ended="0" arrived="0" teleports="0"/>
    <step time="9.00" loaded="1" inserted="0" walking="0" waitingForRide="0" riding="0" stopping="0" jammed="0" ended="0" arrived="0" teleports="0"/>
</personSummary>
