# Generated on Fri Jan 27 09:14:25 2017 by SUMO netconvert Version dev-SVN-r22721
# Format matches Extraction version: V6.5 
# <?xml version="1.0" encoding="UTF-8"?>
# 
# <configuration xmlns:xsi="http://www.w3.org/2001/XMLSchema-instance" xsi:noNamespaceSchemaLocation="http://sumo.dlr.de/xsd/netconvertConfiguration.xsd">
# 
#     <input>
#         <osm-files value="osm.xml"/>
#     </input>
# 
#     <output>
#         <output-file value="net.net.xml"/>
#         <plain-output-prefix value="plain"/>
#         <dlr-navteq-output value="elmar_output"/>
#         <output.street-names value="true"/>
#     </output>
# 
#     <projection>
#         <proj.utm value="true"/>
#     </projection>
# 
#     <ramp_guessing>
#         <ramps.guess value="true"/>
#     </ramp_guessing>
# 
#     <processing>
#         <numerical-ids value="true"/>
#         <junctions.join value="true"/>
#     </processing>
# 
#     <report>
#         <verbose value="true"/>
#         <xml-validation value="never"/>
#     </report>
# 
# </configuration>
# 
#
# NODE_ID	IS_BETWEEN_NODE	amount_of_geocoordinates	x1	y1	[x2 y2  ... xn  yn]
# [xmin_region] 1351970.72
# [xmax_region] 1354502.66
# [ymin_region] 5242522.82
# [ymax_region] 5243244.21
# [elements_multinode] 61
# [elements_normalnode] 81
# [xmin] 1351970.72
# [xmax] 1354502.66
# [ymin] 5242522.82
# [ymax] 5243244.21
175648134	0	1	1351988.71	5242674.15
261599791	0	1	1352015.35	5242682.13
261636677	0	1	1353613.73	5242645.93
261636678	0	1	1353608.58	5242590.97
261647692	0	1	1352686.79	5242784.49
261647702	0	1	1352675.76	5242682.13
283018817	0	1	1352856.26	5243026.31
283018841	0	1	1352719.57	5243011.24
283018842	0	1	1352662.06	5243000.78
283018844	0	1	1352547.91	5242967.28
283018845	0	1	1352486.02	5242942.36
283018932	0	1	1352565.00	5242955.41
283018933	0	1	1352745.48	5242990.06
283018937	0	1	1352698.97	5243026.94
283719736	0	1	1353503.29	5243010.19
283720461	0	1	1353457.78	5242985.97
283721344	0	1	1353453.62	5243019.13
283721348	0	1	1353423.26	5242976.56
283721473	0	1	1353434.24	5243056.51
283722835	0	1	1353453.99	5243068.02
283722837	0	1	1353389.08	5243029.14
287944368	0	1	1353437.91	5242998.41
287944369	0	1	1353464.58	5243036.01
294168098	0	1	1352793.85	5242822.29
294168710	0	1	1352821.44	5242838.37
294168972	0	1	1353015.07	5242739.05
294169338	0	1	1352782.43	5242810.36
294169339	0	1	1352761.83	5242804.60
294169342	0	1	1352689.35	5242808.31
294169618	0	1	1352761.83	5242668.00
294829385	0	1	1353218.98	5242972.04
294829798	0	1	1353315.29	5242905.35
294829881	0	1	1353267.22	5242998.67
294830184	0	1	1353310.59	5242969.23
294830188	0	1	1353383.41	5242968.52
294831560	0	1	1352760.99	5242795.67
294831562	0	1	1352701.05	5242752.37
294831563	0	1	1353081.70	5243008.95
294831564	0	1	1353327.51	5243037.20
294831565	0	1	1352682.84	5242883.04
294831566	0	1	1353272.68	5243077.85
294831567	0	1	1352862.60	5242914.04
32266935	0	1	1352671.27	5242640.38
32266936	0	1	1352664.29	5242575.54
32266938	0	1	1352669.93	5242627.94
36268369	0	1	1352909.96	5242629.94
36268375	0	1	1353080.32	5242775.26
36268376	0	1	1353269.59	5242880.11
36268378	0	1	1353430.96	5242971.70
36268381	0	1	1353809.47	5243190.97
36268382	0	1	1354069.54	5243036.59
36268391	0	1	1353712.03	5242950.58
36268392	0	1	1353509.06	5242837.72
36268406	0	1	1353174.91	5242947.71
36268408	0	1	1353025.39	5242861.09
36268411	0	1	1352980.76	5242838.07
36268415	0	1	1353099.79	5242997.14
36268416	0	1	1353516.34	5242708.27
36268417	0	1	1353410.77	5242781.54
36268421	0	1	1353652.40	5242589.12
36268431	0	1	1353370.02	5242935.59
38918157	0	1	1353519.06	5243232.07
38919605	0	1	1353104.35	5243054.73
38919652	0	1	1352860.59	5243039.03
38919668	0	1	1352965.03	5242954.23
38919703	0	1	1352934.13	5242940.10
38919712	0	1	1352863.55	5243019.11
38919797	0	1	1352721.11	5243205.89
38919808	0	1	1352842.27	5243040.12
38919841	0	1	1352692.27	5243036.21
38919854	0	1	1352525.18	5242983.19
38919880	0	1	1352455.66	5242937.35
38919927	0	1	1352394.53	5242929.13
38920501	0	1	1352689.78	5242812.31
38920557	0	1	1352711.28	5243201.64
56231597	0	1	1352890.84	5242878.82
56242425	0	1	1352931.56	5242926.49
57343359	0	1	1351960.23	5242835.97
57343487	0	1	1353538.80	5243218.99
57343510	0	1	1351987.15	5242684.24
94487954	0	1	1354524.79	5242572.21
-26816553	1	5	1353002.01	5242747.46	1352966.11	5242770.58	1352895.72	5242734.99	1352801.08	5242805.37	1352790.15	5242813.50
-5198584	1	1	1353815.03	5242879.41
20430080	1	6	1351967.10	5242830.74	1351979.11	5242822.89	1352009.15	5242822.36	1352240.04	5242835.45	1352408.19	5242843.78	1352529.81	5242853.77
25944605	1	1	1352681.80	5243014.38
26816541	1	3	1352747.24	5242827.10	1352753.24	5242853.27	1352784.14	5242860.60
26816553	1	5	1352790.15	5242813.50	1352801.08	5242805.37	1352895.72	5242734.99	1352966.11	5242770.58	1353002.01	5242747.46
27441289	1	1	1352686.37	5242842.95
27445000	1	4	1352528.88	5242864.93	1352406.56	5242853.34	1352239.18	5242843.82	1352156.78	5242840.68
27445016	1	1	1352262.72	5242663.02
27445022	1	1	1352711.86	5242805.78
27445024	1	1	1353344.91	5242948.08
27445025	1	1	1353346.50	5242988.99
27445027	1	1	1352759.06	5242749.85
27445028	1	1	1352703.13	5242798.89
27445029	1	2	1352935.22	5242696.67	1352914.32	5242679.05
27445037	1	2	1353656.76	5243097.80	1353571.00	5243048.12
27445042	1	1	1353590.51	5242658.73
27445051	1	1	1352955.80	5242839.80
27445052	1	1	1352868.81	5242900.21
27445059	1	1	1352684.73	5242976.67
27445061	1	2	1352467.54	5242960.00	1352453.65	5242948.41
27445063	1	2	1352724.78	5243042.56	1352705.52	5243040.43
27445065	1	3	1353085.75	5243044.90	1353071.82	5243040.41	1353057.81	5243038.90
27445066	1	6	1354188.39	5242557.22	1354331.07	5242549.88	1354382.11	5242549.88	1354441.85	5242553.05	1354465.78	5242556.32	1354501.56	5242561.64
27445068	1	3	1353103.40	5242610.33	1353339.60	5242597.24	1353504.53	5242589.91
27445072	1	2	1352680.03	5242699.86	1352684.52	5242741.55
27445074	1	1	1353655.78	5242644.88
27445076	1	1	1352263.70	5242668.74
27445078	1	2	1352765.06	5243018.05	1352733.30	5243014.38
27445080	1	1	1352573.66	5242976.18
27445084	1	1	1352736.73	5243002.35
27445103	1	1	1352712.25	5242808.64
27445105	1	1	1353344.65	5242943.96
27445106	1	1	1353346.50	5242993.05
27445108	1	1	1352754.62	5242752.81
27445109	1	1	1352707.55	5242795.87
27445110	1	6	1353480.02	5243207.00	1353397.18	5243156.19	1353359.00	5243131.12	1353333.25	5243114.89	1353314.36	5243104.43	1353288.61	5243093.96
27445111	1	1	1353135.84	5243033.78
27445112	1	1	1353032.27	5242988.08
27445114	1	1	1352913.32	5242934.58
27445117	1	1	1352901.97	5242918.45
27445118	1	3	1352961.60	5242936.44	1352991.26	5242948.91	1353042.25	5242970.30
27445119	1	3	1353137.55	5243016.51	1353168.45	5243030.64	1353192.48	5243040.58
27445120	1	5	1353329.81	5243090.82	1353356.42	5243104.95	1353383.89	5243120.65	1353425.09	5243146.82	1353501.47	5243196.01
27445121	1	2	1352918.90	5242678.01	1352938.74	5242694.75
27445129	1	2	1353574.16	5243046.00	1353660.06	5243095.74
27445134	1	1	1353587.27	5242656.63
27445143	1	1	1352958.06	5242842.46
27445144	1	1	1352872.93	5242901.61
27445145	1	3	1352952.16	5242955.28	1352941.00	5242957.89	1352930.70	5242964.17
27445146	1	2	1352858.88	5243042.69	1352808.24	5243101.83
27445147	1	1	1352751.54	5243151.59
27445157	1	1	1352686.23	5242973.93
27445159	1	2	1352458.33	5242947.45	1352470.88	5242957.92
27445161	1	2	1352706.68	5243037.63	1352725.18	5243039.68
27445163	1	3	1353058.19	5243036.02	1353073.36	5243037.65	1353088.63	5243042.58
27445164	1	6	1354498.24	5242567.06	1354463.64	5242561.92	1354440.41	5242558.75	1354381.71	5242555.64	1354331.47	5242555.64	1354189.19	5242562.96
27445166	1	3	1353505.01	5242595.65	1353340.36	5242602.98	1353104.48	5242616.05
27445170	1	2	1352679.82	5242741.73	1352675.33	5242700.04
5198584	1	1	1353815.03	5242879.41
7727482	1	1	1352693.49	5242841.23
