<?xml version="1.0" encoding="UTF-8"?>

<!-- generated on Wed Sep 28 13:48:44 2016 by SUMO netconvert Version dev-SVN-r21560
<?xml version="1.0" encoding="UTF-8"?>

<configuration xmlns:xsi="http://www.w3.org/2001/XMLSchema-instance" xsi:noNamespaceSchemaLocation="http://sumo.dlr.de/xsd/netconvertConfiguration.xsd">

    <input>
        <node-files value="input_plain.nod.xml"/>
        <edge-files value="input_plain.edg.xml,input_edges2.edg.xml"/>
    </input>

    <output>
        <output-file value="net.net.xml"/>
    </output>

    <processing>
        <no-turnarounds value="true"/>
        <crossings.guess value="true"/>
    </processing>

    <report>
        <xml-validation value="never"/>
    </report>

</configuration>
-->

<net version="0.27" xmlns:xsi="http://www.w3.org/2001/XMLSchema-instance" xsi:noNamespaceSchemaLocation="http://sumo.dlr.de/xsd/net_file.xsd">

    <location netOffset="100.00,100.00" convBoundary="0.00,0.00,200.00,200.00" origBoundary="-10000000000.00,-10000000000.00,10000000000.00,10000000000.00" projParameter="!"/>

    <edge id=":C_0" function="internal">
        <lane id=":C_0_0" index="0" allow="passenger" speed="13.89" length="5.00" shape="95.05,108.05 94.86,106.69 94.28,105.72 93.31,105.14 91.95,104.95"/>
    </edge>
    <edge id=":C_1" function="internal">
        <lane id=":C_1_0" index="0" allow="passenger" speed="13.89" length="21.20" shape="95.05,108.05 95.05,86.85"/>
        <lane id=":C_1_1" index="1" allow="passenger" speed="13.89" length="21.20" shape="98.35,108.05 98.35,86.85"/>
    </edge>
    <edge id=":C_3" function="internal">
        <lane id=":C_3_0" index="0" allow="passenger" speed="13.89" length="5.49" shape="98.35,108.05 99.28,103.81 100.05,102.96"/>
    </edge>
    <edge id=":C_16" function="internal">
        <lane id=":C_16_0" index="0" speed="13.89" length="14.43" shape="100.05,102.96 102.05,100.78 106.67,98.96 113.15,98.35"/>
    </edge>
    <edge id=":C_4" function="internal">
        <lane id=":C_4_0" index="0" allow="passenger" speed="13.89" length="9.49" shape="113.15,104.95 109.56,105.14 107.00,105.72 105.46,106.69 104.95,108.05"/>
    </edge>
    <edge id=":C_5" function="internal">
        <lane id=":C_5_0" index="0" allow="passenger" speed="13.89" length="21.20" shape="113.15,104.95 91.95,104.95"/>
        <lane id=":C_5_1" index="1" allow="passenger" speed="13.89" length="21.20" shape="113.15,101.65 91.95,101.65"/>
    </edge>
    <edge id=":C_7" function="internal">
        <lane id=":C_7_0" index="0" allow="passenger" speed="13.89" length="8.05" shape="113.15,101.65 106.67,100.72 105.38,99.95"/>
    </edge>
    <edge id=":C_17" function="internal">
        <lane id=":C_17_0" index="0" speed="13.89" length="15.82" shape="105.38,99.95 102.05,97.95 99.27,93.33 98.35,86.85"/>
    </edge>
    <edge id=":C_8" function="internal">
        <lane id=":C_8_0" index="0" allow="passenger" speed="13.89" length="13.22" shape="104.95,86.85 105.46,90.44 107.00,93.00 109.56,94.54 113.15,95.05"/>
    </edge>
    <edge id=":C_9" function="internal">
        <lane id=":C_9_0" index="0" allow="passenger" speed="13.89" length="21.20" shape="104.95,86.85 104.95,108.05"/>
        <lane id=":C_9_1" index="1" allow="passenger" speed="13.89" length="21.20" shape="101.65,86.85 101.65,108.05"/>
    </edge>
    <edge id=":C_11" function="internal">
        <lane id=":C_11_0" index="0" allow="passenger" speed="13.89" length="9.49" shape="101.65,86.85 101.04,93.33 99.95,96.11"/>
    </edge>
    <edge id=":C_18" function="internal">
        <lane id=":C_18_0" index="0" speed="13.89" length="10.43" shape="99.95,96.11 99.23,97.95 96.19,100.72 91.95,101.65"/>
    </edge>
    <edge id=":C_12" function="internal">
        <lane id=":C_12_0" index="0" allow="passenger" speed="13.89" length="9.49" shape="91.95,95.05 93.31,94.54 94.28,93.00 94.86,90.44 95.05,86.85"/>
    </edge>
    <edge id=":C_13" function="internal">
        <lane id=":C_13_0" index="0" allow="passenger" speed="13.89" length="21.20" shape="91.95,95.05 113.15,95.05"/>
        <lane id=":C_13_1" index="1" allow="passenger" speed="13.89" length="21.20" shape="91.95,98.35 113.15,98.35"/>
    </edge>
    <edge id=":C_15" function="internal">
        <lane id=":C_15_0" index="0" allow="passenger" speed="13.89" length="6.41" shape="91.95,98.35 96.19,98.96 98.02,100.05"/>
    </edge>
    <edge id=":C_19" function="internal">
        <lane id=":C_19_0" index="0" speed="13.89" length="9.23" shape="98.02,100.05 99.22,100.77 101.04,103.81 101.65,108.05"/>
    </edge>
    <edge id=":C_w0" function="walkingarea">
        <lane id=":C_w0_0" index="0" allow="pedestrian" speed="1.00" length="5.66" width="5.00" shape="113.15,93.35 113.15,88.35 111.65,86.85 106.65,86.85"/>
    </edge>

    <edge id="CE" from="C" to="E" priority="2">
        <lane id="CE_0" index="0" allow="pedestrian" speed="13.89" length="86.85" width="5.00" shape="113.15,90.85 200.00,90.85"/>
        <lane id="CE_1" index="1" allow="passenger" speed="13.89" length="86.85" shape="113.15,95.05 200.00,95.05"/>
        <lane id="CE_2" index="2" allow="passenger" speed="13.89" length="86.85" shape="113.15,98.35 200.00,98.35"/>
    </edge>
    <edge id="CN" from="C" to="N" priority="2">
        <lane id="CN_0" index="0" allow="passenger" speed="13.89" length="91.95" shape="104.95,108.05 104.95,200.00"/>
        <lane id="CN_1" index="1" allow="passenger" speed="13.89" length="91.95" shape="101.65,108.05 101.65,200.00"/>
    </edge>
    <edge id="CS" from="C" to="S" priority="2">
        <lane id="CS_0" index="0" allow="passenger" speed="13.89" length="86.85" shape="95.05,86.85 95.05,0.00"/>
        <lane id="CS_1" index="1" allow="passenger" speed="13.89" length="86.85" shape="98.35,86.85 98.35,0.00"/>
    </edge>
    <edge id="CW" from="C" to="W" priority="2">
        <lane id="CW_0" index="0" allow="passenger" speed="13.89" length="91.95" shape="91.95,104.95 0.00,104.95"/>
        <lane id="CW_1" index="1" allow="passenger" speed="13.89" length="91.95" shape="91.95,101.65 0.00,101.65"/>
    </edge>
    <edge id="EC" from="E" to="C" priority="2">
        <lane id="EC_0" index="0" allow="passenger" speed="13.89" length="86.85" shape="200.00,104.95 113.15,104.95"/>
        <lane id="EC_1" index="1" allow="passenger" speed="13.89" length="86.85" shape="200.00,101.65 113.15,101.65"/>
    </edge>
    <edge id="NC" from="N" to="C" priority="2">
        <lane id="NC_0" index="0" allow="passenger" speed="13.89" length="91.95" shape="95.05,200.00 95.05,108.05"/>
        <lane id="NC_1" index="1" allow="passenger" speed="13.89" length="91.95" shape="98.35,200.00 98.35,108.05"/>
    </edge>
    <edge id="SC" from="S" to="C" priority="2">
        <lane id="SC_0" index="0" allow="pedestrian" speed="13.89" length="86.85" width="5.00" shape="109.15,0.00 109.15,86.85"/>
        <lane id="SC_1" index="1" allow="passenger" speed="13.89" length="86.85" shape="104.95,0.00 104.95,86.85"/>
        <lane id="SC_2" index="2" allow="passenger" speed="13.89" length="86.85" shape="101.65,0.00 101.65,86.85"/>
    </edge>
    <edge id="WC" from="W" to="C" priority="2">
        <lane id="WC_0" index="0" allow="passenger" speed="13.89" length="91.95" shape="0.00,95.05 91.95,95.05"/>
        <lane id="WC_1" index="1" allow="passenger" speed="13.89" length="91.95" shape="0.00,98.35 91.95,98.35"/>
    </edge>

    <tlLogic id="C" type="static" programID="0" offset="0">
        <phase duration="31" state="GGGgrrrrGGGgrrrr"/>
        <phase duration="4" state="yyygrrrryyygrrrr"/>
        <phase duration="6" state="rrrGrrrrrrrGrrrr"/>
        <phase duration="4" state="rrryrrrrrrryrrrr"/>
        <phase duration="31" state="rrrrGGGgrrrrGGGg"/>
        <phase duration="4" state="rrrryyygrrrryyyg"/>
        <phase duration="6" state="rrrrrrrGrrrrrrrG"/>
        <phase duration="4" state="rrrrrrryrrrrrrry"/>
    </tlLogic>

    <junction id="C" type="traffic_light" x="100.00" y="100.00" incLanes="NC_0 NC_1 EC_0 EC_1 SC_0 SC_1 SC_2 WC_0 WC_1" intLanes=":C_0_0 :C_1_0 :C_1_1 :C_16_0 :C_4_0 :C_5_0 :C_5_1 :C_17_0 :C_8_0 :C_9_0 :C_9_1 :C_18_0 :C_12_0 :C_13_0 :C_13_1 :C_19_0" shape="93.45,108.05 106.55,108.05 113.15,106.55 113.15,88.35 111.65,86.85 93.45,86.85 91.95,93.45 91.95,106.55">
        <request index="0" response="0000000000000000" foes="0000100001100000" cont="0"/>
        <request index="1" response="0000000000000000" foes="1111100011100000" cont="0"/>
        <request index="2" response="0000000000000000" foes="1111100011100000" cont="0"/>
        <request index="3" response="0000011100000000" foes="1110011111100000" cont="1"/>
        <request index="4" response="0000011000000000" foes="1000011000000000" cont="0"/>
        <request index="5" response="0000111000001111" foes="1000111000001111" cont="0"/>
        <request index="6" response="0000111000001111" foes="1000111000001111" cont="0"/>
        <request index="7" response="0111111000001110" foes="0111111000001110" cont="1"/>
        <request index="8" response="0000000000000000" foes="0110000000001000" cont="0"/>
        <request index="9" response="0000000000000000" foes="1110000011111000" cont="0"/>
        <request index="10" response="0000000000000000" foes="1110000011111000" cont="0"/>
        <request index="11" response="0000000000000111" foes="1110000011100111" cont="1"/>
        <request index="12" response="0000000000000110" foes="0000000010000110" cont="0"/>
        <request index="13" response="0000111100001110" foes="0000111110001110" cont="0"/>
        <request index="14" response="0000111100001110" foes="0000111110001110" cont="0"/>
        <request index="15" response="0000111001111110" foes="0000111001111110" cont="1"/>
    </junction>
    <junction id="E" type="dead_end" x="200.00" y="100.00" incLanes="CE_0 CE_1 CE_2" intLanes="" shape="200.00,100.05 200.00,88.35 200.00,99.95"/>
    <junction id="N" type="dead_end" x="100.00" y="200.00" incLanes="CN_0 CN_1" intLanes="" shape="99.95,200.00 106.55,200.00 100.05,200.00"/>
    <junction id="S" type="dead_end" x="100.00" y="0.00" incLanes="CS_0 CS_1" intLanes="" shape="100.05,0.00 93.45,0.00 99.95,0.00"/>
    <junction id="W" type="dead_end" x="0.00" y="100.00" incLanes="CW_0 CW_1" intLanes="" shape="0.00,99.95 0.00,106.55 0.00,100.05"/>

    <junction id=":C_16_0" type="internal" x="100.05" y="102.96" incLanes=":C_3_0 SC_1 SC_2" intLanes=":C_5_0 :C_5_1 :C_7_0 :C_8_0 :C_9_0 :C_9_1 :C_13_0 :C_13_1 :C_15_0"/>
    <junction id=":C_17_0" type="internal" x="105.38" y="99.95" incLanes=":C_7_0 WC_0 WC_1" intLanes=":C_1_0 :C_1_1 :C_3_0 :C_9_0 :C_9_1 :C_11_0 :C_12_0 :C_13_0 :C_13_1"/>
    <junction id=":C_18_0" type="internal" x="99.95" y="96.11" incLanes=":C_11_0 NC_0 NC_1" intLanes=":C_0_0 :C_1_0 :C_1_1 :C_5_0 :C_5_1 :C_7_0 :C_13_0 :C_13_1 :C_15_0"/>
    <junction id=":C_19_0" type="internal" x="98.02" y="100.05" incLanes=":C_15_0 EC_0 EC_1" intLanes=":C_1_0 :C_1_1 :C_3_0 :C_4_0 :C_5_0 :C_5_1 :C_9_0 :C_9_1 :C_11_0"/>

    <connection from="EC" to="CN" fromLane="0" toLane="0" via=":C_4_0" tl="C" linkIndex="4" dir="r" state="o"/>
    <connection from="EC" to="CW" fromLane="0" toLane="0" via=":C_5_0" tl="C" linkIndex="5" dir="s" state="o"/>
    <connection from="EC" to="CW" fromLane="1" toLane="1" via=":C_5_1" tl="C" linkIndex="6" dir="s" state="o"/>
    <connection from="EC" to="CS" fromLane="1" toLane="1" via=":C_7_0" tl="C" linkIndex="7" dir="l" state="o"/>
    <connection from="NC" to="CW" fromLane="0" toLane="0" via=":C_0_0" tl="C" linkIndex="0" dir="r" state="o"/>
    <connection from="NC" to="CS" fromLane="0" toLane="0" via=":C_1_0" tl="C" linkIndex="1" dir="s" state="o"/>
    <connection from="NC" to="CS" fromLane="1" toLane="1" via=":C_1_1" tl="C" linkIndex="2" dir="s" state="o"/>
    <connection from="NC" to="CE" fromLane="1" toLane="2" via=":C_3_0" tl="C" linkIndex="3" dir="l" state="o"/>
    <connection from="SC" to="CE" fromLane="1" toLane="1" via=":C_8_0" tl="C" linkIndex="8" dir="r" state="o"/>
    <connection from="SC" to="CN" fromLane="1" toLane="0" via=":C_9_0" tl="C" linkIndex="9" dir="s" state="o"/>
    <connection from="SC" to="CN" fromLane="2" toLane="1" via=":C_9_1" tl="C" linkIndex="10" dir="s" state="o"/>
    <connection from="SC" to="CW" fromLane="2" toLane="1" via=":C_11_0" tl="C" linkIndex="11" dir="l" state="o"/>
    <connection from="WC" to="CS" fromLane="0" toLane="0" via=":C_12_0" tl="C" linkIndex="12" dir="r" state="o"/>
    <connection from="WC" to="CE" fromLane="0" toLane="1" via=":C_13_0" tl="C" linkIndex="13" dir="s" state="o"/>
    <connection from="WC" to="CE" fromLane="1" toLane="2" via=":C_13_1" tl="C" linkIndex="14" dir="s" state="o"/>
    <connection from="WC" to="CN" fromLane="1" toLane="1" via=":C_15_0" tl="C" linkIndex="15" dir="l" state="o"/>

    <connection from=":C_0" to="CW" fromLane="0" toLane="0" dir="s" state="M"/>
    <connection from=":C_1" to="CS" fromLane="0" toLane="0" dir="s" state="M"/>
    <connection from=":C_1" to="CS" fromLane="1" toLane="1" dir="s" state="M"/>
    <connection from=":C_3" to="CE" fromLane="0" toLane="2" via=":C_16_0" dir="s" state="m"/>
    <connection from=":C_16" to="CE" fromLane="0" toLane="2" dir="s" state="M"/>
    <connection from=":C_4" to="CN" fromLane="0" toLane="0" dir="s" state="M"/>
    <connection from=":C_5" to="CW" fromLane="0" toLane="0" dir="s" state="M"/>
    <connection from=":C_5" to="CW" fromLane="1" toLane="1" dir="s" state="M"/>
    <connection from=":C_7" to="CS" fromLane="0" toLane="1" via=":C_17_0" dir="s" state="m"/>
    <connection from=":C_17" to="CS" fromLane="0" toLane="1" dir="s" state="M"/>
    <connection from=":C_8" to="CE" fromLane="0" toLane="1" dir="s" state="M"/>
    <connection from=":C_9" to="CN" fromLane="0" toLane="0" dir="s" state="M"/>
    <connection from=":C_9" to="CN" fromLane="1" toLane="1" dir="s" state="M"/>
    <connection from=":C_11" to="CW" fromLane="0" toLane="1" via=":C_18_0" dir="s" state="m"/>
    <connection from=":C_18" to="CW" fromLane="0" toLane="1" dir="s" state="M"/>
    <connection from=":C_12" to="CS" fromLane="0" toLane="0" dir="s" state="M"/>
    <connection from=":C_13" to="CE" fromLane="0" toLane="1" dir="s" state="M"/>
    <connection from=":C_13" to="CE" fromLane="1" toLane="2" dir="s" state="M"/>
    <connection from=":C_15" to="CN" fromLane="0" toLane="1" via=":C_19_0" dir="s" state="m"/>
    <connection from=":C_19" to="CN" fromLane="0" toLane="1" dir="s" state="M"/>

    <connection from=":C_w0" to="CE" fromLane="0" toLane="0" dir="s" state="M"/>
    <connection from="SC" to=":C_w0" fromLane="0" toLane="0" dir="s" state="M"/>
</net>
