<?xml version="1.0" encoding="UTF-8"?>

<!-- generated on Fri Jan 23 11:23:32 2015 by SUMO netconvert Version dev-SVN-r17681ID
<?xml version="1.0" encoding="UTF-8"?>

<configuration xmlns:xsi="http://www.w3.org/2001/XMLSchema-instance" xsi:noNamespaceSchemaLocation="http://sumo.dlr.de/xsd/netconvertConfiguration.xsd">

    <input>
        <node-files value="input_plain.nod.xml"/>
        <edge-files value="input_plain.edg.xml,input_edges2.edg.xml"/>
    </input>

    <output>
        <output-file value="net.net.xml"/>
    </output>

    <processing>
        <no-turnarounds value="true"/>
        <sidewalks.guess value="false"/>
        <crossings.guess value="true"/>
    </processing>

    <building_defaults>
        <default.sidewalk-width value="2.5"/>
    </building_defaults>

    <report>
        <xml-validation value="never"/>
    </report>

</configuration>
-->

<net version="0.13" xmlns:xsi="http://www.w3.org/2001/XMLSchema-instance" xsi:noNamespaceSchemaLocation="http://sumo.dlr.de/xsd/net_file.xsd">

    <location netOffset="100.00,100.00" convBoundary="0.00,0.00,200.00,200.00" origBoundary="-10000000000.00,-10000000000.00,10000000000.00,10000000000.00" projParameter="!"/>

    <edge id=":C_0" function="internal">
        <lane id=":C_0_0" index="0" allow="passenger" speed="13.89" length="5.00" shape="95.05,108.05 94.86,106.69 94.28,105.72 93.31,105.14 91.95,104.95"/>
    </edge>
    <edge id=":C_1" function="internal">
        <lane id=":C_1_0" index="0" allow="passenger" speed="13.89" length="19.77" shape="95.05,108.05 95.57,102.25 96.70,98.35 97.83,94.45 98.35,88.65"/>
    </edge>
    <edge id=":C_2" function="internal">
        <lane id=":C_2_0" index="0" allow="passenger" speed="13.89" length="3.16" shape="98.35,108.05 98.94,104.95"/>
    </edge>
    <edge id=":C_14" function="internal">
        <lane id=":C_14_0" index="0" speed="13.89" length="15.22" shape="98.94,104.95 99.16,103.81 101.60,100.78 105.66,98.96 111.35,98.35"/>
    </edge>
    <edge id=":C_3" function="internal">
        <lane id=":C_3_0" index="0" allow="passenger" speed="13.89" length="7.85" shape="111.35,104.95 108.55,105.14 106.55,105.72 105.35,106.69 104.95,108.05"/>
    </edge>
    <edge id=":C_4" function="internal">
        <lane id=":C_4_0" index="0" allow="passenger" speed="13.89" length="19.40" shape="111.35,104.95 105.59,104.95 101.65,104.95 97.71,104.95 91.95,104.95"/>
        <lane id=":C_4_1" index="1" allow="passenger" speed="13.89" length="19.40" shape="111.35,101.65 105.59,101.65 101.65,101.65 97.71,101.65 91.95,101.65"/>
    </edge>
    <edge id=":C_6" function="internal">
        <lane id=":C_6_0" index="0" allow="passenger" speed="13.89" length="10.48" shape="111.35,101.65 105.66,100.84 101.60,98.40"/>
    </edge>
    <edge id=":C_15" function="internal">
        <lane id=":C_15_0" index="0" speed="13.89" length="10.48" shape="101.60,98.40 99.16,94.34 98.35,88.65"/>
    </edge>
    <edge id=":C_7" function="internal">
        <lane id=":C_7_0" index="0" allow="passenger" speed="13.89" length="10.32" shape="104.95,88.65 105.35,91.45 106.55,93.45 108.55,94.65 111.35,95.05"/>
    </edge>
    <edge id=":C_8" function="internal">
        <lane id=":C_8_0" index="0" allow="passenger" speed="13.89" length="19.40" shape="101.65,88.65 101.65,94.41 101.65,98.35 101.65,102.29 101.65,108.05"/>
    </edge>
    <edge id=":C_9" function="internal">
        <lane id=":C_9_0" index="0" allow="passenger" speed="13.89" length="6.50" shape="101.65,88.65 101.04,94.34 100.72,95.05"/>
    </edge>
    <edge id=":C_16" function="internal">
        <lane id=":C_16_0" index="0" speed="13.89" length="11.88" shape="100.72,95.05 99.23,98.40 96.19,100.84 91.95,101.65"/>
    </edge>
    <edge id=":C_10" function="internal">
        <lane id=":C_10_0" index="0" allow="passenger" speed="13.89" length="7.85" shape="91.95,95.05 93.31,94.65 94.28,93.45 94.86,91.45 95.05,88.65"/>
    </edge>
    <edge id=":C_11" function="internal">
        <lane id=":C_11_0" index="0" allow="passenger" speed="13.89" length="19.40" shape="91.95,95.05 97.71,95.05 101.65,95.05 105.59,95.05 111.35,95.05"/>
        <lane id=":C_11_1" index="1" allow="passenger" speed="13.89" length="19.40" shape="91.95,98.35 97.71,98.35 101.65,98.35 105.59,98.35 111.35,98.35"/>
    </edge>
    <edge id=":C_13" function="internal">
        <lane id=":C_13_0" index="0" allow="passenger" speed="13.89" length="4.61" shape="91.95,98.35 96.19,98.96 96.47,99.12"/>
    </edge>
    <edge id=":C_17" function="internal">
        <lane id=":C_17_0" index="0" speed="13.89" length="11.03" shape="96.47,99.12 99.22,100.77 101.04,103.81 101.65,108.05"/>
    </edge>
    <edge id=":C_w0" function="walkingarea">
        <lane id=":C_w0_0" index="0" allow="pedestrian" speed="1.00" length="4.38" width="3.20" shape="111.35,93.35 111.35,90.15 109.85,88.65 106.65,88.65"/>
    </edge>

    <edge id="CE" from="C" to="E" priority="2">
        <lane id="CE_0" index="0" allow="pedestrian" speed="13.89" length="88.65" shape="111.35,91.75 200.00,91.75"/>
        <lane id="CE_1" index="1" allow="passenger" speed="13.89" length="88.65" shape="111.35,95.05 200.00,95.05"/>
        <lane id="CE_2" index="2" allow="passenger" speed="13.89" length="88.65" shape="111.35,98.35 200.00,98.35"/>
    </edge>
    <edge id="CN" from="C" to="N" priority="2">
        <lane id="CN_0" index="0" allow="passenger" speed="13.89" length="91.95" shape="104.95,108.05 104.95,200.00"/>
        <lane id="CN_1" index="1" allow="passenger" speed="13.89" length="91.95" shape="101.65,108.05 101.65,200.00"/>
    </edge>
    <edge id="CS" from="C" to="S" priority="2">
        <lane id="CS_0" index="0" allow="passenger" speed="13.89" length="88.65" shape="95.05,88.65 95.05,0.00"/>
        <lane id="CS_1" index="1" allow="passenger" speed="13.89" length="88.65" shape="98.35,88.65 98.35,0.00"/>
    </edge>
    <edge id="CW" from="C" to="W" priority="2">
        <lane id="CW_0" index="0" allow="passenger" speed="13.89" length="91.95" shape="91.95,104.95 0.00,104.95"/>
        <lane id="CW_1" index="1" allow="passenger" speed="13.89" length="91.95" shape="91.95,101.65 0.00,101.65"/>
    </edge>
    <edge id="EC" from="E" to="C" priority="2">
        <lane id="EC_0" index="0" allow="passenger" speed="13.89" length="88.65" shape="200.00,104.95 111.35,104.95"/>
        <lane id="EC_1" index="1" allow="passenger" speed="13.89" length="88.65" shape="200.00,101.65 111.35,101.65"/>
    </edge>
    <edge id="NC" from="N" to="C" priority="2">
        <lane id="NC_0" index="0" allow="passenger" speed="13.89" length="91.95" shape="95.05,200.00 95.05,108.05"/>
        <lane id="NC_1" index="1" allow="passenger" speed="13.89" length="91.95" shape="98.35,200.00 98.35,108.05"/>
    </edge>
    <edge id="SC" from="S" to="C" priority="2">
        <lane id="SC_0" index="0" allow="pedestrian" speed="13.89" length="88.65" shape="108.25,0.00 108.25,88.65"/>
        <lane id="SC_1" index="1" allow="passenger" speed="13.89" length="88.65" shape="104.95,0.00 104.95,88.65"/>
        <lane id="SC_2" index="2" allow="passenger" speed="13.89" length="88.65" shape="101.65,0.00 101.65,88.65"/>
    </edge>
    <edge id="WC" from="W" to="C" priority="2">
        <lane id="WC_0" index="0" allow="passenger" speed="13.89" length="91.95" shape="0.00,95.05 91.95,95.05"/>
        <lane id="WC_1" index="1" allow="passenger" speed="13.89" length="91.95" shape="0.00,98.35 91.95,98.35"/>
    </edge>

    <tlLogic id="C" type="static" programID="0" offset="0">
        <phase duration="31" state="rrrGGGgrrrGGGg"/>
        <phase duration="4" state="rrryyygrrryyyg"/>
        <phase duration="6" state="rrrrrrGrrrrrrG"/>
        <phase duration="4" state="rrrrrryrrrrrry"/>
        <phase duration="31" state="GGgrrrrGGgrrrr"/>
        <phase duration="4" state="yygrrrryygrrrr"/>
        <phase duration="6" state="rrGrrrrrrGrrrr"/>
        <phase duration="4" state="rryrrrrrryrrrr"/>
    </tlLogic>

    <junction id="C" type="traffic_light" x="100.00" y="100.00" incLanes="NC_0 NC_1 EC_0 EC_1 SC_0 SC_1 SC_2 WC_0 WC_1" intLanes=":C_0_0 :C_1_0 :C_14_0 :C_3_0 :C_4_0 :C_4_1 :C_15_0 :C_7_0 :C_8_0 :C_16_0 :C_10_0 :C_11_0 :C_11_1 :C_17_0" shape="93.45,108.05 106.55,108.05 111.35,106.55 111.35,90.15 109.85,88.65 93.45,88.65 91.95,93.45 91.95,106.55">
        <request index="0" response="00000000000000" foes="00001000110000" cont="0"/>
        <request index="1" response="00000000000000" foes="11111001110000" cont="0"/>
        <request index="2" response="00000110000000" foes="11100111110000" cont="1"/>
        <request index="3" response="00000100000000" foes="10000100000000" cont="0"/>
        <request index="4" response="00001100000111" foes="10001100000111" cont="0"/>
        <request index="5" response="00001100000111" foes="10001100000111" cont="0"/>
        <request index="6" response="01111100000110" foes="01111100000110" cont="1"/>
        <request index="7" response="00000000000000" foes="01100000000100" cont="0"/>
        <request index="8" response="00000000000000" foes="11100001111100" cont="0"/>
        <request index="9" response="00000000000011" foes="11100001110011" cont="1"/>
        <request index="10" response="00000000000010" foes="00000001000010" cont="0"/>
        <request index="11" response="00001110000110" foes="00001111000110" cont="0"/>
        <request index="12" response="00001110000110" foes="00001111000110" cont="0"/>
        <request index="13" response="00001100111110" foes="00001100111110" cont="1"/>
    </junction>
    <junction id="E" type="dead_end" x="200.00" y="100.00" incLanes="CE_0 CE_1 CE_2" intLanes="" shape="200.00,100.05 200.00,106.55 200.00,90.15 200.00,99.95"/>
    <junction id="N" type="dead_end" x="100.00" y="200.00" incLanes="CN_0 CN_1" intLanes="" shape="99.95,200.00 93.45,200.00 106.55,200.00 100.05,200.00"/>
    <junction id="S" type="dead_end" x="100.00" y="0.00" incLanes="CS_0 CS_1" intLanes="" shape="100.05,-0.00 109.85,-0.00 93.45,0.00 99.95,0.00"/>
    <junction id="W" type="dead_end" x="0.00" y="100.00" incLanes="CW_0 CW_1" intLanes="" shape="-0.00,99.95 -0.00,93.45 0.00,106.55 0.00,100.05"/>

    <junction id=":C_14_0" type="internal" x="98.94" y="104.95" incLanes=":C_2_0 SC_1 SC_2" intLanes=":C_4_0 :C_4_1 :C_6_0 :C_7_0 :C_8_0 :C_11_0 :C_11_1 :C_13_0"/>
    <junction id=":C_15_0" type="internal" x="101.60" y="98.40" incLanes=":C_6_0 NC_0 SC_2 WC_0 WC_1" intLanes=":C_1_0 :C_2_0 :C_8_0 :C_9_0 :C_10_0 :C_11_0 :C_11_1"/>
    <junction id=":C_16_0" type="internal" x="100.72" y="95.05" incLanes=":C_9_0 NC_0" intLanes=":C_0_0 :C_1_0 :C_4_0 :C_4_1 :C_6_0 :C_11_0 :C_11_1 :C_13_0"/>
    <junction id=":C_17_0" type="internal" x="96.47" y="99.12" incLanes=":C_13_0 EC_0 EC_1 NC_0 SC_2" intLanes=":C_1_0 :C_2_0 :C_3_0 :C_4_0 :C_4_1 :C_8_0 :C_9_0"/>

    <connection from="EC" to="CN" fromLane="0" toLane="0" via=":C_3_0" tl="C" linkIndex="3" dir="r" state="o"/>
    <connection from="EC" to="CW" fromLane="0" toLane="0" via=":C_4_0" tl="C" linkIndex="4" dir="s" state="o"/>
    <connection from="EC" to="CW" fromLane="1" toLane="1" via=":C_4_1" tl="C" linkIndex="5" dir="s" state="o"/>
    <connection from="EC" to="CS" fromLane="1" toLane="1" via=":C_6_0" tl="C" linkIndex="6" dir="l" state="o"/>
    <connection from="NC" to="CW" fromLane="0" toLane="0" via=":C_0_0" tl="C" linkIndex="0" dir="r" state="o"/>
    <connection from="NC" to="CS" fromLane="0" toLane="1" via=":C_1_0" tl="C" linkIndex="1" dir="s" state="o"/>
    <connection from="NC" to="CE" fromLane="1" toLane="2" via=":C_2_0" tl="C" linkIndex="2" dir="l" state="o"/>
    <connection from="SC" to="CE" fromLane="1" toLane="1" via=":C_7_0" tl="C" linkIndex="7" dir="r" state="o"/>
    <connection from="SC" to="CN" fromLane="2" toLane="1" via=":C_8_0" tl="C" linkIndex="8" dir="s" state="o"/>
    <connection from="SC" to="CW" fromLane="2" toLane="1" via=":C_9_0" tl="C" linkIndex="9" dir="l" state="o"/>
    <connection from="WC" to="CS" fromLane="0" toLane="0" via=":C_10_0" tl="C" linkIndex="10" dir="r" state="o"/>
    <connection from="WC" to="CE" fromLane="0" toLane="1" via=":C_11_0" tl="C" linkIndex="11" dir="s" state="o"/>
    <connection from="WC" to="CE" fromLane="1" toLane="2" via=":C_11_1" tl="C" linkIndex="12" dir="s" state="o"/>
    <connection from="WC" to="CN" fromLane="1" toLane="1" via=":C_13_0" tl="C" linkIndex="13" dir="l" state="o"/>

    <connection from=":C_0" to="CW" fromLane="0" toLane="0" dir="s" state="M"/>
    <connection from=":C_1" to="CS" fromLane="0" toLane="1" dir="s" state="M"/>
    <connection from=":C_2" to="CE" fromLane="0" toLane="2" via=":C_14_0" dir="s" state="m"/>
    <connection from=":C_14" to="CE" fromLane="0" toLane="2" dir="s" state="M"/>
    <connection from=":C_3" to="CN" fromLane="0" toLane="0" dir="s" state="M"/>
    <connection from=":C_4" to="CW" fromLane="0" toLane="0" dir="s" state="M"/>
    <connection from=":C_4" to="CW" fromLane="1" toLane="1" dir="s" state="M"/>
    <connection from=":C_6" to="CS" fromLane="0" toLane="1" via=":C_15_0" dir="s" state="m"/>
    <connection from=":C_15" to="CS" fromLane="0" toLane="1" dir="s" state="M"/>
    <connection from=":C_7" to="CE" fromLane="0" toLane="1" dir="s" state="M"/>
    <connection from=":C_8" to="CN" fromLane="0" toLane="1" dir="s" state="M"/>
    <connection from=":C_9" to="CW" fromLane="0" toLane="1" via=":C_16_0" dir="s" state="m"/>
    <connection from=":C_16" to="CW" fromLane="0" toLane="1" dir="s" state="M"/>
    <connection from=":C_10" to="CS" fromLane="0" toLane="0" dir="s" state="M"/>
    <connection from=":C_11" to="CE" fromLane="0" toLane="1" dir="s" state="M"/>
    <connection from=":C_11" to="CE" fromLane="1" toLane="2" dir="s" state="M"/>
    <connection from=":C_13" to="CN" fromLane="0" toLane="1" via=":C_17_0" dir="s" state="m"/>
    <connection from=":C_17" to="CN" fromLane="0" toLane="1" dir="s" state="M"/>

    <connection from=":C_w0" to="CE" fromLane="0" toLane="0" dir="s" state="M"/>
    <connection from="SC" to=":C_w0" fromLane="0" toLane="0" dir="s" state="M"/>
</net>
