<?xml version="1.0" encoding="UTF-8"?>

<!-- generated on Wed Mar  7 14:15:32 2018 by SUMO Version v0_32_0+0665-34f9d25
This data file and the accompanying materials
are made available under the terms of the Eclipse Public License v2.0
which accompanies this distribution, and is available at
http://www.eclipse.org/legal/epl-v20.html
SPDX-License-Identifier: EPL-2.0
<configuration xmlns:xsi="http://www.w3.org/2001/XMLSchema-instance" xsi:noNamespaceSchemaLocation="http://sumo.dlr.de/xsd/sumoConfiguration.xsd">

    <input>
        <net-file value="net.net.xml"/>
        <route-files value="input_routes.rou.xml"/>
        <additional-files value="input_additional.add.xml"/>
    </input>

    <output>
        <write-license value="true"/>
    </output>

    <time>
        <begin value="100"/>
        <end value="300"/>
    </time>

    <report>
        <xml-validation value="never"/>
        <duration-log.disable value="true"/>
        <no-step-log value="true"/>
    </report>

</configuration>
-->

<tlsStates xmlns:xsi="http://www.w3.org/2001/XMLSchema-instance" xsi:noNamespaceSchemaLocation="http://sumo.dlr.de/xsd/tlsstates_file.xsd">
    <tlsState time="100.00" id="0" programID="0" phase="5" state="rrrryyggrrrryygg"/>
    <tlsState time="101.00" id="0" programID="0" phase="6" state="rrrrrrGGrrrrrrGG"/>
    <tlsState time="107.00" id="0" programID="0" phase="7" state="rrrrrryyrrrrrryy"/>
    <tlsState time="110.00" id="0" programID="0" phase="0" state="GGggrrrrGGggrrrr"/>
    <tlsState time="143.00" id="0" programID="0" phase="1" state="yyggrrrryyggrrrr"/>
    <tlsState time="146.00" id="0" programID="0" phase="2" state="rrGGrrrrrrGGrrrr"/>
    <tlsState time="152.00" id="0" programID="0" phase="3" state="rryyrrrrrryyrrrr"/>
    <tlsState time="155.00" id="0" programID="0" phase="4" state="rrrrGGggrrrrGGgg"/>
    <tlsState time="188.00" id="0" programID="0" phase="5" state="rrrryyggrrrryygg"/>
    <tlsState time="191.00" id="0" programID="0" phase="6" state="rrrrrrGGrrrrrrGG"/>
    <tlsState time="197.00" id="0" programID="0" phase="7" state="rrrrrryyrrrrrryy"/>
    <tlsState time="200.00" id="0" programID="0" phase="0" state="GGggrrrrGGggrrrr"/>
    <tlsState time="233.00" id="0" programID="0" phase="1" state="yyggrrrryyggrrrr"/>
    <tlsState time="236.00" id="0" programID="0" phase="2" state="rrGGrrrrrrGGrrrr"/>
    <tlsState time="242.00" id="0" programID="0" phase="3" state="rryyrrrrrryyrrrr"/>
    <tlsState time="245.00" id="0" programID="0" phase="4" state="rrrrGGggrrrrGGgg"/>
    <tlsState time="278.00" id="0" programID="0" phase="5" state="rrrryyggrrrryygg"/>
    <tlsState time="281.00" id="0" programID="0" phase="6" state="rrrrrrGGrrrrrrGG"/>
    <tlsState time="287.00" id="0" programID="0" phase="7" state="rrrrrryyrrrrrryy"/>
    <tlsState time="290.00" id="0" programID="0" phase="0" state="GGggrrrrGGggrrrr"/>
</tlsStates>
