<?xml version="1.0" encoding="UTF-8"?>

<!-- generated on 01.09.2020 11:01:27 by Eclipse SUMO netedit Version v1_6_0+1863-6f06e94ba6
<configuration xmlns:xsi="http://www.w3.org/2001/XMLSchema-instance" xsi:noNamespaceSchemaLocation="http://sumo.dlr.de/xsd/netconvertConfiguration.xsd">

    <input>
        <sumo-net-file value="C:\Users\alva_pa\.texttest\tmp\netedit.gui.01Sep110027.16572\netedit.gui\demandElements\stop\stopParkingArea\create\extension\input_net.net.xml"/>
    </input>

    <output>
        <output-file value="C:\Users\alva_pa\.texttest\tmp\netedit.gui.01Sep110027.16572\netedit.gui\demandElements\stop\stopParkingArea\create\extension\net.net.xml"/>
    </output>

    <processing>
        <geometry.min-radius.fix.railways value="false"/>
        <geometry.max-grade.fix value="false"/>
        <offset.disable-normalization value="true"/>
        <lefthand value="false"/>
    </processing>

    <junctions>
        <no-turnarounds value="true"/>
        <junctions.corner-detail value="5"/>
        <junctions.limit-turn-speed value="5.5"/>
        <rectangular-lane-cut value="false"/>
    </junctions>

    <pedestrian>
        <walkingareas value="false"/>
    </pedestrian>

    <netedit>
        <additional-files value="C:\Users\alva_pa\.texttest\tmp\netedit.gui.01Sep110027.16572\netedit.gui\demandElements\stop\stopParkingArea\create\extension\additionals.xml"/>
        <additionals-output value="C:\Users\alva_pa\.texttest\tmp\netedit.gui.01Sep110027.16572\netedit.gui\demandElements\stop\stopParkingArea\create\extension\additionals.xml"/>
        <route-files value="C:\Users\alva_pa\.texttest\tmp\netedit.gui.01Sep110027.16572\netedit.gui\demandElements\stop\stopParkingArea\create\extension\routes.xml"/>
        <demandelements-output value="C:\Users\alva_pa\.texttest\tmp\netedit.gui.01Sep110027.16572\netedit.gui\demandElements\stop\stopParkingArea\create\extension\routes.xml"/>
        <data-files value="C:\Users\alva_pa\.texttest\tmp\netedit.gui.01Sep110027.16572\netedit.gui\demandElements\stop\stopParkingArea\create\extension\datas.xml"/>
        <dataelements-output value="C:\Users\alva_pa\.texttest\tmp\netedit.gui.01Sep110027.16572\netedit.gui\demandElements\stop\stopParkingArea\create\extension\datas.xml"/>
    </netedit>

    <visualisation>
        <gui-settings-file value="C:\Users\alva_pa\.texttest\tmp\netedit.gui.01Sep110027.16572\netedit.gui\demandElements\stop\stopParkingArea\create\extension\gui-settings.xml"/>
        <window-size value="700,500"/>
        <window-pos value="50,50"/>
        <gui-testing value="true"/>
        <gui-testing-debug value="true"/>
        <gui-testing-debug-gl value="true"/>
        <gui-testing.setting-output value="C:\Users\alva_pa\.texttest\tmp\netedit.gui.01Sep110027.16572\netedit.gui\demandElements\stop\stopParkingArea\create\extension\guisettingsoutput.xml"/>
    </visualisation>

    <report>
        <no-warnings value="true"/>
        <aggregate-warnings value="5"/>
        <error-log value="C:\Users\alva_pa\.texttest\tmp\netedit.gui.01Sep110027.16572\netedit.gui\demandElements\stop\stopParkingArea\create\extension\log.txt"/>
    </report>

</configuration>
-->

<additional xmlns:xsi="http://www.w3.org/2001/XMLSchema-instance" xsi:noNamespaceSchemaLocation="http://sumo.dlr.de/xsd/additional_file.xsd">
    <parkingArea id="parkingAreaB" lane="gneE1_0" startPos="10.00" endPos="20.00"/>
</additional>
