<routes xmlns:xsi="http://www.w3.org/2001/XMLSchema-instance" xsi:noNamespaceSchemaLocation="http://sumo.dlr.de/xsd/routes_file.xsd">
	<vType id="car" sigma="0"/>
    <flow id="car" type="car" begin="0" end="100" number="100" route="r0"/>

</routes>
