<?xml version="1.0" encoding="UTF-8"?>

<!-- generated on Wed 21 Mar 2018 10:02:31 PM CET by Netedit Version v0_32_0+0833-90d4b46
<configuration xmlns:xsi="http://www.w3.org/2001/XMLSchema-instance" xsi:noNamespaceSchemaLocation="http://sumo.dlr.de/xsd/netconvertConfiguration.xsd">

    <input>
        <sumo-net-file value="network.net.xml"/>
    </input>

    <output>
        <output-file value="network.net.xml"/>
    </output>

    <processing>
        <no-internal-links value="true"/>
        <no-turnarounds value="true"/>
        <offset.disable-normalization value="true"/>
        <lefthand value="false"/>
        <junctions.corner-detail value="0"/>
        <rectangular-lane-cut value="false"/>
        <walkingareas value="false"/>
    </processing>

</configuration>
-->

<net version="0.27" xmlns:xsi="http://www.w3.org/2001/XMLSchema-instance" xsi:noNamespaceSchemaLocation="http://sumo.dlr.de/xsd/net_file.xsd">

    <location netOffset="0.00,0.00" convBoundary="0.00,0.00,500.00,0.00" origBoundary="-10000000000.00,-10000000000.00,10000000000.00,10000000000.00" projParameter="!"/>

    <edge id="gneE0" from="gneJ0" to="gneJ1" priority="1">
        <lane id="gneE0_0" index="0" speed="13.89" length="500.00" shape="0.00,-4.95 500.00,-4.95"/>
        <lane id="gneE0_1" index="1" speed="13.89" length="500.00" shape="0.00,-1.65 500.00,-1.65"/>
    </edge>

    <junction id="gneJ0" type="dead_end" x="0.00" y="0.00" incLanes="" intLanes="" shape="0.00,-0.05 0.00,-6.55"/>
    <junction id="gneJ1" type="dead_end" x="500.00" y="0.00" incLanes="gneE0_0 gneE0_1" intLanes="" shape="500.00,-6.55 500.00,-0.05"/>

</net>
