<?xml version="1.0" encoding="UTF-8"?>

<!-- generated on 2022-10-11 13:37:21 by Eclipse SUMO netedit Version v1_14_1+1589-5bfaa410f84
-->

<routes xmlns:xsi="http://www.w3.org/2001/XMLSchema-instance" xsi:noNamespaceSchemaLocation="http://sumo.dlr.de/xsd/routes_file.xsd">
    <!-- VTypes -->
    <vType id="customType"/>
    <vType id="type1"/>
    <vType id="type2"/>
    <!-- Vehicles, containers and containers (sorted by depart) -->
    <container id="c_0" depart="0.00">
        <tranship from="gneE2" to="gneE2"/>
        <transport containerStop="containerStopA" arrivalPos="7.00" modes="public" lines="custom line" vTypes="type1"/>
        <transport containerStop="containerStopB" arrivalPos="7.00" modes="car" lines="custom line" vTypes="type2"/>
    </container>
</routes>
