<?xml version="1.0" encoding="UTF-8"?>

<!-- generated on 28.11.2018 14:27:39 by Eclipse SUMO netedit Version v1_0_0+1123-7e66fbd65e
<configuration xmlns:xsi="http://www.w3.org/2001/XMLSchema-instance" xsi:noNamespaceSchemaLocation="http://sumo.dlr.de/xsd/netconvertConfiguration.xsd">

    <input>
        <sumo-net-file value="C:/Users/SUMO-Test/.texttest/tmp/netedit.gui.28Nov142137.9884/netedit.gui/additionalElements/lanecalibrator/load/freq\input_net.net.xml"/>
    </input>

    <output>
        <output-file value="C:/Users/SUMO-Test/.texttest/tmp/netedit.gui.28Nov142137.9884/netedit.gui/additionalElements/lanecalibrator/load/freq\net.net.xml"/>
    </output>

    <processing>
        <offset.disable-normalization value="true"/>
        <lefthand value="false"/>
    </processing>

    <junctions>
        <no-turnarounds value="true"/>
        <junctions.corner-detail value="5"/>
        <junctions.limit-turn-speed value="5.5"/>
        <rectangular-lane-cut value="false"/>
    </junctions>

    <pedestrian>
        <walkingareas value="false"/>
    </pedestrian>

    <netedit>
        <sumo-additionals-file value="C:/Users/SUMO-Test/.texttest/tmp/netedit.gui.28Nov142137.9884/netedit.gui/additionalElements/lanecalibrator/load/freq\input_additionals.add.xml"/>
        <additionals-output value="C:/Users/SUMO-Test/.texttest/tmp/netedit.gui.28Nov142137.9884/netedit.gui/additionalElements/lanecalibrator/load/freq\additionals.xml"/>
        <shapes-output value="C:/Users/SUMO-Test/.texttest/tmp/netedit.gui.28Nov142137.9884/netedit.gui/additionalElements/lanecalibrator/load/freq\shapes.xml"/>
    </netedit>

    <visualisation>
        <gui-settings-file value="C:/Users/SUMO-Test/.texttest/tmp/netedit.gui.28Nov142137.9884/netedit.gui/additionalElements/lanecalibrator/load/freq\gui-settings.xml"/>
        <window-size value="700,500"/>
        <window-pos value="50,50"/>
        <gui-testing value="true"/>
        <gui-testing-debug value="true"/>
        <gui-testing-debug-gl value="true"/>
    </visualisation>

    <report>
        <no-warnings value="true"/>
        <error-log value="C:/Users/SUMO-Test/.texttest/tmp/netedit.gui.28Nov142137.9884/netedit.gui/additionalElements/lanecalibrator/load/freq\log.txt"/>
    </report>

</configuration>
-->

<additional xmlns:xsi="http://www.w3.org/2001/XMLSchema-instance" xsi:noNamespaceSchemaLocation="http://sumo.dlr.de/xsd/additional_file.xsd">
    <calibrator id="calibrator01" lane="gneE0_0" pos="20.00" output="calibrator01.txt"/>
    <calibrator id="calibrator02" lane="gneE0_0" pos="22.00" output="calibrator02.txt"/>
    <calibrator id="calibrator03" lane="gneE0_0" pos="24.00" output="calibrator03.txt"/>
    <calibrator id="calibrator04" lane="gneE0_0" pos="26.00" freq="120.50" output="calibrator04.txt"/>
</additional>
