<?xml version="1.0" encoding="UTF-8"?>

<!-- generated on 23.10.2019 16:28:42 by Eclipse SUMO netedit Version v1_3_1+0676-fb4b913081
<configuration xmlns:xsi="http://www.w3.org/2001/XMLSchema-instance" xsi:noNamespaceSchemaLocation="http://sumo.dlr.de/xsd/netconvertConfiguration.xsd">

    <input>
        <sumo-net-file value="C:\Users\alva_pa\.texttest\tmp\netedit.gui.23Oct161334.3828\netedit.gui\shapeElements\poly\create\id\input_net.net.xml"/>
    </input>

    <output>
        <output-file value="C:\Users\alva_pa\.texttest\tmp\netedit.gui.23Oct161334.3828\netedit.gui\shapeElements\poly\create\id\net.net.xml"/>
    </output>

    <processing>
        <geometry.max-grade.fix value="false"/>
        <offset.disable-normalization value="true"/>
        <lefthand value="false"/>
    </processing>

    <junctions>
        <no-turnarounds value="true"/>
        <junctions.corner-detail value="5"/>
        <junctions.limit-turn-speed value="5.5"/>
        <rectangular-lane-cut value="false"/>
    </junctions>

    <pedestrian>
        <walkingareas value="false"/>
    </pedestrian>

    <netedit>
        <additional-files value="C:\Users\alva_pa\.texttest\tmp\netedit.gui.23Oct161334.3828\netedit.gui\shapeElements\poly\create\id\additionals.xml"/>
        <additionals-output value="C:\Users\alva_pa\.texttest\tmp\netedit.gui.23Oct161334.3828\netedit.gui\shapeElements\poly\create\id\additionals.xml"/>
        <route-files value="C:\Users\alva_pa\.texttest\tmp\netedit.gui.23Oct161334.3828\netedit.gui\shapeElements\poly\create\id\routes.xml"/>
        <demandelements-output value="C:\Users\alva_pa\.texttest\tmp\netedit.gui.23Oct161334.3828\netedit.gui\shapeElements\poly\create\id\routes.xml"/>
    </netedit>

    <visualisation>
        <gui-settings-file value="C:\Users\alva_pa\.texttest\tmp\netedit.gui.23Oct161334.3828\netedit.gui\shapeElements\poly\create\id\gui-settings.xml"/>
        <window-size value="700,500"/>
        <window-pos value="50,50"/>
        <gui-testing value="true"/>
        <gui-testing-debug value="true"/>
        <gui-testing-debug-gl value="true"/>
    </visualisation>

    <report>
        <no-warnings value="true"/>
        <error-log value="C:\Users\alva_pa\.texttest\tmp\netedit.gui.23Oct161334.3828\netedit.gui\shapeElements\poly\create\id\log.txt"/>
    </report>

</configuration>
-->

<additional xmlns:xsi="http://www.w3.org/2001/XMLSchema-instance" xsi:noNamespaceSchemaLocation="http://sumo.dlr.de/xsd/additional_file.xsd">
    <poly id="custom_ID" color="red" fill="0" layer="128.00" shape="22.000000,20.000000 22.000000,25.000000 17.000000,25.000000 17.000000,20.000000 22.000000,20.000000"/>
    <poly id="poly_0" color="red" fill="0" layer="128.00" shape="1.000000,20.000000 1.000000,25.000000 -4.000000,25.000000 -4.000000,20.000000 1.000000,20.000000"/>
    <poly id="poly_1" color="red" fill="0" layer="128.00" shape="12.000000,20.000000 12.000000,25.000000 6.000000,25.000000 6.000000,20.000000 12.000000,20.000000"/>
</additional>
