<edges xmlns:xsi="http://www.w3.org/2001/XMLSchema-instance" xsi:noNamespaceSchemaLocation="http://sumo-sim.org/xsd/edges_file.xsd">
   <edge id="o" from="0" to="1"/>
   <edge id="2o" from="1" to="0"/>
</edges>
