<?xml version="1.0" encoding="UTF-8"?>
<nodes>
  <node id="910" x="1000.0" y="1000.0" />

  <node id="920" x="1800.0" y="+200.0" />

  <node id="930" x="4500.0" y="1000.0" />

  <node id="1" x="+1200.0" y="+1000.0" />

  <node id="2" x="+1800.0" y="+400.0" />

  <node id="3" x="+4300.0" y="+1000.0" />

  <node id="4" x="+1800.0" y="+1000.0" />

  <node id="5" x="+2300.0" y="+1300.0" />

  <node id="6" x="+2300.0" y="+1000.0" />

  <node id="7" x="+2300.0" y="+700.0" />

  <node id="8" x="+2800.0" y="+2500.0" />

  <node id="9" x="+3000.0" y="+1300.0" />

  <node id="10" x="+3300.0" y="+1300.0" />

  <node id="11" x="+3300.0" y="+1000.0" />

  <node id="12" x="+3300.0" y="+700.0" />

  <node id="13" x="+3800.0" y="+1000.0" type="traffic_light" />

</nodes>