<?xml version="1.0"?>

<!-- generated on 02/19/09 14:35:36 by SUMO sumo Version dev-SVN-r6824
<configuration>

   <input>
      <net-file>net.net.xml</net-file>
      <additional-files>input_routes.rou.xml,input_additional.add.xml,input_additional2.add.xml</additional-files>
   </input>

   <time>
      <begin>0</begin>
      <end>1000</end>
   </time>

   <processing>
      <no-duration-log>true</no-duration-log>
      <no-step-log>true</no-step-log>
   </processing>

   <traci_server>
      <remote-port>8863</remote-port>
      <penetration>0.7</penetration>
   </traci_server>

</configuration>
-->

<e3-detector>
   <interval begin="0" end="9" id="3/1to2/1" meanTravelTime="-1.00" meanSpeed="-1.00" meanHaltsPerVehicle="-1.00" vehicleSum="0" meanSpeedWithin="-1.00" meanHaltsPerVehicleWithin="-1.00" meanDurationWithin="-1.00" vehicleSumWithin="0" meanIntervalSpeedWithin="-1.00" meanIntervalHaltsPerVehicleWithin="-1.00" meanIntervalDurationWithin="-1.00"/>
   <interval begin="0" end="9" id="4/1to3/1" meanTravelTime="-1.00" meanSpeed="-1.00" meanHaltsPerVehicle="-1.00" vehicleSum="0" meanSpeedWithin="9.50" meanHaltsPerVehicleWithin="0.00" meanDurationWithin="6.50" vehicleSumWithin="2" meanIntervalSpeedWithin="9.50" meanIntervalHaltsPerVehicleWithin="0.00" meanIntervalDurationWithin="6.50"/>
   <interval begin="10" end="19" id="3/1to2/1" meanTravelTime="-1.00" meanSpeed="-1.00" meanHaltsPerVehicle="-1.00" vehicleSum="0" meanSpeedWithin="-1.00" meanHaltsPerVehicleWithin="-1.00" meanDurationWithin="-1.00" vehicleSumWithin="0" meanIntervalSpeedWithin="-1.00" meanIntervalHaltsPerVehicleWithin="-1.00" meanIntervalDurationWithin="-1.00"/>
   <interval begin="10" end="19" id="4/1to3/1" meanTravelTime="-1.00" meanSpeed="-1.00" meanHaltsPerVehicle="-1.00" vehicleSum="0" meanSpeedWithin="9.50" meanHaltsPerVehicleWithin="0.00" meanDurationWithin="16.50" vehicleSumWithin="2" meanIntervalSpeedWithin="9.50" meanIntervalHaltsPerVehicleWithin="0.00" meanIntervalDurationWithin="10.00"/>
   <interval begin="20" end="29" id="3/1to2/1" meanTravelTime="-1.00" meanSpeed="-1.00" meanHaltsPerVehicle="-1.00" vehicleSum="0" meanSpeedWithin="-1.00" meanHaltsPerVehicleWithin="-1.00" meanDurationWithin="-1.00" vehicleSumWithin="0" meanIntervalSpeedWithin="-1.00" meanIntervalHaltsPerVehicleWithin="-1.00" meanIntervalDurationWithin="-1.00"/>
   <interval begin="20" end="29" id="4/1to3/1" meanTravelTime="21.11" meanSpeed="9.50" meanHaltsPerVehicle="0.00" vehicleSum="2" meanSpeedWithin="-1.00" meanHaltsPerVehicleWithin="-1.00" meanDurationWithin="-1.00" vehicleSumWithin="0" meanIntervalSpeedWithin="-1.00" meanIntervalHaltsPerVehicleWithin="-1.00" meanIntervalDurationWithin="-1.00"/>
   <interval begin="30" end="39" id="3/1to2/1" meanTravelTime="-1.00" meanSpeed="-1.00" meanHaltsPerVehicle="-1.00" vehicleSum="0" meanSpeedWithin="-1.00" meanHaltsPerVehicleWithin="-1.00" meanDurationWithin="-1.00" vehicleSumWithin="0" meanIntervalSpeedWithin="-1.00" meanIntervalHaltsPerVehicleWithin="-1.00" meanIntervalDurationWithin="-1.00"/>
   <interval begin="30" end="39" id="4/1to3/1" meanTravelTime="-1.00" meanSpeed="-1.00" meanHaltsPerVehicle="-1.00" vehicleSum="0" meanSpeedWithin="-1.00" meanHaltsPerVehicleWithin="-1.00" meanDurationWithin="-1.00" vehicleSumWithin="0" meanIntervalSpeedWithin="-1.00" meanIntervalHaltsPerVehicleWithin="-1.00" meanIntervalDurationWithin="-1.00"/>
   <interval begin="40" end="49" id="3/1to2/1" meanTravelTime="-1.00" meanSpeed="-1.00" meanHaltsPerVehicle="-1.00" vehicleSum="0" meanSpeedWithin="9.50" meanHaltsPerVehicleWithin="0.00" meanDurationWithin="5.28" vehicleSumWithin="2" meanIntervalSpeedWithin="9.50" meanIntervalHaltsPerVehicleWithin="0.00" meanIntervalDurationWithin="5.28"/>
   <interval begin="40" end="49" id="4/1to3/1" meanTravelTime="-1.00" meanSpeed="-1.00" meanHaltsPerVehicle="-1.00" vehicleSum="0" meanSpeedWithin="-1.00" meanHaltsPerVehicleWithin="-1.00" meanDurationWithin="-1.00" vehicleSumWithin="0" meanIntervalSpeedWithin="-1.00" meanIntervalHaltsPerVehicleWithin="-1.00" meanIntervalDurationWithin="-1.00"/>
   <interval begin="50" end="59" id="3/1to2/1" meanTravelTime="-1.00" meanSpeed="-1.00" meanHaltsPerVehicle="-1.00" vehicleSum="0" meanSpeedWithin="9.50" meanHaltsPerVehicleWithin="0.00" meanDurationWithin="15.28" vehicleSumWithin="2" meanIntervalSpeedWithin="9.50" meanIntervalHaltsPerVehicleWithin="0.00" meanIntervalDurationWithin="10.00"/>
   <interval begin="50" end="59" id="4/1to3/1" meanTravelTime="-1.00" meanSpeed="-1.00" meanHaltsPerVehicle="-1.00" vehicleSum="0" meanSpeedWithin="-1.00" meanHaltsPerVehicleWithin="-1.00" meanDurationWithin="-1.00" vehicleSumWithin="0" meanIntervalSpeedWithin="-1.00" meanIntervalHaltsPerVehicleWithin="-1.00" meanIntervalDurationWithin="-1.00"/>
   <interval begin="60" end="69" id="3/1to2/1" meanTravelTime="20.00" meanSpeed="10.00" meanHaltsPerVehicle="0.00" vehicleSum="1" meanSpeedWithin="9.00" meanHaltsPerVehicleWithin="0.00" meanDurationWithin="20.61" vehicleSumWithin="1" meanIntervalSpeedWithin="9.00" meanIntervalHaltsPerVehicleWithin="0.00" meanIntervalDurationWithin="10.00"/>
   <interval begin="60" end="69" id="4/1to3/1" meanTravelTime="-1.00" meanSpeed="-1.00" meanHaltsPerVehicle="-1.00" vehicleSum="0" meanSpeedWithin="-1.00" meanHaltsPerVehicleWithin="-1.00" meanDurationWithin="-1.00" vehicleSumWithin="0" meanIntervalSpeedWithin="-1.00" meanIntervalHaltsPerVehicleWithin="-1.00" meanIntervalDurationWithin="-1.00"/>
   <interval begin="70" end="79" id="3/1to2/1" meanTravelTime="22.22" meanSpeed="9.00" meanHaltsPerVehicle="0.00" vehicleSum="1" meanSpeedWithin="-1.00" meanHaltsPerVehicleWithin="-1.00" meanDurationWithin="-1.00" vehicleSumWithin="0" meanIntervalSpeedWithin="-1.00" meanIntervalHaltsPerVehicleWithin="-1.00" meanIntervalDurationWithin="-1.00"/>
   <interval begin="70" end="79" id="4/1to3/1" meanTravelTime="-1.00" meanSpeed="-1.00" meanHaltsPerVehicle="-1.00" vehicleSum="0" meanSpeedWithin="-1.00" meanHaltsPerVehicleWithin="-1.00" meanDurationWithin="-1.00" vehicleSumWithin="0" meanIntervalSpeedWithin="-1.00" meanIntervalHaltsPerVehicleWithin="-1.00" meanIntervalDurationWithin="-1.00"/>
   <interval begin="80" end="89" id="3/1to2/1" meanTravelTime="-1.00" meanSpeed="-1.00" meanHaltsPerVehicle="-1.00" vehicleSum="0" meanSpeedWithin="-1.00" meanHaltsPerVehicleWithin="-1.00" meanDurationWithin="-1.00" vehicleSumWithin="0" meanIntervalSpeedWithin="-1.00" meanIntervalHaltsPerVehicleWithin="-1.00" meanIntervalDurationWithin="-1.00"/>
   <interval begin="80" end="89" id="4/1to3/1" meanTravelTime="-1.00" meanSpeed="-1.00" meanHaltsPerVehicle="-1.00" vehicleSum="0" meanSpeedWithin="-1.00" meanHaltsPerVehicleWithin="-1.00" meanDurationWithin="-1.00" vehicleSumWithin="0" meanIntervalSpeedWithin="-1.00" meanIntervalHaltsPerVehicleWithin="-1.00" meanIntervalDurationWithin="-1.00"/>
   <interval begin="90" end="1000" id="3/1to2/1" meanTravelTime="-1.00" meanSpeed="-1.00" meanHaltsPerVehicle="-1.00" vehicleSum="0" meanSpeedWithin="-1.00" meanHaltsPerVehicleWithin="-1.00" meanDurationWithin="-1.00" vehicleSumWithin="0" meanIntervalSpeedWithin="-1.00" meanIntervalHaltsPerVehicleWithin="-1.00" meanIntervalDurationWithin="-1.00"/>
   <interval begin="90" end="1000" id="4/1to3/1" meanTravelTime="-1.00" meanSpeed="-1.00" meanHaltsPerVehicle="-1.00" vehicleSum="0" meanSpeedWithin="-1.00" meanHaltsPerVehicleWithin="-1.00" meanDurationWithin="-1.00" vehicleSumWithin="0" meanIntervalSpeedWithin="-1.00" meanIntervalHaltsPerVehicleWithin="-1.00" meanIntervalDurationWithin="-1.00"/>
</e3-detector>
