<?xml version="1.0" encoding="UTF-8"?>
<nodes>
  <node id="bottom-left" x="0" y="0"/>
  <node id="bottom-right" x="1250" y="0"/>
  <node id="top-right" x="1250" y="1250"/>
  <node id="top-left" x="0" y="1250"/>
</nodes>
