<?xml version="1.0" encoding="UTF-8"?>

<!-- generated on 2021-11-12 13:35:57 by Eclipse SUMO netedit Version v1_10_0+2227-eed75efe9a7
-->

<routes xmlns:xsi="http://www.w3.org/2001/XMLSchema-instance" xsi:noNamespaceSchemaLocation="http://sumo.dlr.de/xsd/routes_file.xsd">
    <vehicle id="vehicle_0" depart="0.00">
        <route edges="gneE0 gneE1" color="yellow"/>
        <stop parkingArea="parkingAreaB"/>
        <stop parkingArea="parkingAreaB" extension="0.00"/>
        <stop parkingArea="parkingAreaB" extension="0.00"/>
        <stop parkingArea="parkingAreaB" extension="22.33"/>
    </vehicle>
</routes>
