<?xml version="1.0" encoding="UTF-8"?>

<!-- generated on Wed 15 Nov 2017 10:42:52 PM CET by Netedit Version v0_31_0+1150-314a10c
<?xml version="1.0" encoding="UTF-8"?>

<configuration xmlns:xsi="http://www.w3.org/2001/XMLSchema-instance" xsi:noNamespaceSchemaLocation="http://sumo.dlr.de/xsd/netconvertConfiguration.xsd">

    <input>
        <sumo-net-file value="sumo/sublane_model/bugs/ticket3613/net.net.xml"/>
    </input>

    <output>
        <output-file value="sumo/sublane_model/bugs/ticket3613/net.net.xml"/>
    </output>

    <processing>
        <no-internal-links value="true"/>
        <no-turnarounds value="true"/>
        <offset.disable-normalization value="true"/>
        <lefthand value="false"/>
        <junctions.corner-detail value="0"/>
        <rectangular-lane-cut value="false"/>
        <walkingareas value="false"/>
    </processing>

    <visualisation>
        <registry-viewport value="true"/>
    </visualisation>

</configuration>
-->

<net version="0.27" xmlns:xsi="http://www.w3.org/2001/XMLSchema-instance" xsi:noNamespaceSchemaLocation="http://sumo.dlr.de/xsd/net_file.xsd">

    <location netOffset="0.00,0.00" convBoundary="0.00,0.00,500.00,0.00" origBoundary="-10000000000.00,-10000000000.00,10000000000.00,10000000000.00" projParameter="!"/>

    <edge id="beg" from="n0" to="n1" priority="1">
        <lane id="beg_0" index="0" speed="40.00" length="500.00" shape="0.00,-1.65 500.00,-1.65"/>
    </edge>

    <junction id="n0" type="dead_end" x="0.00" y="0.00" incLanes="" intLanes="" shape="0.00,-0.05 0.00,-3.25"/>
    <junction id="n1" type="dead_end" x="500.00" y="0.00" incLanes="beg_0" intLanes="" shape="500.00,-3.25 500.00,-0.05"/>

</net>
