<?xml version="1.0" encoding="UTF-8"?>

<!-- generated on Tue Jul 12 16:31:55 2016 by SUMO netconvert Version dev-SVN-r21152
<?xml version="1.0" encoding="UTF-8"?>

<configuration xmlns:xsi="http://www.w3.org/2001/XMLSchema-instance" xsi:noNamespaceSchemaLocation="http://sumo.dlr.de/xsd/netconvertConfiguration.xsd">

    <input>
        <vissim-file value="vissim.inpx"/>
    </input>

    <output>
        <output-file value="net.net.xml"/>
        <output.street-names value="true"/>
    </output>

    <processing>
        <geometry.junction-mismatch-threshold value="100"/>
        <edges.join value="true"/>
    </processing>

    <report>
        <verbose value="true"/>
        <xml-validation value="never"/>
    </report>

</configuration>
-->

<net version="0.27" xmlns:xsi="http://www.w3.org/2001/XMLSchema-instance" xsi:noNamespaceSchemaLocation="http://sumo.dlr.de/xsd/net_file.xsd">

    <location netOffset="-975.72,68.20" convBoundary="0.00,0.00,55.85,70.00" origBoundary="975.72,-68.20,1031.57,1.80" projParameter="!"/>

    <edge id=":0_0" function="internal">
        <lane id=":0_0_0" index="0" speed="13.89" length="15.84" shape="55.52,26.21 55.45,42.05"/>
    </edge>
    <edge id=":0_1" function="internal">
        <lane id=":0_1_0" index="0" speed="13.89" length="10.05" shape="55.52,26.21 55.04,31.78 53.76,35.75 53.57,35.97"/>
    </edge>
    <edge id=":0_6" function="internal">
        <lane id=":0_6_0" index="0" speed="13.89" length="5.86" shape="53.57,35.97 51.69,38.14 48.81,38.93"/>
    </edge>
    <edge id=":0_2" function="internal">
        <lane id=":0_2_0" index="0" speed="13.89" length="10.49" shape="48.82,35.43 50.18,34.85 51.16,33.11 51.78,30.22 52.02,26.16"/>
    </edge>
    <edge id=":0_3" function="internal">
        <lane id=":0_3_0" index="0" speed="13.89" length="10.69" shape="48.82,35.43 51.73,35.85 53.80,37.09 55.04,39.16 55.45,42.05"/>
    </edge>
    <edge id=":0_4" function="internal">
        <lane id=":0_4_0" index="0" speed="13.89" length="4.98" shape="51.95,41.96 51.76,40.64 51.17,39.69 50.19,39.12 48.81,38.93"/>
    </edge>
    <edge id=":0_5" function="internal">
        <lane id=":0_5_0" index="0" speed="13.89" length="15.80" shape="51.95,41.96 52.02,26.16"/>
    </edge>

    <edge id="1" from="1-begin" to="0" priority="-1" type="1" spreadType="center" shape="0.01,35.32 47.99,35.43">
        <lane id="1_0" index="0" speed="13.89" length="48.81" shape="0.01,35.32 48.82,35.43"/>
    </edge>
    <edge id="2" from="2-begin" to="0" priority="-1" type="1" spreadType="center" shape="55.85,0.04 55.45,31.90">
        <lane id="2_0" index="0" speed="13.89" length="26.16" shape="55.85,0.04 55.52,26.21"/>
    </edge>
    <edge id="4" from="0" to="4-end" priority="-1" type="1" spreadType="center" shape="55.45,42.28 55.35,70.00">
        <lane id="4_0" index="0" speed="13.89" length="27.95" shape="55.45,42.05 55.35,70.00"/>
    </edge>
    <edge id="5" from="0" to="5-end" priority="-1" type="1" spreadType="center" shape="47.98,38.93 0.00,38.82">
        <lane id="5_0" index="0" speed="13.89" length="48.81" shape="48.81,38.93 0.00,38.82"/>
    </edge>
    <edge id="6" from="0" to="6-end" priority="-1" type="1" spreadType="center" shape="51.95,31.85 52.35,0.00">
        <lane id="6_0" index="0" speed="13.89" length="26.16" shape="52.02,26.16 52.35,-0.00"/>
    </edge>
    <edge id="7" from="7-begin" to="0" priority="-1" type="1" spreadType="center" shape="51.85,69.68 51.95,41.96">
        <lane id="7_0" index="0" speed="13.89" length="27.72" shape="51.85,69.68 51.95,41.96"/>
    </edge>

    <junction id="0" type="priority" x="53.10" y="38.31" incLanes="2_0 1_0 7_0" intLanes=":0_0_0 :0_6_0 :0_2_0 :0_3_0 :0_4_0 :0_5_0" shape="57.12,26.23 50.42,26.14 48.82,33.83 48.81,40.53 50.35,42.03 57.05,42.05">
        <request index="0" response="001000" foes="001000" cont="0"/>
        <request index="1" response="001000" foes="111000" cont="1"/>
        <request index="2" response="000000" foes="100000" cont="0"/>
        <request index="3" response="000000" foes="100011" cont="0"/>
        <request index="4" response="000010" foes="000010" cont="0"/>
        <request index="5" response="001110" foes="001110" cont="0"/>
    </junction>
    <junction id="1-begin" type="unregulated" x="0.01" y="35.32" incLanes="" intLanes="" shape="0.00,36.92 0.01,33.72"/>
    <junction id="2-begin" type="unregulated" x="55.85" y="0.04" incLanes="" intLanes="" shape="54.25,0.02 57.45,0.06"/>
    <junction id="4-end" type="unregulated" x="55.35" y="70.00" incLanes="4_0" intLanes="" shape="56.95,70.01 53.75,69.99"/>
    <junction id="5-end" type="unregulated" x="0.00" y="38.82" incLanes="5_0" intLanes="" shape="-0.00,40.42 0.00,37.22"/>
    <junction id="6-end" type="unregulated" x="52.35" y="0.00" incLanes="6_0" intLanes="" shape="50.75,-0.02 53.95,0.02"/>
    <junction id="7-begin" type="unregulated" x="51.85" y="69.68" incLanes="" intLanes="" shape="53.45,69.69 50.25,69.68"/>

    <junction id=":0_6_0" type="internal" x="53.57" y="35.97" incLanes=":0_1_0" intLanes=":0_3_0 :0_4_0 :0_5_0"/>

    <connection from="1" to="6" fromLane="0" toLane="0" via=":0_2_0" dir="r" state="M"/>
    <connection from="1" to="4" fromLane="0" toLane="0" via=":0_3_0" dir="l" state="M"/>
    <connection from="2" to="4" fromLane="0" toLane="0" via=":0_0_0" dir="s" state="m"/>
    <connection from="2" to="5" fromLane="0" toLane="0" via=":0_1_0" dir="l" state="m"/>
    <connection from="7" to="5" fromLane="0" toLane="0" via=":0_4_0" dir="r" state="m"/>
    <connection from="7" to="6" fromLane="0" toLane="0" via=":0_5_0" dir="s" state="m"/>

    <connection from=":0_0" to="4" fromLane="0" toLane="0" dir="s" state="M"/>
    <connection from=":0_1" to="5" fromLane="0" toLane="0" via=":0_6_0" dir="s" state="m"/>
    <connection from=":0_6" to="5" fromLane="0" toLane="0" dir="s" state="M"/>
    <connection from=":0_2" to="6" fromLane="0" toLane="0" dir="s" state="M"/>
    <connection from=":0_3" to="4" fromLane="0" toLane="0" dir="s" state="M"/>
    <connection from=":0_4" to="5" fromLane="0" toLane="0" dir="s" state="M"/>
    <connection from=":0_5" to="6" fromLane="0" toLane="0" dir="s" state="M"/>

    <prohibition prohibitor="1->4" prohibited="2->4"/>
    <prohibition prohibitor="1->4" prohibited="2->5"/>
    <prohibition prohibitor="2->5" prohibited="7->5"/>
    <prohibition prohibitor="2->5" prohibited="7->6"/>
    <prohibition prohibitor="1->6" prohibited="7->6"/>
    <prohibition prohibitor="1->4" prohibited="7->6"/>
</net>
