<net>

   <edges no="4">0 1 2 3</edges>
   <node_count>4</node_count>


   <edge id="0" Length="493.50" Speed="36.00" Name="0" NoLanes="1" XFrom="0.00" YFrom="0.00" XTo="0.00" YTo="500.00" From="0" To="1" Priority="1" Angle="180.00" Type="" function="normal">
      <lanes>
         <lane id="0_0" depart="1" maxspeed="36.00" length="493.50" changeurge="0">1.75,3.25 1.75,496.75</lane>
      </lanes>
      <cedge id="1" via=":1">0_0</cedge>
   </edge>

   <edge id="1" Length="493.50" Speed="36.00" Name="1" NoLanes="1" XFrom="0.00" YFrom="500.00" XTo="500.00" YTo="500.00" From="1" To="2" Priority="1" Angle="270.00" Type="" function="normal">
      <lanes>
         <lane id="1_0" depart="1" maxspeed="36.00" length="493.50" changeurge="0">3.25,498.25 496.75,498.25</lane>
      </lanes>
      <cedge id="2" via=":2">1_0</cedge>
   </edge>

   <edge id="2" Length="493.50" Speed="36.00" Name="2" NoLanes="1" XFrom="500.00" YFrom="500.00" XTo="500.00" YTo="0.00" From="2" To="3" Priority="1" Angle="0.00" Type="" function="normal">
      <lanes>
         <lane id="2_0" depart="1" maxspeed="36.00" length="493.50" changeurge="0">498.25,496.75 498.25,3.25</lane>
      </lanes>
      <cedge id="3" via=":3">2_0</cedge>
   </edge>

   <edge id="3" Length="493.50" Speed="36.00" Name="3" NoLanes="1" XFrom="500.00" YFrom="0.00" XTo="0.00" YTo="0.00" From="3" To="0" Priority="1" Angle="90.00" Type="" function="normal">
      <lanes>
         <lane id="3_0" depart="1" maxspeed="36.00" length="493.50" changeurge="0">496.75,1.75 3.25,1.75</lane>
      </lanes>
      <cedge id="0" via=":0">3_0</cedge>
   </edge>


   <row-logic>
      <key>0</key>
      <requestsize>1</requestsize>
      <lanenumber>1</lanenumber>
      <logic>
         <logicitem request="0" response="0" foes="0"/>
      </logic>
   </row-logic>

   <row-logic>
      <key>1</key>
      <requestsize>1</requestsize>
      <lanenumber>1</lanenumber>
      <logic>
         <logicitem request="0" response="0" foes="0"/>
      </logic>
   </row-logic>

   <row-logic>
      <key>2</key>
      <requestsize>1</requestsize>
      <lanenumber>1</lanenumber>
      <logic>
         <logicitem request="0" response="0" foes="0"/>
      </logic>
   </row-logic>

   <row-logic>
      <key>3</key>
      <requestsize>1</requestsize>
      <lanenumber>1</lanenumber>
      <logic>
         <logicitem request="0" response="0" foes="0"/>
      </logic>
   </row-logic>



   <junction id="0" type="priority" x="0.00" y="0.00">
      <inclanes>3_0</inclanes>
      <shape>3.25,0.25 3.25,3.25 3.25,3.25 0.25,3.25 3.25,0.25 3.25,0.25</shape>
   </junction>

   <junction id="1" type="priority" x="0.00" y="500.00">
      <inclanes>0_0</inclanes>
      <shape>3.25,496.75 3.25,499.75 0.25,496.75 3.25,496.75 3.25,496.75</shape>
   </junction>

   <junction id="2" type="priority" x="500.00" y="500.00">
      <inclanes>1_0</inclanes>
      <shape>499.75,496.75 496.75,499.75 496.75,496.75 499.75,496.75 499.75,496.75</shape>
   </junction>

   <junction id="3" type="priority" x="500.00" y="0.00">
      <inclanes>2_0</inclanes>
      <shape>496.75,0.25 499.75,3.25 496.75,3.25 496.75,3.25 496.75,0.25 496.75,0.25</shape>
   </junction>


   <succ edge="0" lane="0_0" junction="1">
      <succlane lane="1_0" via=":1_0_0" yield="0" dir="r" state="M"/>
   </succ>

   <succ edge="1" lane="1_0" junction="2">
      <succlane lane="2_0" via=":2_0_0" yield="0" dir="t" state="M"/>
   </succ>

   <succ edge="2" lane="2_0" junction="3">
      <succlane lane="3_0" via=":3_0_0" yield="0" dir="r" state="M"/>
   </succ>

   <succ edge="3" lane="3_0" junction="0">
      <succlane lane="0_0" via=":0_0_0" yield="0" dir="r" state="M"/>
   </succ>


   <edgepos id="0" from="0" to="1" lane="0" function="normal"/>
   <edgepos id="1" from="1" to="2" lane="0" function="normal"/>
   <edgepos id="2" from="2" to="3" lane="0" function="normal"/>
   <edgepos id="3" from="3" to="0" lane="0" function="normal"/>

</net>
