<?xml version="1.0" encoding="UTF-8"?>

<!-- generated on 07.09.2020 14:51:22 by Eclipse SUMO netedit Version v1_6_0+2013-27eec12fcb
-->

<routes xmlns:xsi="http://www.w3.org/2001/XMLSchema-instance" xsi:noNamespaceSchemaLocation="http://sumo.dlr.de/xsd/routes_file.xsd">
    <flow id="flow_7" begin="0.00" end="100.00" probability="1.00">
        <route edges="gneE2 gneE4 gneE5" color="cyan"/>
    </flow>
    <flow id="flow_8" begin="0.00" end="100.00" probability="0.30">
        <route edges="gneE2 gneE4 gneE5" color="cyan"/>
    </flow>
</routes>
