<?xml version="1.0" encoding="UTF-8"?>

<!-- generated on 2022-04-12 09:39:08 by Eclipse SUMO netedit Version v1_12_0+2097-a9d6d94fee1
-->

<routes xmlns:xsi="http://www.w3.org/2001/XMLSchema-instance" xsi:noNamespaceSchemaLocation="http://sumo.dlr.de/xsd/routes_file.xsd">
    <!-- VTypes -->
    <vType id="t_0" sigma="0.52"/>
</routes>
