<routes xmlns:xsi="http://www.w3.org/2001/XMLSchema-instance" xsi:noNamespaceSchemaLocation="http://sumo.dlr.de/xsd/routes_file.xsd">

    <vType id="t" speedDev="0.1" tau="1.0" carFollowModel="IDM">
        <param key="has.driverstate.device" value="false"/>
        <param key="device.driverstate.initialAwareness" value="0.2"/>
    </vType>
    <flow id="1" type="t" route="circle" begin="0" end="1" number="1000" departPos="last" departSpeed="5"/>
</routes>
