<?xml version="1.0" encoding="UTF-8"?>

<!-- generated on 2022-03-04 10:24:09 by Eclipse SUMO netedit Version v1_12_0+1137-e9106068858
-->

<additional xmlns:xsi="http://www.w3.org/2001/XMLSchema-instance" xsi:noNamespaceSchemaLocation="http://sumo.dlr.de/xsd/additional_file.xsd">
    <!-- Shapes -->
    <poi id="POI_nonDeleted" color="yellow" layer="20.00" lane="gneE1_0" pos="30.00" width="10.00" height="10.00"/>
</additional>
