<?xml version="1.0" encoding="UTF-8"?>

<!-- generated on 22.11.2018 10:48:57 by Eclipse SUMO netedit Version v1_0_0+1004-1c7613c4e7
<configuration xmlns:xsi="http://www.w3.org/2001/XMLSchema-instance" xsi:noNamespaceSchemaLocation="http://sumo.dlr.de/xsd/netconvertConfiguration.xsd">

    <input>
        <sumo-net-file value="C:/Users/SUMO-Test/.texttest/tmp/netedit.gui.22Nov104814.4140/netedit.gui/additionalElements/e3detector/load/speedthreshold\input_net.net.xml"/>
    </input>

    <output>
        <output-file value="C:/Users/SUMO-Test/.texttest/tmp/netedit.gui.22Nov104814.4140/netedit.gui/additionalElements/e3detector/load/speedthreshold\net.net.xml"/>
    </output>

    <processing>
        <offset.disable-normalization value="true"/>
        <lefthand value="false"/>
    </processing>

    <junctions>
        <no-turnarounds value="true"/>
        <junctions.corner-detail value="5"/>
        <junctions.limit-turn-speed value="5.5"/>
        <rectangular-lane-cut value="false"/>
    </junctions>

    <pedestrian>
        <walkingareas value="false"/>
    </pedestrian>

    <netedit>
        <sumo-additionals-file value="C:/Users/SUMO-Test/.texttest/tmp/netedit.gui.22Nov104814.4140/netedit.gui/additionalElements/e3detector/load/speedthreshold\input_additionals.add.xml"/>
        <additionals-output value="C:/Users/SUMO-Test/.texttest/tmp/netedit.gui.22Nov104814.4140/netedit.gui/additionalElements/e3detector/load/speedthreshold\additionals.xml"/>
        <shapes-output value="C:/Users/SUMO-Test/.texttest/tmp/netedit.gui.22Nov104814.4140/netedit.gui/additionalElements/e3detector/load/speedthreshold\shapes.xml"/>
    </netedit>

    <visualisation>
        <gui-settings-file value="C:/Users/SUMO-Test/.texttest/tmp/netedit.gui.22Nov104814.4140/netedit.gui/additionalElements/e3detector/load/speedthreshold\gui-settings.xml"/>
        <window-size value="700,500"/>
        <window-pos value="50,50"/>
        <gui-testing value="true"/>
        <gui-testing-debug value="true"/>
        <gui-testing-debug-gl value="true"/>
    </visualisation>

    <report>
        <no-warnings value="true"/>
        <error-log value="C:/Users/SUMO-Test/.texttest/tmp/netedit.gui.22Nov104814.4140/netedit.gui/additionalElements/e3detector/load/speedthreshold\log.txt"/>
    </report>

</configuration>
-->

<additional xmlns:xsi="http://www.w3.org/2001/XMLSchema-instance" xsi:noNamespaceSchemaLocation="http://sumo.dlr.de/xsd/additional_file.xsd">
    <e3Detector id="e3Detector_0" pos="26.00,10.00" freq="100.00" file="fileA.txt">
        <detEntry lane="gneE1_0" pos="32.00"/>
        <detExit lane="gneE0_0" pos="32.00"/>
    </e3Detector>
    <e3Detector id="e3Detector_1" pos="28.00,10.00" freq="100.00" file="fileA.txt">
        <detEntry lane="gneE1_0" pos="34.00"/>
        <detExit lane="gneE0_0" pos="34.00"/>
    </e3Detector>
    <e3Detector id="e3Detector_2" pos="30.00,10.00" freq="100.00" file="fileA.txt">
        <detEntry lane="gneE1_0" pos="36.00"/>
        <detExit lane="gneE0_0" pos="36.00"/>
    </e3Detector>
    <e3Detector id="e3Detector_3" pos="32.00,10.00" freq="100.00" file="fileA.txt" speedThreshold="3.19">
        <detEntry lane="gneE1_0" pos="38.00"/>
        <detExit lane="gneE0_0" pos="38.00"/>
    </e3Detector>
</additional>
