<?xml version="1.0" encoding="UTF-8"?>

<!-- generated on 2021-06-28 15:57:23 by Eclipse SUMO netedit Version v1_9_2+0696-9145c9eb66
-->

<additional xmlns:xsi="http://www.w3.org/2001/XMLSchema-instance" xsi:noNamespaceSchemaLocation="http://sumo.dlr.de/xsd/additional_file.xsd">
    <e3Detector id="e3Detector_0" pos="26.00,10.00" freq="100.00" file="fileA.txt">
        <detEntry lane="gneE1_0" pos="32.00"/>
        <detExit lane="gneE0_0" pos="32.00"/>
    </e3Detector>
    <e3Detector id="e3Detector_3" pos="32.00,10.00" freq="100.00" file="fileA.txt" speedThreshold="3.19">
        <detEntry lane="gneE1_0" pos="38.00"/>
        <detExit lane="gneE0_0" pos="38.00"/>
    </e3Detector>
</additional>
