<?xml version="1.0" encoding="UTF-8"?>

<!-- generated on Di 27 Feb 2018 09:25:13 CET by Netedit Version v0_32_0+0547-32395b7
<configuration xmlns:xsi="http://www.w3.org/2001/XMLSchema-instance" xsi:noNamespaceSchemaLocation="https://sumo.dlr.de/xsd/netconvertConfiguration.xsd">

    <input>
        <sumo-net-file value="/home/kobo/dlr/sumo/tests/netconvert/import/XML/junctionLogic/parallel_bike_path/net.netconvert"/>
    </input>

    <output>
        <output-file value="/home/kobo/dlr/sumo/tests/netconvert/import/XML/junctionLogic/parallel_bike_path/net.netconvert"/>
        <plain-output-prefix value="/home/kobo/dlr/sumo/tests/netconvert/import/XML/junctionLogic/parallel_bike_path/input_plain"/>
    </output>

    <processing>
        <no-turnarounds value="true"/>
        <offset.disable-normalization value="true"/>
        <lefthand value="false"/>
        <junctions.corner-detail value="0"/>
        <rectangular-lane-cut value="false"/>
        <walkingareas value="false"/>
    </processing>

</configuration>
-->

<nodes version="0.27" xmlns:xsi="http://www.w3.org/2001/XMLSchema-instance" xsi:noNamespaceSchemaLocation="https://sumo.dlr.de/xsd/nodes_file.xsd">
    <location netOffset="100.00,100.00" convBoundary="0.00,-0.35,200.00,200.34" origBoundary="-10000000000.00,-10000000000.00,10000000000.00,10000000000.00" projParameter="!"/>

    <node id="E" x="200.00" y="100.00" type="priority"/>
    <node id="N" x="100.00" y="200.00" type="priority"/>
    <node id="S" x="100.00" y="0.00" type="priority"/>
    <node id="W" x="0.00" y="100.00" type="priority"/>
    <node id="cluster_C_gneJ2_gneJ4" x="105.20" y="101.29" type="priority" shape="92.78,91.63 91.67,93.16 91.63,107.23 92.87,110.23 109.44,110.27 110.59,107.04 110.59,93.11 109.44,91.63 92.78,91.63"/>
    <node id="gneJ1" x="107.89" y="-0.35" type="dead_end"/>
    <node id="gneJ3" x="107.91" y="200.34" type="dead_end"/>
</nodes>
