<?xml version="1.0" encoding="UTF-8"?>

<!-- generated on Mon Feb 17 15:31:03 2020 by Eclipse SUMO netconvert Version v1_5_0+0130-ceb0a01
This data file and the accompanying materials
are made available under the terms of the Eclipse Public License v2.0
which accompanies this distribution, and is available at
http://www.eclipse.org/legal/epl-v20.html
SPDX-License-Identifier: EPL-2.0
<configuration xmlns:xsi="http://www.w3.org/2001/XMLSchema-instance" xsi:noNamespaceSchemaLocation="http://sumo.dlr.de/xsd/netconvertConfiguration.xsd">

    <input>
        <node-files value="input_nodes.nod.xml"/>
        <edge-files value="input_edges.edg.xml"/>
    </input>

    <output>
        <write-license value="true"/>
        <output-file value="net.net.xml"/>
    </output>

    <ramp_guessing>
        <ramps.guess value="true"/>
        <ramps.ramp-length value="170"/>
    </ramp_guessing>

    <junctions>
        <no-internal-links value="true"/>
    </junctions>

    <report>
        <xml-validation value="never"/>
        <aggregate-warnings value="5"/>
    </report>

</configuration>
-->

<net version="1.6" junctionCornerDetail="5" limitTurnSpeed="5.50" xmlns:xsi="http://www.w3.org/2001/XMLSchema-instance" xsi:noNamespaceSchemaLocation="http://sumo.dlr.de/xsd/net_file.xsd">

    <location netOffset="-601621.76,-5796392.20" convBoundary="0.00,0.00,3011.19,1576.50" origBoundary="10.313140,52.115477,10.801520,52.424030" projParameter="+proj=utm +zone=32 +ellps=WGS84 +datum=WGS84 +units=m +no_defs"/>

    <edge id="10749214" from="10749214-AddedOnRampNode" to="21408975" priority="13" spreadType="center">
        <lane id="10749214_0" index="0" speed="22.22" length="6.85" shape="1419.06,10.43 1417.99,7.79"/>
        <lane id="10749214_1" index="1" speed="22.22" length="6.85" shape="1422.02,9.23 1420.95,6.59"/>
    </edge>
    <edge id="10749214-AddedOnRampEdge" from="21408973" to="10749214-AddedOnRampNode" priority="13" spreadType="center" shape="1484.41,171.69 1420.56,14.14">
        <lane id="10749214-AddedOnRampEdge_0" index="0" speed="22.22" length="170.62" acceleration="1" shape="1479.98,169.29 1419.10,19.05"/>
        <lane id="10749214-AddedOnRampEdge_1" index="1" speed="22.22" length="170.62" shape="1482.95,168.09 1422.06,17.84"/>
        <lane id="10749214-AddedOnRampEdge_2" index="2" speed="22.22" length="170.62" shape="1485.91,166.89 1425.03,16.64"/>
    </edge>
    <edge id="10749216" from="27736514" to="10749216-AddedOffRampNode" priority="13" spreadType="center">
        <lane id="10749216_0" index="0" speed="22.22" length="135.87" shape="1431.49,-0.60 1481.00,121.62"/>
        <lane id="10749216_1" index="1" speed="22.22" length="135.87" shape="1428.53,0.60 1478.03,122.82"/>
    </edge>
    <edge id="10749216-AddedOffRampEdge" from="10749216-AddedOffRampNode" to="27736519" priority="13" spreadType="center" shape="1482.50,125.33 1489.99,143.83 1551.51,280.61">
        <lane id="10749216-AddedOffRampEdge_0" index="0" speed="22.22" length="170.55" shape="1486.97,127.84 1492.93,142.57 1552.76,275.59"/>
        <lane id="10749216-AddedOffRampEdge_1" index="1" speed="22.22" length="170.55" shape="1484.00,129.04 1489.99,143.83 1549.84,276.90"/>
        <lane id="10749216-AddedOffRampEdge_2" index="2" speed="22.22" length="170.55" shape="1481.03,130.24 1487.05,145.09 1546.92,278.21"/>
    </edge>
    <edge id="10749909" from="95740274" to="10749909-AddedOffRampNode" priority="13" spreadType="center">
        <lane id="10749909_0" index="0" speed="33.33" length="1234.59" shape="-1.11,1353.06 1153.73,927.97"/>
        <lane id="10749909_1" index="1" speed="33.33" length="1234.59" shape="-0.00,1356.06 1154.84,930.97"/>
        <lane id="10749909_2" index="2" speed="33.33" length="1234.59" shape="1.11,1359.06 1155.94,933.98"/>
    </edge>
    <edge id="10749909-AddedOffRampEdge" from="10749909-AddedOffRampNode" to="21408971" priority="13" spreadType="center" shape="1158.04,928.09 1259.14,890.88">
        <lane id="10749909-AddedOffRampEdge_0" index="0" speed="33.33" length="109.50" shape="1160.14,922.21 1257.34,886.42"/>
        <lane id="10749909-AddedOffRampEdge_1" index="1" speed="33.33" length="109.50" shape="1161.24,925.21 1258.45,889.43"/>
        <lane id="10749909-AddedOffRampEdge_2" index="2" speed="33.33" length="109.50" shape="1162.35,928.21 1259.56,892.43"/>
        <lane id="10749909-AddedOffRampEdge_3" index="3" speed="33.33" length="109.50" shape="1163.45,931.21 1260.66,895.43"/>
    </edge>
    <edge id="10802650#0" from="21425445" to="21425443" priority="13" spreadType="center" shape="2140.01,1242.97 2123.72,1202.05 2108.32,1169.50">
        <lane id="10802650#0_0" index="0" speed="44.44" length="81.83" shape="2136.99,1244.03 2120.79,1203.33 2107.12,1174.44"/>
        <lane id="10802650#0_1" index="1" speed="44.44" length="81.83" shape="2139.96,1242.85 2123.72,1202.05 2110.01,1173.07"/>
        <lane id="10802650#0_2" index="2" speed="44.44" length="81.83" shape="2142.94,1241.66 2126.66,1200.77 2112.90,1171.70"/>
    </edge>
    <edge id="10802650#1" from="21425443" to="21586775" priority="13" spreadType="center" shape="2109.77,1168.82 2088.40,1122.82 2066.75,1081.68 2027.72,1015.64 1985.48,952.18 1960.55,915.14 1934.28,877.96 1881.12,803.87 1839.37,748.48">
        <lane id="10802650#1_0" index="0" speed="44.44" length="500.88" shape="2106.62,1165.84 2086.97,1123.53 2065.35,1082.46 2026.36,1016.49 1984.15,953.07 1959.23,916.05 1932.98,878.89 1879.83,804.82 1838.18,749.56"/>
        <lane id="10802650#1_1" index="1" speed="44.44" length="500.88" shape="2109.48,1164.39 2089.83,1122.11 2068.15,1080.90 2029.08,1014.79 1986.81,951.29 1961.87,914.23 1935.58,877.03 1882.41,802.92 1840.74,747.64"/>
    </edge>
    <edge id="10802652" from="21425448" to="10802652-AddedOffRampNode" priority="13" spreadType="center" shape="2246.94,1576.50 2234.39,1522.34 2219.57,1468.83 2203.26,1411.95 2190.78,1372.58 2184.91,1353.95 2177.63,1334.98 2174.54,1326.02">
        <lane id="10802652_0" index="0" speed="27.78" length="260.92" shape="2245.38,1576.86 2232.84,1522.73 2218.03,1469.26 2201.73,1412.41 2189.25,1373.06 2183.40,1354.48 2176.13,1335.53 2174.33,1330.32"/>
        <lane id="10802652_1" index="1" speed="27.78" length="260.92" shape="2248.50,1576.14 2235.94,1521.95 2221.11,1468.40 2204.79,1411.49 2192.31,1372.10 2186.42,1353.42 2179.13,1334.43 2177.36,1329.28"/>
    </edge>
    <edge id="10802652-AddedOffRampEdge" from="10802652-AddedOffRampNode" to="21425445" priority="13" spreadType="center" shape="2173.03,1326.54 2168.08,1312.18 2159.10,1288.98 2140.02,1242.99">
        <lane id="10802652-AddedOffRampEdge_0" index="0" speed="27.78" length="91.63" shape="2168.70,1323.80 2165.07,1313.28 2156.13,1290.17 2137.12,1244.34"/>
        <lane id="10802652-AddedOffRampEdge_1" index="1" speed="27.78" length="91.63" shape="2171.72,1322.76 2168.08,1312.18 2159.10,1288.98 2140.07,1243.12"/>
        <lane id="10802652-AddedOffRampEdge_2" index="2" speed="27.78" length="91.63" shape="2174.75,1321.71 2171.08,1311.08 2162.08,1287.78 2143.03,1241.89"/>
    </edge>
    <edge id="134605344#0" from="28497546" to="30430105" priority="12" spreadType="center">
        <lane id="134605344#0_0" index="0" speed="22.22" length="245.06" shape="1503.60,790.68 1728.71,716.11"/>
    </edge>
    <edge id="134605344#1" from="30430105" to="30430112" priority="12" spreadType="center" shape="1731.97,713.35 1839.83,684.11">
        <lane id="134605344#1_0" index="0" speed="22.22" length="112.39" acceleration="1" shape="1735.31,710.78 1835.66,683.58"/>
        <lane id="134605344#1_1" index="1" speed="22.22" length="112.39" shape="1736.15,713.87 1836.50,686.67"/>
    </edge>
    <edge id="134605344#2" from="30430112" to="27748225" priority="12" spreadType="center">
        <lane id="134605344#2_0" index="0" speed="22.22" length="245.03" shape="1844.09,684.81 2075.75,634.23"/>
    </edge>
    <edge id="149600933" from="1461605576" to="1461605567" priority="12" spreadType="center">
        <lane id="149600933_0" index="0" speed="22.22" length="98.21" shape="2389.01,584.44 2486.69,575.57"/>
    </edge>
    <edge id="149600934" from="1461605567" to="1461605575" priority="12" spreadType="center" shape="2486.69,575.57 2525.53,576.09">
        <lane id="149600934_0" index="0" speed="22.22" length="42.54" shape="2486.69,575.57 2521.50,576.04"/>
    </edge>
    <edge id="18361868" from="30430112" to="30430106" priority="12" spreadType="center" shape="1839.41,682.56 1859.90,679.54 1875.42,671.84 1895.02,658.23 1905.80,638.85 1905.04,612.51 1898.50,597.92 1888.35,585.14 1876.68,577.51 1860.65,573.00 1849.41,572.57 1834.69,575.36 1819.22,581.75 1806.52,594.72 1795.90,614.80 1797.66,640.08 1805.28,656.30 1816.70,671.93">
        <lane id="18361868_0" index="0" speed="22.22" length="321.63" shape="1843.67,681.93 1859.90,679.54 1875.42,671.84 1895.02,658.23 1905.80,638.85 1905.04,612.51 1898.50,597.92 1888.35,585.14 1876.68,577.51 1860.65,573.00 1849.41,572.57 1834.69,575.36 1819.22,581.75 1806.52,594.72 1795.90,614.80 1797.66,640.08 1805.28,656.30 1814.33,668.68"/>
    </edge>
    <edge id="18361871" from="28497551" to="18361871-AddedOffRampNode" priority="12" spreadType="center" shape="1316.10,865.24 1343.62,858.80">
        <lane id="18361871_0" index="0" speed="22.22" length="30.79" shape="1321.24,864.03 1325.70,862.99"/>
    </edge>
    <edge id="18361871-AddedOffRampEdge" from="18361871-AddedOffRampNode" to="28497546" priority="12" spreadType="center" shape="1342.91,857.36 1402.60,828.01 1499.18,790.46">
        <lane id="18361871-AddedOffRampEdge_0" index="0" speed="22.22" length="172.04" shape="1342.21,855.92 1401.95,826.55 1494.83,790.43"/>
        <lane id="18361871-AddedOffRampEdge_1" index="1" speed="22.22" length="172.04" shape="1343.62,858.80 1403.24,829.48 1495.99,793.41"/>
    </edge>
    <edge id="18361874" from="21586765" to="561057384" priority="12" spreadType="center" shape="2676.63,622.49 2656.77,620.09 2481.55,627.94">
        <lane id="18361874_0" index="0" speed="22.22" length="197.89" shape="2671.27,621.84 2656.77,620.09 2481.66,627.93"/>
    </edge>
    <edge id="18361875" from="21586769" to="259172362" priority="12" spreadType="center" shape="1817.50,735.46 1797.98,740.87 1766.34,753.41 1749.13,769.27 1741.15,786.61 1738.94,802.97 1740.31,812.36 1741.81,819.44 1745.09,826.72 1748.70,833.04 1753.64,838.41 1758.90,843.06 1764.75,846.95 1770.46,849.68 1778.11,852.36 1786.31,853.63 1793.19,853.87 1799.98,853.27 1804.39,852.36 1807.93,850.91 1812.78,849.37 1817.85,846.49 1824.32,842.30 1830.51,836.12 1835.75,829.75 1840.32,822.13 1842.74,815.26 1844.01,807.37 1843.87,798.12 1842.24,788.76 1838.17,777.35 1822.59,754.53">
        <lane id="18361875_0" index="0" speed="11.11" length="332.10" shape="1813.68,736.52 1797.98,740.87 1766.34,753.41 1749.13,769.27 1741.15,786.61 1738.94,802.97 1740.31,812.36 1741.81,819.44 1745.09,826.72 1748.70,833.04 1753.64,838.41 1758.90,843.06 1764.75,846.95 1770.46,849.68 1778.11,852.36 1786.31,853.63 1793.19,853.87 1799.98,853.27 1804.39,852.36 1807.93,850.91 1812.78,849.37 1817.85,846.49 1824.32,842.30 1830.51,836.12 1835.75,829.75 1840.32,822.13 1842.74,815.26 1844.01,807.37 1843.87,798.12 1842.24,788.76 1838.17,777.35 1824.86,757.86"/>
    </edge>
    <edge id="18361876" from="259172363" to="30430105" priority="12" spreadType="center" shape="1775.51,690.79 1744.77,644.30 1730.46,628.35 1715.41,620.15 1692.50,615.85 1673.43,617.92 1659.35,625.29 1649.43,636.63 1641.28,651.64 1640.91,673.69 1643.67,686.29 1649.39,694.26 1660.71,708.52 1679.26,718.77 1698.81,722.27 1731.55,711.80">
        <lane id="18361876_0" index="0" speed="22.22" length="325.22" shape="1773.31,687.48 1744.77,644.30 1730.46,628.35 1715.41,620.15 1692.50,615.85 1673.43,617.92 1659.35,625.29 1649.43,636.63 1641.28,651.64 1640.91,673.69 1643.67,686.29 1649.39,694.26 1660.71,708.52 1679.26,718.77 1698.81,722.27 1727.69,713.04"/>
    </edge>
    <edge id="18361877" from="61868101" to="61868145" priority="12" spreadType="center" shape="1968.43,954.66 1949.78,924.19 1937.01,907.41 1925.75,894.16 1916.62,885.48 1906.03,876.86 1896.60,871.43 1886.18,866.85 1879.78,865.15 1872.80,863.94 1860.92,863.30 1847.42,864.20 1834.18,866.48 1818.93,869.00 1809.90,870.69 1800.17,871.22 1786.86,870.53 1777.07,867.83 1765.78,863.75 1754.26,856.70 1740.99,845.80 1728.90,832.19 1718.24,816.99 1708.61,808.66 1696.62,798.88 1674.65,792.25 1666.15,791.02 1656.32,790.20 1646.84,790.86 1594.30,804.16 1567.20,813.96">
        <lane id="18361877_0" index="0" speed="22.22" length="476.83" shape="1966.20,951.02 1949.78,924.19 1937.01,907.41 1925.75,894.16 1916.62,885.48 1906.03,876.86 1896.60,871.43 1886.18,866.85 1879.78,865.15 1872.80,863.94 1860.92,863.30 1847.42,864.20 1834.18,866.48 1818.93,869.00 1809.90,870.69 1800.17,871.22 1786.86,870.53 1777.07,867.83 1765.78,863.75 1754.26,856.70 1740.99,845.80 1728.90,832.19 1718.24,816.99 1708.61,808.66 1696.62,798.88 1674.65,792.25 1666.15,791.02 1656.32,790.20 1646.84,790.86 1594.30,804.16 1570.97,812.60"/>
    </edge>
    <edge id="18361878#0" from="21425443" to="18361878#0-AddedOffRampNode" priority="12" spreadType="center" shape="2105.43,1170.87 2088.10,1136.68 2064.52,1094.86">
        <lane id="18361878#0_0" index="0" speed="22.22" length="88.70" shape="2103.64,1167.35 2088.10,1136.68 2066.48,1098.34"/>
    </edge>
    <edge id="18361878#0-AddedOffRampEdge" from="18361878#0-AddedOffRampNode" to="61868101" priority="12" spreadType="center" shape="2063.12,1095.64 2061.39,1092.56 2033.49,1048.19 1969.75,953.77">
        <lane id="18361878#0-AddedOffRampEdge_0" index="0" speed="22.22" length="170.50" shape="2059.74,1092.96 2032.15,1049.07 1970.67,957.98"/>
        <lane id="18361878#0-AddedOffRampEdge_1" index="1" speed="22.22" length="170.50" shape="2062.54,1091.38 2034.83,1047.32 1973.32,956.19"/>
    </edge>
    <edge id="18361878#1" from="61868101" to="21586774" priority="12" spreadType="center">
        <lane id="18361878#1_0" index="0" speed="22.22" length="172.53" shape="1968.71,949.48 1872.07,811.58"/>
    </edge>
    <edge id="18361879" from="30430113" to="18361879-AddedOffRampNode" priority="12" spreadType="center" shape="1878.51,755.64 1908.17,796.76 1919.27,805.87 1929.50,811.13 1938.13,813.76 1945.79,815.08 1956.13,815.04 1966.04,812.51 1974.37,809.42 1986.24,801.15 1990.75,796.38 1995.79,789.17 1999.25,781.40 2001.98,773.04 2003.44,765.01 2003.57,757.07 2002.12,747.99 1999.61,738.46 1988.78,724.22 1981.69,717.91">
        <lane id="18361879_0" index="0" speed="11.11" length="233.60" shape="1880.85,758.88 1908.17,796.76 1919.27,805.87 1929.50,811.13 1938.13,813.76 1945.79,815.08 1956.13,815.04 1966.04,812.51 1974.37,809.42 1986.24,801.15 1990.75,796.38 1995.79,789.17 1999.25,781.40 2001.98,773.04 2003.44,765.01 2003.57,757.07 2002.12,747.99 1999.61,738.46 1988.78,724.22 1984.67,720.57"/>
    </edge>
    <edge id="18361879-AddedOffRampEdge" from="18361879-AddedOffRampNode" to="30430120" priority="12" spreadType="center" shape="1980.62,719.10 1976.40,715.34 1959.30,709.53 1936.36,709.85 1886.33,720.61 1865.10,722.52">
        <lane id="18361879-AddedOffRampEdge_0" index="0" speed="11.11" length="120.74" shape="1976.57,717.64 1975.58,716.75 1959.04,711.14 1936.54,711.45 1886.57,722.20 1865.59,724.09"/>
        <lane id="18361879-AddedOffRampEdge_1" index="1" speed="11.11" length="120.74" shape="1978.70,715.25 1977.22,713.93 1959.55,707.93 1936.18,708.25 1886.09,719.03 1865.30,720.90"/>
    </edge>
    <edge id="18361881" from="27748192" to="27748225" priority="12" spreadType="center" shape="1694.72,502.37 1723.30,540.66 1746.13,557.94 1761.18,563.15 1774.12,566.25 1789.91,566.20 1812.84,562.10 1836.15,558.27 1856.40,558.45 1878.32,564.51 1895.33,575.72 1909.09,589.44 1926.17,611.98 1944.22,629.23 1958.94,638.21 1979.51,643.69 2003.61,644.85 2079.01,630.24">
        <lane id="18361881_0" index="0" speed="16.67" length="446.28" shape="1697.04,505.47 1723.30,540.66 1746.13,557.94 1761.18,563.15 1774.12,566.25 1789.91,566.20 1812.84,562.10 1836.15,558.27 1856.40,558.45 1878.32,564.51 1895.33,575.72 1909.09,589.44 1926.17,611.98 1944.22,629.23 1958.94,638.21 1979.51,643.69 2003.61,644.85 2075.04,631.01"/>
    </edge>
    <edge id="18361882" from="291207546" to="189269512" priority="12" spreadType="center" shape="2308.11,645.71 2182.03,663.22 2138.75,673.57 2110.16,683.32 2085.72,697.41 2062.06,715.95 2043.45,734.76 2030.59,752.09 2019.96,769.49 2014.43,781.89 2009.49,794.44 2006.46,803.87 2003.70,814.64 2000.57,830.23 1998.57,845.66 1998.12,858.82 1999.18,872.60 2000.65,890.00 2003.78,907.56 2007.84,920.63 2012.95,933.00 2021.54,952.23 2031.96,972.60 2056.66,1011.65">
        <lane id="18361882_0" index="0" speed="22.22" length="588.75" shape="2307.97,645.73 2182.03,663.22 2138.75,673.57 2110.16,683.32 2085.72,697.41 2062.06,715.95 2043.45,734.76 2030.59,752.09 2019.96,769.49 2014.43,781.89 2009.49,794.44 2006.46,803.87 2003.70,814.64 2000.57,830.23 1998.57,845.66 1998.12,858.82 1999.18,872.60 2000.65,890.00 2003.78,907.56 2007.84,920.63 2012.95,933.00 2021.54,952.23 2031.96,972.60 2054.49,1008.22"/>
    </edge>
    <edge id="23911027" from="259172361" to="259172360" priority="12" spreadType="center" shape="1818.42,677.07 1866.58,741.80">
        <lane id="23911027_0" index="0" speed="22.22" length="83.61" acceleration="1" shape="1819.80,676.25 1867.79,740.75"/>
        <lane id="23911027_1" index="1" speed="22.22" length="83.61" shape="1817.23,678.16 1865.22,742.66"/>
    </edge>
    <edge id="23911028" from="259172360" to="30430113" priority="12" spreadType="center" shape="1866.60,741.83 1877.21,756.58">
        <lane id="23911028_0" index="0" speed="22.22" length="19.95" acceleration="1" shape="1867.97,741.00 1876.17,752.40"/>
        <lane id="23911028_1" index="1" speed="22.22" length="19.95" shape="1865.38,742.87 1873.58,754.26"/>
    </edge>
    <edge id="23911029" from="259172362" to="259172363" priority="12" spreadType="center" shape="1823.87,753.58 1776.79,689.84">
        <lane id="23911029_0" index="0" speed="22.22" length="79.86" acceleration="1" shape="1820.19,751.29 1777.86,693.97"/>
        <lane id="23911029_1" index="1" speed="22.22" length="79.86" shape="1822.77,749.39 1780.43,692.07"/>
    </edge>
    <edge id="23911030" from="259172363" to="988738874" priority="12" spreadType="center" shape="1778.08,688.89 1748.82,643.55 1663.55,522.65 1637.54,483.36">
        <lane id="23911030_0" index="0" speed="22.22" length="249.03" shape="1776.01,685.69 1748.82,643.55 1663.55,522.65 1637.62,483.49"/>
    </edge>
    <edge id="25087004#0" from="273022912" to="25087004#0-AddedOffRampNode" priority="13" spreadType="center" shape="3004.35,618.84 2942.79,619.08 2846.65,617.56">
        <lane id="25087004#0_0" index="0" speed="44.44" length="157.71" shape="3004.36,622.04 2942.77,622.28 2850.60,620.82"/>
        <lane id="25087004#0_1" index="1" speed="44.44" length="157.71" shape="3004.35,618.84 2942.79,619.08 2850.65,617.62"/>
        <lane id="25087004#0_2" index="2" speed="44.44" length="157.71" shape="3004.34,615.64 2942.81,615.88 2850.70,614.42"/>
    </edge>
    <edge id="25087004#0-AddedOffRampEdge" from="25087004#0-AddedOffRampNode" to="21586765" priority="13" spreadType="center" shape="2846.63,619.16 2783.09,618.15 2676.65,617.69">
        <lane id="25087004#0-AddedOffRampEdge_0" index="0" speed="44.44" length="170.59" shape="2842.55,623.89 2783.05,622.95 2680.74,622.51"/>
        <lane id="25087004#0-AddedOffRampEdge_1" index="1" speed="44.44" length="170.59" shape="2842.60,620.69 2783.08,619.75 2680.75,619.31"/>
        <lane id="25087004#0-AddedOffRampEdge_2" index="2" speed="44.44" length="170.59" shape="2842.65,617.49 2783.11,616.55 2680.77,616.11"/>
        <lane id="25087004#0-AddedOffRampEdge_3" index="3" speed="44.44" length="170.59" shape="2842.70,614.29 2783.14,613.35 2680.78,612.91"/>
    </edge>
    <edge id="25087004#1" from="21586765" to="275064874" priority="13" spreadType="center" shape="2676.66,616.09 2548.69,618.52 2483.16,620.02">
        <lane id="25087004#1_0" index="0" speed="44.44" length="193.54" shape="2671.58,619.39 2548.76,621.72 2483.46,623.21"/>
        <lane id="25087004#1_1" index="1" speed="44.44" length="193.54" shape="2671.98,616.18 2548.69,618.52 2483.39,620.01"/>
        <lane id="25087004#1_2" index="2" speed="44.44" length="193.54" shape="2672.38,612.97 2548.62,615.32 2483.31,616.82"/>
    </edge>
    <edge id="25115618" from="21586756" to="273450055" priority="13" spreadType="center">
        <lane id="25115618_0" index="0" speed="44.44" length="97.98" shape="2389.21,588.37 2486.53,580.65"/>
        <lane id="25115618_1" index="1" speed="44.44" length="97.98" shape="2389.47,591.56 2486.78,583.84"/>
        <lane id="25115618_2" index="2" speed="44.44" length="97.98" shape="2389.72,594.75 2487.03,587.03"/>
    </edge>
    <edge id="25228270#0" from="273450055" to="1461605575" priority="13" spreadType="center">
        <lane id="25228270#0_0" index="0" speed="44.44" length="38.77" shape="2487.11,580.61 2521.62,579.43"/>
        <lane id="25228270#0_1" index="1" speed="44.44" length="38.77" shape="2487.22,583.81 2521.73,582.63"/>
        <lane id="25228270#0_2" index="2" speed="44.44" length="38.77" shape="2487.33,587.01 2521.83,585.83"/>
    </edge>
    <edge id="25228270#1" from="25228270#1-AddedOnRampNode" to="273022924" priority="13" spreadType="center" shape="2695.66,579.78 2864.15,584.52 3011.19,594.04">
        <lane id="25228270#1_0" index="0" speed="44.44" length="315.90" shape="2699.75,576.70 2864.30,581.32 3011.40,590.85"/>
        <lane id="25228270#1_1" index="1" speed="44.44" length="315.90" shape="2699.66,579.89 2864.15,584.52 3011.19,594.04"/>
        <lane id="25228270#1_2" index="2" speed="44.44" length="315.90" shape="2699.57,583.09 2864.00,587.72 3010.98,597.23"/>
    </edge>
    <edge id="25228270#1-AddedOnRampEdge" from="1461605575" to="25228270#1-AddedOnRampNode" priority="13" spreadType="center" shape="2525.70,580.89 2645.81,576.78 2695.70,578.18">
        <lane id="25228270#1-AddedOnRampEdge_0" index="0" speed="44.44" length="170.72" acceleration="1" shape="2529.50,575.96 2645.79,571.98 2691.84,573.27"/>
        <lane id="25228270#1-AddedOnRampEdge_1" index="1" speed="44.44" length="170.72" shape="2529.61,579.16 2645.80,575.18 2691.75,576.47"/>
        <lane id="25228270#1-AddedOnRampEdge_2" index="2" speed="44.44" length="170.72" shape="2529.72,582.35 2645.81,578.38 2691.66,579.67"/>
        <lane id="25228270#1-AddedOnRampEdge_3" index="3" speed="44.44" length="170.72" shape="2529.83,585.55 2645.82,581.58 2691.57,582.87"/>
    </edge>
    <edge id="25228289" from="275064874" to="273450056" priority="13" spreadType="center">
        <lane id="25228289_0" index="0" speed="44.44" length="96.72" shape="2483.16,623.23 2387.09,629.92"/>
        <lane id="25228289_1" index="1" speed="44.44" length="96.72" shape="2482.94,620.04 2386.87,626.73"/>
        <lane id="25228289_2" index="2" speed="44.44" length="96.72" shape="2482.71,616.84 2386.65,623.53"/>
    </edge>
    <edge id="25228290" from="273450056" to="30027415" priority="13" spreadType="center" shape="2386.67,626.74 2303.70,635.91 2215.85,647.24 2111.07,662.69 1995.30,684.31 1879.78,708.55 1767.27,737.01 1647.10,775.27 1490.14,829.16 1328.85,889.85">
        <lane id="25228290_0" index="0" speed="44.44" length="1094.22" shape="2386.82,629.94 2304.08,639.09 2216.29,650.41 2111.60,665.85 1995.92,687.45 1880.50,711.67 1768.15,740.09 1648.11,778.31 1491.22,832.17 1333.82,891.40"/>
        <lane id="25228290_1" index="1" speed="44.44" length="1094.22" shape="2386.47,626.76 2303.70,635.91 2215.85,647.24 2111.07,662.69 1995.30,684.31 1879.78,708.55 1767.27,737.01 1647.10,775.27 1490.14,829.16 1332.69,888.41"/>
        <lane id="25228290_2" index="2" speed="44.44" length="1094.22" shape="2386.12,623.58 2303.32,632.73 2215.41,644.07 2110.54,659.53 1994.68,681.17 1879.06,705.43 1766.39,733.93 1646.09,772.23 1489.06,826.15 1331.56,885.41"/>
    </edge>
    <edge id="26564068" from="28497546" to="988738860" priority="12" spreadType="center" shape="1498.60,788.97 1576.50,759.69 1589.26,752.04 1596.47,743.57 1603.13,733.64 1607.96,725.63 1611.84,718.55 1614.77,709.94 1621.43,683.84 1644.53,583.27 1650.78,549.30 1648.88,532.74 1642.19,510.59 1634.52,486.44">
        <lane id="26564068_0" index="0" speed="22.22" length="378.59" shape="1502.41,787.53 1576.50,759.69 1589.26,752.04 1596.47,743.57 1603.13,733.64 1607.96,725.63 1611.84,718.55 1614.77,709.94 1621.43,683.84 1644.53,583.27 1650.78,549.30 1648.88,532.74 1642.19,510.59 1634.58,486.64"/>
    </edge>
    <edge id="28934967" from="28934967-AddedOnRampNode" to="27587356" priority="13" spreadType="center" shape="2211.46,1393.36 2216.58,1410.67 2227.50,1447.65 2237.37,1483.47 2258.57,1574.65">
        <lane id="28934967_0" index="0" speed="44.44" length="187.38" shape="2214.13,1396.74 2218.11,1410.22 2229.04,1447.21 2238.92,1483.08 2260.13,1574.29"/>
        <lane id="28934967_1" index="1" speed="44.44" length="187.38" shape="2211.06,1397.65 2215.05,1411.12 2225.96,1448.09 2235.82,1483.86 2257.01,1575.01"/>
    </edge>
    <edge id="28934967-AddedOnRampEdge" from="27736541" to="28934967-AddedOnRampNode" priority="13" spreadType="center" shape="2157.72,1237.87 2176.48,1283.79 2186.64,1310.39 2194.63,1333.92 2206.97,1372.54 2212.99,1392.91">
        <lane id="28934967-AddedOnRampEdge_0" index="0" speed="44.44" length="166.46" acceleration="1" shape="2160.74,1236.81 2179.45,1282.62 2189.65,1309.30 2197.67,1332.92 2210.03,1371.60 2214.93,1388.16"/>
        <lane id="28934967-AddedOnRampEdge_1" index="1" speed="44.44" length="166.46" shape="2157.78,1238.02 2176.48,1283.79 2186.64,1310.39 2194.63,1333.92 2206.97,1372.54 2211.86,1389.07"/>
        <lane id="28934967-AddedOnRampEdge_2" index="2" speed="44.44" length="166.46" shape="2154.82,1239.23 2173.50,1284.97 2183.62,1311.47 2191.59,1334.92 2203.91,1373.48 2208.79,1389.98"/>
    </edge>
    <edge id="29174494#1" from="30430120" to="21586769" priority="12" spreadType="center" shape="1865.33,722.49 1817.13,733.91">
        <lane id="29174494#1_0" index="0" speed="22.22" length="51.14" shape="1865.36,724.12 1821.30,734.56"/>
        <lane id="29174494#1_1" index="1" speed="22.22" length="51.14" shape="1864.63,721.01 1820.56,731.45"/>
    </edge>
    <edge id="30145370" from="30145370-AddedOnRampNode" to="1461605576" priority="12" spreadType="center">
        <lane id="30145370_0" index="0" speed="22.22" length="143.34" shape="2250.49,600.69 2388.75,584.47"/>
    </edge>
    <edge id="30145370-AddedOnRampEdge" from="27748225" to="30145370-AddedOnRampNode" priority="12" spreadType="center" shape="2079.33,631.81 2232.67,601.17 2246.33,599.57">
        <lane id="30145370-AddedOnRampEdge_0" index="0" speed="22.22" length="170.75" acceleration="1" shape="2082.92,629.46 2232.42,599.59 2242.17,598.44"/>
        <lane id="30145370-AddedOnRampEdge_1" index="1" speed="22.22" length="170.75" shape="2083.54,632.60 2232.92,602.75 2242.54,601.62"/>
    </edge>
    <edge id="30145380#0" from="27748192" to="30430106" priority="12" spreadType="center">
        <lane id="30145380#0_0" index="0" speed="22.22" length="209.01" shape="1694.42,507.42 1811.75,670.53"/>
    </edge>
    <edge id="30145380#1" from="30430106" to="259172361" priority="12" spreadType="center" shape="1815.40,672.87 1818.44,677.10">
        <lane id="30145380#1_0" index="0" speed="22.22" length="6.97" acceleration="1" shape="1819.03,675.18 1819.65,676.04"/>
        <lane id="30145380#1_1" index="1" speed="22.22" length="6.97" shape="1816.43,677.05 1817.05,677.90"/>
    </edge>
    <edge id="30145382" from="27736519" to="988660266" priority="13" spreadType="center" shape="1550.05,281.27 1593.06,368.17 1626.71,426.04">
        <lane id="30145382_0" index="0" speed="22.22" length="163.90" shape="1553.38,284.40 1594.47,367.41 1628.03,425.13"/>
        <lane id="30145382_1" index="1" speed="22.22" length="163.90" shape="1550.52,285.82 1591.65,368.93 1625.27,426.74"/>
    </edge>
    <edge id="30996897" from="30430113" to="189269512" priority="12" spreadType="center" shape="1875.91,757.51 1990.74,918.78 2053.88,1013.24">
        <lane id="30996897_0" index="0" speed="22.22" length="311.59" shape="1878.23,760.77 1990.74,918.78 2051.75,1010.05"/>
    </edge>
    <edge id="30997791" from="30997791-AddedOnRampNode" to="27736534" priority="12" spreadType="center" shape="2130.58,1164.80 2141.23,1188.45 2158.72,1231.65">
        <lane id="30997791_0" index="0" speed="22.22" length="74.70" shape="2132.22,1168.45 2141.23,1188.45 2157.16,1227.81"/>
    </edge>
    <edge id="30997791-AddedOnRampEdge" from="189269512" to="30997791-AddedOnRampNode" priority="12" spreadType="center" shape="2055.27,1012.44 2083.56,1061.81 2108.05,1110.86 2132.04,1164.14">
        <lane id="30997791-AddedOnRampEdge_0" index="0" speed="22.22" length="170.78" acceleration="1" shape="2058.58,1015.00 2084.97,1061.06 2109.49,1110.18 2131.86,1159.84"/>
        <lane id="30997791-AddedOnRampEdge_1" index="1" speed="22.22" length="170.78" shape="2055.80,1016.59 2082.15,1062.57 2106.60,1111.55 2128.94,1161.15"/>
    </edge>
    <edge id="30997944" from="21586774" to="259172362" priority="12" spreadType="center">
        <lane id="30997944_0" index="0" speed="22.22" length="75.34" shape="1872.07,811.58 1827.67,755.78"/>
    </edge>
    <edge id="30997945#0" from="21586769" to="61868145" priority="12" spreadType="center" shape="1816.76,732.35 1688.26,770.82 1566.08,810.96">
        <lane id="30997945#0_0" index="0" speed="22.22" length="262.74" shape="1812.85,733.52 1688.26,770.82 1570.01,809.67"/>
    </edge>
    <edge id="30997945#1" from="30997945#1-AddedOnRampNode" to="30027415" priority="12" spreadType="center" shape="1406.02,868.09 1386.31,873.85 1331.06,895.86">
        <lane id="30997945#1_0" index="0" speed="22.22" length="83.39" shape="1402.18,869.21 1386.31,873.85 1334.91,894.32"/>
    </edge>