<?xml version="1.0" encoding="UTF-8"?>

<!-- generated on Mon Feb 17 15:30:42 2020 by Eclipse SUMO netgenerate Version v1_5_0+0130-ceb0a01
This data file and the accompanying materials
are made available under the terms of the Eclipse Public License v2.0
which accompanies this distribution, and is available at
http://www.eclipse.org/legal/epl-v20.html
SPDX-License-Identifier: EPL-2.0
<configuration xmlns:xsi="http://www.w3.org/2001/XMLSchema-instance" xsi:noNamespaceSchemaLocation="http://sumo.dlr.de/xsd/netgenerateConfiguration.xsd">

    <random_network>
        <rand value="true"/>
        <rand.iterations value="200"/>
        <rand.random-lanenumber value="true"/>
    </random_network>

    <output>
        <write-license value="true"/>
        <output-file value="net.net.xml"/>
    </output>

    <building_defaults>
        <default.lanenumber value="3"/>
    </building_defaults>

    <tls_building>
        <tls.guess value="true"/>
        <tls.guess.threshold value="78"/>
    </tls_building>

    <report>
        <xml-validation value="never"/>
    </report>

</configuration>
-->

<net version="1.6" junctionCornerDetail="5" limitTurnSpeed="5.50" xmlns:xsi="http://www.w3.org/2001/XMLSchema-instance" xsi:noNamespaceSchemaLocation="http://sumo.dlr.de/xsd/net_file.xsd">

    <location netOffset="1263.68,1880.98" convBoundary="0.00,0.00,2463.28,3477.43" origBoundary="-1263.68,-1880.98,1199.60,1596.45" projParameter="!"/>

    <edge id=":1_0" function="internal">
        <lane id=":1_0_0" index="0" speed="5.98" length="9.08" shape="1255.84,1891.25 1255.43,1888.68 1254.30,1887.10 1252.45,1886.52 1249.88,1886.93"/>
    </edge>
    <edge id=":1_1" function="internal">
        <lane id=":1_1_0" index="0" speed="13.89" length="16.36" shape="1255.84,1891.25 1256.30,1886.53 1257.28,1883.29 1257.94,1880.09 1257.43,1875.49"/>
        <lane id=":1_1_1" index="1" speed="13.89" length="16.36" shape="1259.04,1891.20 1259.49,1886.27 1260.46,1882.89 1261.10,1879.55 1260.54,1874.75"/>
    </edge>
    <edge id=":1_3" function="internal">
        <lane id=":1_3_0" index="0" speed="9.61" length="6.23" shape="1262.24,1891.15 1263.12,1886.01 1263.75,1885.21"/>
    </edge>
    <edge id=":1_4" function="internal">
        <lane id=":1_4_0" index="0" speed="3.65" length="2.34" shape="1262.24,1891.15 1263.02,1889.94 1263.81,1889.52"/>
    </edge>
    <edge id=":1_18" function="internal">
        <lane id=":1_18_0" index="0" speed="9.61" length="15.55" shape="1263.75,1885.21 1265.97,1882.42 1270.76,1880.38 1277.52,1879.90"/>
    </edge>
    <edge id=":1_19" function="internal">
        <lane id=":1_19_0" index="0" speed="3.65" length="2.34" shape="1263.81,1889.52 1264.62,1889.91 1265.44,1891.10"/>
    </edge>
    <edge id=":1_5" function="internal">
        <lane id=":1_5_0" index="0" speed="7.00" length="11.04" shape="1277.40,1883.10 1274.92,1883.51 1273.16,1884.96 1272.14,1887.46 1271.84,1891.00"/>
    </edge>
    <edge id=":1_6" function="internal">
        <lane id=":1_6_0" index="0" speed="13.89" length="27.82" shape="1277.40,1883.10 1271.66,1883.41 1263.56,1884.39 1255.49,1885.68 1249.88,1886.93"/>
    </edge>
    <edge id=":1_7" function="internal">
        <lane id=":1_7_0" index="0" speed="10.55" length="7.68" shape="1277.40,1883.10 1270.72,1882.36 1269.80,1882.06"/>
    </edge>
    <edge id=":1_8" function="internal">
        <lane id=":1_8_0" index="0" speed="3.65" length="2.17" shape="1277.40,1883.10 1276.23,1882.25 1275.93,1881.59"/>
    </edge>
    <edge id=":1_20" function="internal">
        <lane id=":1_20_0" index="0" speed="10.55" length="12.43" shape="1269.80,1882.06 1265.69,1880.73 1262.29,1878.19 1260.54,1874.75"/>
    </edge>
    <edge id=":1_21" function="internal">
        <lane id=":1_21_0" index="0" speed="3.65" length="2.51" shape="1275.93,1881.59 1275.86,1881.44 1276.29,1880.65 1277.52,1879.90"/>
    </edge>
    <edge id=":1_9" function="internal">
        <lane id=":1_9_0" index="0" speed="8.77" length="13.64" shape="1266.76,1873.25 1268.00,1876.03 1270.21,1878.06 1273.38,1879.35 1277.52,1879.90"/>
    </edge>
    <edge id=":1_10" function="internal">
        <lane id=":1_10_0" index="0" speed="13.89" length="17.61" shape="1266.76,1873.25 1267.92,1878.45 1268.43,1882.06 1268.58,1885.72 1268.64,1891.05"/>
        <lane id=":1_10_1" index="1" speed="13.89" length="17.61" shape="1263.65,1874.00 1264.76,1878.99 1265.25,1882.46 1265.39,1885.98 1265.44,1891.10"/>
    </edge>
    <edge id=":1_12" function="internal">
        <lane id=":1_12_0" index="0" speed="9.79" length="5.36" shape="1263.65,1874.00 1263.52,1877.83 1262.66,1879.09"/>
    </edge>
    <edge id=":1_13" function="internal">
        <lane id=":1_13_0" index="0" speed="3.65" length="2.53" shape="1263.65,1874.00 1263.15,1875.35 1262.47,1875.93 1262.28,1875.89"/>
    </edge>
    <edge id=":1_22" function="internal">
        <lane id=":1_22_0" index="0" speed="9.79" length="15.34" shape="1262.66,1879.09 1261.18,1881.26 1256.63,1884.30 1249.88,1886.93"/>
    </edge>
    <edge id=":1_23" function="internal">
        <lane id=":1_23_0" index="0" speed="3.65" length="2.15" shape="1262.28,1875.89 1261.60,1875.73 1260.54,1874.75"/>
    </edge>
    <edge id=":1_14" function="internal">
        <lane id=":1_14_0" index="0" speed="7.90" length="13.13" shape="1248.94,1883.88 1253.13,1882.21 1255.95,1880.26 1257.38,1878.02 1257.43,1875.49"/>
    </edge>
    <edge id=":1_15" function="internal">
        <lane id=":1_15_0" index="0" speed="13.89" length="28.90" shape="1248.94,1883.88 1254.71,1882.60 1263.14,1881.26 1271.61,1880.23 1277.52,1879.90"/>
    </edge>
    <edge id=":1_16" function="internal">
        <lane id=":1_16_0" index="0" speed="8.94" length="12.48" shape="1248.94,1883.88 1256.08,1882.43 1261.22,1883.15"/>
    </edge>
    <edge id=":1_17" function="internal">
        <lane id=":1_17_0" index="0" speed="3.65" length="2.47" shape="1248.94,1883.88 1250.32,1884.28 1250.94,1884.93 1250.92,1885.06"/>
    </edge>
    <edge id=":1_24" function="internal">
        <lane id=":1_24_0" index="0" speed="8.94" length="9.43" shape="1261.22,1883.15 1264.34,1886.04 1265.44,1891.10"/>
    </edge>
    <edge id=":1_25" function="internal">
        <lane id=":1_25_0" index="0" speed="3.65" length="2.20" shape="1250.92,1885.06 1250.79,1885.81 1249.88,1886.93"/>
    </edge>
    <edge id=":10_0" function="internal">
        <lane id=":10_0_0" index="0" speed="5.61" length="9.32" shape="1105.41,1948.60 1104.18,1946.04 1102.69,1945.00 1100.93,1945.48 1098.91,1947.47"/>
    </edge>
    <edge id=":10_1" function="internal">
        <lane id=":10_1_0" index="0" speed="13.89" length="29.19" shape="1105.41,1948.60 1102.87,1943.20 1098.51,1935.71 1093.73,1928.52 1089.89,1924.01"/>
    </edge>
    <edge id=":10_2" function="internal">
        <lane id=":10_2_0" index="0" speed="10.03" length="7.48" shape="1105.41,1948.60 1103.54,1941.36"/>
    </edge>
    <edge id=":10_3" function="internal">
        <lane id=":10_3_0" index="0" speed="3.65" length="2.11" shape="1105.41,1948.60 1105.79,1947.21 1106.26,1946.74"/>
    </edge>
    <edge id=":10_16" function="internal">
        <lane id=":10_16_0" index="0" speed="10.03" length="15.76" shape="1103.54,1941.36 1103.29,1940.43 1102.99,1934.21 1104.51,1929.95 1107.85,1927.66"/>
    </edge>
    <edge id=":10_17" function="internal">
        <lane id=":10_17_0" index="0" speed="3.65" length="2.57" shape="1106.26,1946.74 1106.43,1946.58 1107.31,1946.71 1108.45,1947.60"/>
    </edge>
    <edge id=":10_4" function="internal">
        <lane id=":10_4_0" index="0" speed="8.94" length="18.21" shape="1108.80,1930.71 1106.76,1932.39 1106.02,1935.77 1106.59,1940.84 1108.45,1947.60"/>
    </edge>
    <edge id=":10_5" function="internal">
        <lane id=":10_5_0" index="0" speed="13.89" length="19.55" shape="1108.80,1930.71 1105.68,1932.58 1103.04,1935.81 1100.17,1940.19 1096.39,1945.49"/>
    </edge>
    <edge id=":10_6" function="internal">
        <lane id=":10_6_0" index="0" speed="12.75" length="5.62" shape="1108.80,1930.71 1104.71,1931.20 1103.24,1930.89"/>
    </edge>
    <edge id=":10_7" function="internal">
        <lane id=":10_7_0" index="0" speed="3.65" length="2.34" shape="1108.80,1930.71 1107.41,1930.30 1106.79,1929.66"/>
    </edge>
    <edge id=":10_18" function="internal">
        <lane id=":10_18_0" index="0" speed="12.75" length="15.19" shape="1103.24,1930.89 1100.19,1930.24 1095.25,1927.85 1089.89,1924.01"/>
    </edge>
    <edge id=":10_19" function="internal">
        <lane id=":10_19_0" index="0" speed="3.65" length="2.34" shape="1106.79,1929.66 1106.94,1928.78 1107.85,1927.66"/>
    </edge>
    <edge id=":10_8" function="internal">
        <lane id=":10_8_0" index="0" speed="11.78" length="17.68" shape="1091.91,1921.54 1096.59,1924.92 1100.81,1927.07 1104.56,1927.99 1107.85,1927.66"/>
    </edge>
    <edge id=":10_9" function="internal">
        <lane id=":10_9_0" index="0" speed="13.89" length="30.97" shape="1091.91,1921.54 1095.91,1926.27 1101.05,1933.97 1105.75,1941.97 1108.45,1947.60"/>
    </edge>
    <edge id=":10_10" function="internal">
        <lane id=":10_10_0" index="0" speed="10.55" length="12.84" shape="1091.91,1921.54 1096.42,1926.49 1098.26,1931.81 1098.18,1932.32"/>
    </edge>
    <edge id=":10_11" function="internal">
        <lane id=":10_11_0" index="0" speed="3.65" length="2.61" shape="1091.91,1921.54 1092.34,1922.91 1092.14,1923.79 1091.89,1923.90"/>
    </edge>
    <edge id=":10_20" function="internal">
        <lane id=":10_20_0" index="0" speed="10.55" length="12.21" shape="1098.18,1932.32 1097.40,1937.48 1093.87,1943.52"/>
    </edge>
    <edge id=":10_21" function="internal">
        <lane id=":10_21_0" index="0" speed="3.65" length="2.06" shape="1091.89,1923.90 1091.33,1924.15 1089.89,1924.01"/>
    </edge>
    <edge id=":10_12" function="internal">
        <lane id=":10_12_0" index="0" speed="8.35" length="15.33" shape="1086.32,1937.60 1089.50,1932.97 1091.15,1929.17 1091.28,1926.18 1089.89,1924.01"/>
    </edge>
    <edge id=":10_13" function="internal">
        <lane id=":10_13_0" index="0" speed="13.89" length="22.86" shape="1088.84,1939.57 1094.05,1934.19 1099.15,1930.86 1103.84,1928.90 1107.85,1927.66"/>
    </edge>
    <edge id=":10_14" function="internal">
        <lane id=":10_14_0" index="0" speed="8.49" length="9.65" shape="1091.35,1941.54 1096.20,1937.80 1099.72,1937.95"/>
    </edge>
    <edge id=":10_15" function="internal">
        <lane id=":10_15_0" index="0" speed="3.65" length="2.34" shape="1091.35,1941.54 1092.72,1941.09 1093.60,1941.27"/>
    </edge>
    <edge id=":10_22" function="internal">
        <lane id=":10_22_0" index="0" speed="8.49" length="13.70" shape="1099.72,1937.95 1101.05,1938.01 1105.32,1941.50 1108.45,1947.60"/>
    </edge>
    <edge id=":10_23" function="internal">
        <lane id=":10_23_0" index="0" speed="3.65" length="2.34" shape="1093.60,1941.27 1093.98,1942.08 1093.87,1943.52"/>
    </edge>
    <edge id=":1004_0" function="internal">
        <lane id=":1004_0_0" index="0" speed="10.07" length="17.75" shape="1134.83,2185.32 1130.35,2184.62 1126.29,2185.36 1122.67,2187.56 1119.48,2191.21"/>
    </edge>
    <edge id=":1004_1" function="internal">
        <lane id=":1004_1_0" index="0" speed="13.89" length="22.08" shape="1134.83,2185.32 1130.47,2184.74 1125.06,2184.20 1119.36,2182.22 1114.14,2177.33"/>
        <lane id=":1004_1_1" index="1" speed="13.89" length="22.08" shape="1134.83,2185.32 1130.81,2184.36 1126.20,2183.04 1121.39,2180.40 1116.77,2175.51"/>
    </edge>
    <edge id=":1004_3" function="internal">
        <lane id=":1004_3_0" index="0" speed="3.65" length="2.60" shape="1134.83,2185.32 1133.92,2184.20 1133.77,2183.32 1133.95,2183.13"/>
    </edge>
    <edge id=":1004_11" function="internal">
        <lane id=":1004_11_0" index="0" speed="3.65" length="2.07" shape="1133.95,2183.13 1134.38,2182.67 1135.76,2182.26"/>
    </edge>
    <edge id=":1004_4" function="internal">
        <lane id=":1004_4_0" index="0" speed="13.89" length="16.82" shape="1124.67,2170.05 1127.71,2174.61 1130.18,2178.15 1132.67,2180.69 1135.76,2182.26"/>
    </edge>
    <edge id=":1004_5" function="internal">
        <lane id=":1004_5_0" index="0" speed="10.78" length="7.38" shape="1122.04,2171.87 1122.98,2174.80 1122.43,2178.71 1122.30,2179.03"/>
    </edge>
    <edge id=":1004_6" function="internal">
        <lane id=":1004_6_0" index="0" speed="3.65" length="2.06" shape="1119.41,2173.69 1119.43,2175.13 1119.13,2175.68"/>
    </edge>
    <edge id=":1004_12" function="internal">
        <lane id=":1004_12_0" index="0" speed="10.78" length="11.76" shape="1122.30,2179.03 1120.38,2183.58 1116.83,2189.41"/>
    </edge>
    <edge id=":1004_13" function="internal">
        <lane id=":1004_13_0" index="0" speed="3.65" length="2.61" shape="1119.13,2175.68 1119.00,2175.92 1118.12,2176.04 1116.77,2175.51"/>
    </edge>
    <edge id=":1004_7" function="internal">
        <lane id=":1004_7_0" index="0" speed="6.79" length="7.13" shape="1111.54,2185.82 1112.39,2184.15 1112.67,2182.48 1112.38,2180.81 1111.51,2179.15"/>
    </edge>
    <edge id=":1004_8" function="internal">
        <lane id=":1004_8_0" index="0" speed="8.29" length="11.00" shape="1114.18,2187.61 1115.50,2185.04 1115.93,2182.47 1115.48,2179.90 1114.14,2177.33"/>
    </edge>
    <edge id=":1004_9" function="internal">
        <lane id=":1004_9_0" index="0" speed="11.63" length="23.94" shape="1114.18,2187.61 1118.05,2183.58 1122.94,2181.34 1128.84,2180.90 1135.76,2182.26"/>
    </edge>
    <edge id=":1004_10" function="internal">
        <lane id=":1004_10_0" index="0" speed="3.65" length="2.34" shape="1114.18,2187.61 1115.52,2187.07 1116.41,2187.19"/>
    </edge>
    <edge id=":1004_14" function="internal">
        <lane id=":1004_14_0" index="0" speed="3.65" length="2.34" shape="1116.41,2187.19 1116.84,2187.97 1116.83,2189.41"/>
    </edge>
    <edge id=":1010_0" function="internal">
        <lane id=":1010_0_0" index="0" speed="13.71" length="24.76" shape="1160.93,2438.09 1158.35,2441.33 1153.83,2444.01 1147.37,2446.15 1138.96,2447.73"/>
    </edge>
    <edge id=":1010_1" function="internal">
        <lane id=":1010_1_0" index="0" speed="9.55" length="26.23" shape="1158.02,2436.76 1153.86,2442.13 1148.82,2442.95 1143.14,2440.24 1137.04,2435.00"/>
    </edge>
    <edge id=":1010_2" function="internal">
        <lane id=":1010_2_0" index="0" speed="3.65" length="4.67" shape="1155.11,2435.43 1153.88,2436.18 1152.99,2436.21 1152.43,2435.52 1152.20,2434.09"/>
    </edge>
    <edge id=":1010_3" function="internal">
        <lane id=":1010_3_0" index="0" speed="5.88" length="9.11" shape="1139.29,2432.72 1141.41,2434.30 1143.30,2434.61 1144.95,2433.66 1146.38,2431.43"/>
    </edge>
    <edge id=":1010_4" function="internal">
        <lane id=":1010_4_0" index="0" speed="8.01" length="21.28" shape="1139.29,2432.72 1144.23,2438.58 1145.83,2443.03 1144.07,2446.08 1138.96,2447.73"/>
    </edge>
    <edge id=":1010_5" function="internal">
        <lane id=":1010_5_0" index="0" speed="3.65" length="4.67" shape="1139.29,2432.72 1139.58,2434.14 1139.30,2434.99 1138.46,2435.27 1137.04,2435.00"/>
    </edge>
    <edge id=":1010_6" function="internal">
        <lane id=":1010_6_0" index="0" speed="6.40" length="13.01" shape="1138.52,2444.56 1141.11,2443.59 1141.73,2441.67 1140.37,2438.81 1137.04,2435.00"/>
    </edge>
    <edge id=":1010_7" function="internal">
        <lane id=":1010_7_0" index="0" speed="11.27" length="16.54" shape="1138.52,2444.56 1141.34,2443.52 1144.08,2441.21 1146.73,2437.62 1149.29,2432.76"/>
    </edge>
    <edge id=":1010_8" function="internal">
        <lane id=":1010_8_0" index="0" speed="11.74" length="18.00" shape="1138.52,2444.56 1142.94,2443.41 1146.69,2441.28 1149.78,2438.18 1152.20,2434.09"/>
    </edge>
    <edge id=":1010_9" function="internal">
        <lane id=":1010_9_0" index="0" speed="3.65" length="4.67" shape="1138.52,2444.56 1139.82,2445.18 1140.32,2445.92 1140.04,2446.77 1138.96,2447.73"/>
    </edge>
    <edge id=":1026_0" function="internal">
        <lane id=":1026_0_0" index="0" speed="6.51" length="8.91" shape="975.46,2087.50 974.77,2085.16 973.50,2083.60 971.65,2082.80 969.21,2082.76"/>
    </edge>
    <edge id=":1026_1" function="internal">
        <lane id=":1026_1_0" index="0" speed="13.89" length="26.74" shape="975.46,2087.50 974.94,2081.94 974.54,2074.16 974.34,2066.37 974.43,2060.79"/>
    </edge>
    <edge id=":1026_2" function="internal">
        <lane id=":1026_2_0" index="0" speed="3.65" length="4.67" shape="975.46,2087.50 976.08,2086.19 976.81,2085.68 977.66,2085.96 978.63,2087.03"/>
    </edge>
    <edge id=":1026_3" function="internal">
        <lane id=":1026_3_0" index="0" speed="13.89" length="26.04" shape="977.62,2061.02 977.52,2066.50 977.72,2074.04 978.11,2081.58 978.63,2087.03"/>
    </edge>
    <edge id=":1026_4" function="internal">
        <lane id=":1026_4_0" index="0" speed="10.64" length="21.93" shape="977.62,2061.02 976.59,2068.78 974.78,2074.46 972.18,2078.06 968.81,2079.59"/>
    </edge>
    <edge id=":1026_5" function="internal">
        <lane id=":1026_5_0" index="0" speed="10.03" length="19.42" shape="977.62,2061.02 976.66,2067.36 974.80,2072.04 972.05,2075.06 968.40,2076.41"/>
    </edge>
    <edge id=":1026_6" function="internal">
        <lane id=":1026_6_0" index="0" speed="3.65" length="4.67" shape="977.62,2061.02 976.74,2062.16 975.91,2062.50 975.14,2062.05 974.43,2060.79"/>
    </edge>
    <edge id=":1026_7" function="internal">
        <lane id=":1026_7_0" index="0" speed="7.46" length="10.35" shape="967.18,2066.89 970.21,2066.18 972.43,2064.93 973.84,2063.13 974.43,2060.79"/>
    </edge>
    <edge id=":1026_8" function="internal">
        <lane id=":1026_8_0" index="0" speed="9.95" length="22.19" shape="967.59,2070.06 971.42,2070.72 974.54,2073.77 976.94,2079.21 978.63,2087.03"/>
    </edge>
    <edge id=":1026_9" function="internal">
        <lane id=":1026_9_0" index="0" speed="3.65" length="4.67" shape="968.00,2073.24 969.29,2073.88 969.79,2074.62 969.49,2075.47 968.40,2076.41"/>
    </edge>
    <edge id=":1056_0" function="internal">
        <lane id=":1056_0_0" index="0" speed="11.36" length="32.95" shape="1854.22,1422.52 1850.92,1430.88 1845.59,1434.67 1838.16,1434.74 1828.56,1431.96"/>
    </edge>
    <edge id=":1056_1" function="internal">
        <lane id=":1056_1_0" index="0" speed="10.21" length="26.39" shape="1851.09,1421.86 1848.66,1427.51 1844.28,1430.57 1837.94,1431.05 1829.66,1428.95"/>
    </edge>
    <edge id=":1056_2" function="internal">
        <lane id=":1056_2_0" index="0" speed="6.22" length="9.05" shape="1831.87,1422.94 1834.35,1423.47 1836.29,1423.02 1837.69,1421.61 1838.56,1419.23"/>
    </edge>
    <edge id=":1056_3" function="internal">
        <lane id=":1056_3_0" index="0" speed="7.77" length="14.77" shape="1830.77,1425.95 1834.81,1426.80 1837.98,1426.08 1840.27,1423.77 1841.69,1419.89"/>
    </edge>
    <edge id=":1056_4" function="internal">
        <lane id=":1056_4_0" index="0" speed="8.45" length="17.69" shape="1830.77,1425.95 1836.15,1427.26 1840.28,1426.80 1843.17,1424.56 1844.83,1420.55"/>
    </edge>
    <edge id=":1092_0" function="internal">
        <lane id=":1092_0_0" index="0" speed="13.89" length="33.38" shape="1030.85,2329.79 1026.92,2326.13 1021.49,2320.41 1016.06,2312.62 1012.17,2302.73"/>
    </edge>
    <edge id=":1092_1" function="internal">
        <lane id=":1092_1_0" index="0" speed="12.39" length="9.40" shape="1030.85,2329.79 1028.20,2325.08 1028.23,2321.09"/>
    </edge>
    <edge id=":1092_2" function="internal">
        <lane id=":1092_2_0" index="0" speed="3.65" length="2.68" shape="1030.85,2329.79 1030.56,2328.38 1030.84,2327.53 1031.16,2327.42"/>
    </edge>
    <edge id=":1092_10" function="internal">
        <lane id=":1092_10_0" index="0" speed="12.39" length="21.13" shape="1028.23,2321.09 1028.25,2318.87 1031.00,2311.15 1036.44,2301.92"/>
    </edge>
    <edge id=":1092_11" function="internal">
        <lane id=":1092_11_0" index="0" speed="3.65" length="1.99" shape="1031.16,2327.42 1031.68,2327.24 1033.10,2327.52"/>
    </edge>
    <edge id=":1092_3" function="internal">
        <lane id=":1092_3_0" index="0" speed="11.15" length="24.53" shape="1041.73,2305.52 1036.53,2313.74 1033.36,2320.14 1032.22,2324.74 1033.10,2327.52"/>
    </edge>
    <edge id=":1092_4" function="internal">
        <lane id=":1092_4_0" index="0" speed="9.41" length="31.33" shape="1039.08,2303.72 1032.65,2309.88 1025.54,2311.80 1019.25,2309.24 1015.28,2301.99"/>
    </edge>
    <edge id=":1092_5" function="internal">
        <lane id=":1092_5_0" index="0" speed="8.83" length="27.36" shape="1039.08,2303.72 1033.48,2308.95 1027.31,2310.29 1021.85,2307.72 1018.39,2301.24"/>
    </edge>
    <edge id=":1092_6" function="internal">
        <lane id=":1092_6_0" index="0" speed="3.65" length="2.34" shape="1039.08,2303.72 1037.75,2304.26 1036.86,2304.14"/>
    </edge>
    <edge id=":1092_12" function="internal">
        <lane id=":1092_12_0" index="0" speed="3.65" length="2.34" shape="1036.86,2304.14 1036.42,2303.36 1036.44,2301.92"/>
    </edge>
    <edge id=":1092_7" function="internal">
        <lane id=":1092_7_0" index="0" speed="5.50" length="9.61" shape="1027.73,2299.01 1028.77,2301.86 1030.13,2302.99 1031.80,2302.41 1033.79,2300.12"/>
    </edge>
    <edge id=":1092_8" function="internal">
        <lane id=":1092_8_0" index="0" speed="13.89" length="29.22" shape="1024.62,2299.75 1026.87,2309.55 1028.79,2317.61 1030.75,2323.68 1033.10,2327.52"/>
    </edge>
    <edge id=":1092_9" function="internal">
        <lane id=":1092_9_0" index="0" speed="3.65" length="2.34" shape="1021.51,2300.50 1021.01,2301.85 1020.32,2302.43"/>
    </edge>
    <edge id=":1092_13" function="internal">
        <lane id=":1092_13_0" index="0" speed="3.65" length="2.34" shape="1020.32,2302.43 1019.45,2302.22 1018.39,2301.24"/>
    </edge>
    <edge id=":115_0" function="internal">
        <lane id=":115_0_0" index="0" speed="5.67" length="9.24" shape="1434.99,1586.45 1433.43,1584.15 1431.79,1583.32 1430.05,1583.94 1428.22,1586.02"/>
    </edge>
    <edge id=":115_1" function="internal">
        <lane id=":115_1_0" index="0" speed="13.89" length="28.91" shape="1434.99,1586.45 1430.85,1579.70 1425.92,1574.45 1420.18,1570.68 1413.64,1568.40"/>
    </edge>
    <edge id=":115_2" function="internal">
        <lane id=":115_2_0" index="0" speed="13.89" length="31.76" shape="1437.85,1585.02 1433.33,1577.66 1427.90,1571.91 1421.57,1567.78 1414.34,1565.27"/>
    </edge>
    <edge id=":115_3" function="internal">
        <lane id=":115_3_0" index="0" speed="13.89" length="34.61" shape="1440.71,1583.59 1435.80,1575.61 1429.88,1569.38 1422.95,1564.89 1415.03,1562.15"/>
    </edge>
    <edge id=":115_4" function="internal">
        <lane id=":115_4_0" index="0" speed="3.65" length="2.34" shape="1440.71,1583.59 1440.90,1582.16 1441.43,1581.45"/>
    </edge>
    <edge id=":115_15" function="internal">
        <lane id=":115_15_0" index="0" speed="3.65" length="2.34" shape="1441.43,1581.45 1442.33,1581.45 1443.58,1582.16"/>
    </edge>
    <edge id=":115_5" function="internal">
        <lane id=":115_5_0" index="0" speed="13.89" length="43.16" shape="1417.11,1552.78 1427.12,1556.21 1435.82,1561.77 1443.22,1569.47 1449.31,1579.31"/>
    </edge>
    <edge id=":115_6" function="internal">
        <lane id=":115_6_0" index="0" speed="13.89" length="40.31" shape="1416.41,1555.90 1425.73,1559.10 1433.84,1564.31 1440.74,1571.52 1446.44,1580.74"/>
    </edge>
    <edge id=":115_7" function="internal">
        <lane id=":115_7_0" index="0" speed="10.73" length="13.79" shape="1415.72,1559.02 1424.63,1562.58 1427.32,1565.81"/>
    </edge>
    <edge id=":115_8" function="internal">
        <lane id=":115_8_0" index="0" speed="10.23" length="10.68" shape="1415.72,1559.02 1423.52,1562.34 1424.76,1564.16"/>
    </edge>
    <edge id=":115_9" function="internal">
        <lane id=":115_9_0" index="0" speed="3.65" length="2.52" shape="1415.72,1559.02 1416.72,1560.06 1416.94,1560.93 1416.82,1561.08"/>
    </edge>
    <edge id=":115_16" function="internal">
        <lane id=":115_16_0" index="0" speed="10.73" length="20.04" shape="1427.32,1565.81 1429.28,1568.16 1429.61,1575.48 1425.56,1584.25"/>
    </edge>
    <edge id=":115_17" function="internal">
        <lane id=":115_17_0" index="0" speed="10.23" length="19.97" shape="1424.76,1564.16 1427.13,1567.60 1426.84,1574.44 1422.90,1582.47"/>
    </edge>
    <edge id=":115_18" function="internal">
        <lane id=":115_18_0" index="0" speed="3.65" length="2.15" shape="1416.82,1561.08 1416.37,1561.63 1415.03,1562.15"/>
    </edge>
    <edge id=":115_10" function="internal">
        <lane id=":115_10_0" index="0" speed="6.37" length="11.04" shape="1414.91,1577.14 1416.68,1573.83 1417.05,1571.27 1416.04,1569.46 1413.64,1568.40"/>
    </edge>
    <edge id=":115_11" function="internal">
        <lane id=":115_11_0" index="0" speed="7.90" length="17.73" shape="1417.57,1578.92 1420.19,1573.84 1420.52,1569.87 1418.57,1567.02 1414.34,1565.27"/>
    </edge>
    <edge id=":115_12" function="internal">
        <lane id=":115_12_0" index="0" speed="10.25" length="33.45" shape="1420.23,1580.69 1426.83,1573.76 1433.93,1571.29 1440.74,1573.53 1446.44,1580.74"/>
    </edge>
    <edge id=":115_13" function="internal">
        <lane id=":115_13_0" index="0" speed="9.71" length="29.86" shape="1420.23,1580.69 1426.11,1574.73 1432.44,1573.01 1438.50,1575.51 1443.58,1582.16"/>
    </edge>
    <edge id=":115_14" function="internal">
        <lane id=":115_14_0" index="0" speed="3.65" length="2.34" shape="1420.23,1580.69 1421.57,1580.14 1422.45,1580.25"/>
    </edge>
    <edge id=":115_19" function="internal">
        <lane id=":115_19_0" index="0" speed="3.65" length="2.34" shape="1422.45,1580.25 1422.90,1581.03 1422.90,1582.47"/>
    </edge>
    <edge id=":118_0" function="internal">
        <lane id=":118_0_0" index="0" speed="13.89" length="34.02" shape="1045.85,1555.93 1040.06,1557.70 1031.17,1559.94 1021.30,1561.74 1012.55,1562.20"/>
    </edge>
    <edge id=":118_1" function="internal">
        <lane id=":118_1_0" index="0" speed="12.64" length="31.25" shape="1045.85,1555.93 1037.93,1557.46 1030.87,1556.22 1024.68,1552.20 1019.36,1545.40"/>
    </edge>
    <edge id=":118_2" function="internal">
        <lane id=":118_2_0" index="0" speed="12.21" length="29.13" shape="1045.85,1555.93 1039.25,1556.96 1033.10,1555.27 1027.38,1550.87 1022.11,1543.76"/>
    </edge>
    <edge id=":118_3" function="internal">
        <lane id=":118_3_0" index="0" speed="3.65" length="2.85" shape="1045.85,1555.93 1044.46,1555.57 1043.82,1554.95 1043.88,1554.44"/>
    </edge>
    <edge id=":118_10" function="internal">
        <lane id=":118_10_0" index="0" speed="3.65" length="1.83" shape="1043.88,1554.44 1043.93,1554.06 1044.80,1552.91"/>
    </edge>
    <edge id=":118_4" function="internal">
        <lane id=":118_4_0" index="0" speed="10.45" length="21.08" shape="1030.35,1538.84 1034.79,1545.65 1038.68,1550.27 1042.02,1552.69 1044.80,1552.91"/>
    </edge>
    <edge id=":118_5" function="internal">
        <lane id=":118_5_0" index="0" speed="9.62" length="30.64" shape="1027.60,1540.48 1029.99,1548.28 1027.65,1554.32 1021.58,1558.08 1012.76,1559.01"/>
    </edge>
    <edge id=":118_6" function="internal">
        <lane id=":118_6_0" index="0" speed="3.65" length="2.34" shape="1024.86,1542.12 1024.78,1543.56 1024.30,1544.32"/>
    </edge>
    <edge id=":118_11" function="internal">
        <lane id=":118_11_0" index="0" speed="3.65" length="2.34" shape="1024.30,1544.32 1023.41,1544.38 1022.11,1543.76"/>
    </edge>
    <edge id=":118_7" function="internal">
        <lane id=":118_7_0" index="0" speed="5.59" length="9.34" shape="1013.19,1552.62 1016.04,1552.45 1017.56,1551.46 1017.75,1549.66 1016.61,1547.04"/>
    </edge>
    <edge id=":118_8" function="internal">
        <lane id=":118_8_0" index="0" speed="13.89" length="31.69" shape="1013.19,1552.62 1021.67,1553.18 1030.97,1553.64 1039.27,1553.66 1044.80,1552.91"/>
    </edge>
    <edge id=":118_9" function="internal">
        <lane id=":118_9_0" index="0" speed="3.65" length="2.34" shape="1012.98,1555.82 1014.12,1556.70 1014.46,1557.52"/>
    </edge>
    <edge id=":118_12" function="internal">
        <lane id=":118_12_0" index="0" speed="3.65" length="2.34" shape="1014.46,1557.52 1014.01,1558.29 1012.76,1559.01"/>
    </edge>
    <edge id=":1198_0" function="internal">
        <lane id=":1198_0_0" index="0" speed="13.89" length="10.87" shape="983.37,2182.36 983.71,2179.53 985.57,2177.80 987.52,2176.07 988.12,2173.27"/>
    </edge>
    <edge id=":1198_1" function="internal">
        <lane id=":1198_1_0" index="0" speed="13.89" length="8.64" shape="991.29,2172.80 992.62,2175.06 994.95,2175.75 997.36,2176.42 998.93,2178.64"/>
        <lane id=":1198_1_1" index="1" speed="13.89" length="8.64" shape="991.29,2172.80 992.11,2174.95 993.42,2176.12 994.80,2177.27 995.82,2179.38"/>
        <lane id=":1198_1_2" index="2" speed="13.89" length="8.64" shape="991.29,2172.80 991.62,2174.99 991.88,2176.49 992.19,2177.97 992.70,2180.13"/>
    </edge>
    <edge id=":12_0" function="internal">
        <lane id=":12_0_0" index="0" speed="13.89" length="35.51" shape="1347.82,1720.08 1343.53,1716.79 1335.97,1713.05 1326.36,1709.02 1315.91,1704.87"/>
    </edge>
    <edge id=":12_1" function="internal">
        <lane id=":12_1_0" index="0" speed="13.89" length="40.69" shape="1347.82,1720.08 1343.68,1714.33 1337.23,1704.88 1330.66,1694.43 1326.19,1685.69"/>
    </edge>
    <edge id=":12_2" function="internal">
        <lane id=":12_2_0" index="0" speed="13.89" length="20.38" shape="1347.82,1720.08 1342.82,1711.52 1340.73,1703.20 1340.92,1701.32"/>
    </edge>
    <edge id=":12_3" function="internal">
        <lane id=":12_3_0" index="0" speed="9.44" length="9.54" shape="1347.82,1720.08 1344.72,1713.24 1345.11,1711.24"/>
    </edge>