<?xml version="1.0" encoding="UTF-8"?>

<!-- generated on 2022-04-19 17:28:05 by Eclipse SUMO netconvert Version v1_12_0+2154-21e08c91f73
This data file and the accompanying materials
are made available under the terms of the Eclipse Public License v2.0
which accompanies this distribution, and is available at
http://www.eclipse.org/legal/epl-v20.html
This file may also be made available under the following Secondary
Licenses when the conditions for such availability set forth in the Eclipse
Public License 2.0 are satisfied: GNU General Public License, version 2
or later which is available at
https://www.gnu.org/licenses/old-licenses/gpl-2.0-standalone.html
SPDX-License-Identifier: EPL-2.0 OR GPL-2.0-or-later
<configuration xmlns:xsi="http://www.w3.org/2001/XMLSchema-instance" xsi:noNamespaceSchemaLocation="http://sumo.dlr.de/xsd/netconvertConfiguration.xsd">

    <input>
        <type-files value="input_plain.typ.xml"/>
        <osm-files value="osm.xml"/>
    </input>

    <output>
        <write-license value="true"/>
    </output>

    <projection>
        <proj.utm value="true"/>
    </projection>

    <processing>
        <lefthand value="true"/>
    </processing>

    <report>
        <xml-validation value="never"/>
        <aggregate-warnings value="5"/>
    </report>

</configuration>
-->

<net version="1.16" junctionCornerDetail="5" lefthand="true" limitTurnSpeed="5.50" xmlns:xsi="http://www.w3.org/2001/XMLSchema-instance" xsi:noNamespaceSchemaLocation="http://sumo.dlr.de/xsd/net_file.xsd">

    <location netOffset="-386213.31,-5667352.21" convBoundary="0.00,-0.00,1300.89,987.62" origBoundary="1.373004,51.146311,1.391519,51.155434" projParameter="+proj=utm +zone=31 +ellps=WGS84 +datum=WGS84 +units=m +no_defs"/>

    <type id="highway.primary" disallow="pedestrian tram rail_urban rail rail_electric rail_fast ship" sidewalkWidth="3.00"/>
    <type id="highway.primary_link" disallow="pedestrian tram rail_urban rail rail_electric rail_fast ship" sidewalkWidth="3.00"/>
    <type id="highway.residential" disallow="pedestrian tram rail_urban rail rail_electric rail_fast ship" sidewalkWidth="2.00"/>
    <type id="highway.secondary" disallow="pedestrian tram rail_urban rail rail_electric rail_fast ship" sidewalkWidth="3.00"/>
    <type id="highway.secondary_link" disallow="pedestrian tram rail_urban rail rail_electric rail_fast ship" sidewalkWidth="3.00"/>
    <type id="highway.tertiary" disallow="pedestrian tram rail_urban rail rail_electric rail_fast ship" sidewalkWidth="3.00"/>
    <type id="highway.tertiary_link" disallow="pedestrian tram rail_urban rail rail_electric rail_fast ship" sidewalkWidth="2.00"/>
    <type id="highway.unclassified" disallow="pedestrian tram rail_urban rail rail_electric rail_fast ship" sidewalkWidth="2.00"/>

    <edge id=":1761755182_0" function="internal">
        <lane id=":1761755182_0_0" index="0" disallow="pedestrian tram rail_urban rail rail_electric rail_fast ship" speed="13.41" length="0.10" shape="710.80,381.90 710.80,381.90"/>
    </edge>
    <edge id=":281047638_0" function="internal">
        <lane id=":281047638_0_0" index="0" disallow="pedestrian tram rail_urban rail rail_electric rail_fast ship" speed="6.38" length="14.56" shape="395.28,449.76 390.68,448.41 388.95,446.63 390.07,444.40 394.05,441.74"/>
    </edge>
    <edge id=":281047638_1" function="internal">
        <lane id=":281047638_1_0" index="0" disallow="pedestrian tram rail_urban rail rail_electric rail_fast ship" speed="3.65" length="4.67" shape="395.28,449.76 393.95,450.33 393.41,451.04 393.66,451.90 394.69,452.91"/>
    </edge>
    <edge id=":281047638_2" function="internal">
        <lane id=":281047638_2_0" index="0" disallow="pedestrian tram rail_urban rail rail_electric rail_fast ship" speed="13.41" length="19.86" shape="375.55,451.13 380.92,449.51 384.87,449.88 388.95,451.33 394.69,452.91"/>
    </edge>
    <edge id=":281047638_3" function="internal">
        <lane id=":281047638_3_0" index="0" disallow="pedestrian tram rail_urban rail rail_electric rail_fast ship" speed="13.41" length="20.74" shape="375.55,451.13 394.05,441.74"/>
    </edge>
    <edge id=":281047647_0" function="internal">
        <lane id=":281047647_0_0" index="0" disallow="pedestrian tram rail_urban rail rail_electric rail_fast ship" speed="13.41" length="12.41" shape="1027.13,776.70 1025.19,773.56 1023.86,771.39 1022.84,769.09 1021.80,765.58"/>
    </edge>
    <edge id=":281047647_1" function="internal">
        <lane id=":281047647_1_0" index="0" disallow="pedestrian tram rail_urban rail rail_electric rail_fast ship" speed="13.41" length="11.84" shape="1027.13,776.70 1025.16,773.91 1023.29,772.43 1020.99,771.42 1017.73,770.04"/>
    </edge>
    <edge id=":281047647_2" function="internal">
        <lane id=":281047647_2_0" index="0" disallow="pedestrian tram rail_urban rail rail_electric rail_fast ship" speed="3.65" length="4.67" shape="1027.13,776.70 1025.83,776.07 1024.94,776.13 1024.45,776.89 1024.37,778.33"/>
    </edge>
    <edge id=":281047647_3" function="internal">
        <lane id=":281047647_3_0" index="0" disallow="pedestrian tram rail_urban rail rail_electric rail_fast ship" speed="12.92" length="9.93" shape="1016.37,772.94 1019.12,774.06 1021.09,774.85 1022.70,776.02 1024.37,778.33"/>
    </edge>
    <edge id=":281047647_4" function="internal">
        <lane id=":281047647_4_0" index="0" disallow="pedestrian tram rail_urban rail rail_electric rail_fast ship" speed="6.44" length="13.46" shape="1016.37,772.94 1019.83,773.95 1021.89,773.05 1022.54,770.26 1021.80,765.58"/>
    </edge>
    <edge id=":281047647_5" function="internal">
        <lane id=":281047647_5_0" index="0" disallow="pedestrian tram rail_urban rail rail_electric rail_fast ship" speed="3.65" length="4.67" shape="1016.37,772.94 1017.80,772.73 1018.50,772.17 1018.48,771.28 1017.73,770.04"/>
    </edge>
    <edge id=":281047651_0" function="internal">
        <lane id=":281047651_0_0" index="0" disallow="pedestrian tram rail_urban rail rail_electric rail_fast ship" speed="3.65" length="4.67" shape="1299.88,988.86 1301.32,989.00 1302.13,988.63 1302.33,987.76 1301.91,986.38"/>
    </edge>
    <edge id=":281047656_0" function="internal">
        <lane id=":281047656_0_0" index="0" disallow="pedestrian bus tram rail_urban rail rail_electric rail_fast ship" speed="6.52" length="9.85" shape="416.81,430.01 414.08,430.86 411.86,430.66 410.14,429.39 408.93,427.07"/>
    </edge>
    <edge id=":281047656_1" function="internal">
        <lane id=":281047656_1_0" index="0" disallow="pedestrian tram rail_urban rail rail_electric rail_fast ship" speed="13.41" length="11.03" shape="414.56,436.46 412.61,433.83 411.23,432.02 410.11,430.09 408.93,427.07"/>
    </edge>
    <edge id=":281047656_2" function="internal">
        <lane id=":281047656_2_0" index="0" disallow="pedestrian tram rail_urban rail rail_electric rail_fast ship" speed="6.55" length="7.99" shape="407.89,434.35 409.06,433.31 409.63,431.74 409.59,429.66 408.93,427.07"/>
    </edge>
    <edge id=":545848195_0" function="internal">
        <lane id=":545848195_0_0" index="0" disallow="pedestrian tram rail_urban rail rail_electric rail_fast ship" speed="8.94" length="12.20" shape="671.37,355.23 681.58,361.89"/>
    </edge>
    <edge id=":545848195_1" function="internal">
        <lane id=":545848195_1_0" index="0" disallow="pedestrian tram rail_urban rail rail_electric rail_fast ship" speed="9.99" length="10.51" shape="676.92,352.83 677.45,355.76 678.41,358.25 679.79,360.29 681.58,361.89"/>
    </edge>
    <edge id=":545848240_0" function="internal">
        <lane id=":545848240_0_0" index="0" disallow="pedestrian bus tram rail_urban rail rail_electric rail_fast ship" speed="13.41" length="0.45" shape="495.10,404.96 494.97,404.93 494.88,404.92 494.79,404.92 494.65,404.93"/>
    </edge>
    <edge id=":627854546_0" function="internal">
        <lane id=":627854546_0_0" index="0" disallow="pedestrian tram rail_urban rail rail_electric rail_fast ship" speed="7.68" length="9.68" shape="361.33,457.28 363.72,456.68 365.96,456.88 368.06,457.86 370.03,459.63"/>
    </edge>
    <edge id=":627854546_1" function="internal">
        <lane id=":627854546_1_0" index="0" disallow="pedestrian tram rail_urban rail rail_electric rail_fast ship" speed="13.41" length="9.57" shape="361.33,457.28 370.14,453.55"/>
    </edge>
    <edge id=":627854546_2" function="internal">
        <lane id=":627854546_2_0" index="0" disallow="pedestrian tram rail_urban rail rail_electric rail_fast ship" speed="13.41" length="9.24" shape="364.58,452.21 365.93,454.59 366.99,456.14 368.21,457.58 370.03,459.63"/>
    </edge>
    <edge id=":627854546_3" function="internal">
        <lane id=":627854546_3_0" index="0" disallow="pedestrian tram rail_urban rail rail_electric rail_fast ship" speed="5.74" length="6.41" shape="364.58,452.21 365.55,453.45 366.80,454.09 368.33,454.12 370.14,453.55"/>
    </edge>
    <edge id=":627854548_0" function="internal">
        <lane id=":627854548_0_0" index="0" disallow="pedestrian tram rail_urban rail rail_electric rail_fast ship" speed="6.55" length="8.17" shape="439.46,546.92 441.40,545.68 443.28,545.23 445.09,545.57 446.84,546.72"/>
    </edge>
    <edge id=":627854548_1" function="internal">
        <lane id=":627854548_1_0" index="0" disallow="pedestrian tram rail_urban rail rail_electric rail_fast ship" speed="13.41" length="7.80" shape="441.31,541.24 442.85,542.96 443.95,544.10 445.12,545.18 446.84,546.72"/>
    </edge>
    <edge id=":627854550_0" function="internal">
        <lane id=":627854550_0_0" index="0" disallow="pedestrian tram rail_urban rail rail_electric rail_fast ship" speed="6.38" length="9.45" shape="457.21,556.04 458.90,558.07 459.45,560.09 458.86,562.09 457.14,564.09"/>
    </edge>
    <edge id=":627854550_1" function="internal">
        <lane id=":627854550_1_0" index="0" disallow="pedestrian tram rail_urban rail rail_electric rail_fast ship" speed="13.41" length="9.36" shape="457.21,556.04 464.09,562.39"/>
    </edge>
    <edge id=":6556490704_0" function="internal">
        <lane id=":6556490704_0_0" index="0" disallow="pedestrian tram rail_urban rail rail_electric rail_fast ship" speed="13.41" length="0.30" shape="403.08,497.50 403.27,497.73"/>
    </edge>
    <edge id=":769220224_0" function="internal">
        <lane id=":769220224_0_0" index="0" disallow="pedestrian bus tram rail_urban rail rail_electric rail_fast ship" speed="13.41" length="13.05" shape="660.12,476.74 649.40,469.30"/>
    </edge>
    <edge id=":769220224_1" function="internal">
        <lane id=":769220224_1_0" index="0" disallow="pedestrian bus tram rail_urban rail rail_electric rail_fast ship" speed="13.41" length="12.42" shape="655.44,479.94 653.79,476.63 652.98,474.12 651.90,471.85 649.40,469.30"/>
    </edge>
    <edge id=":769220272_0" function="internal">
        <lane id=":769220272_0_0" index="0" disallow="pedestrian tram rail_urban rail rail_electric rail_fast ship" speed="6.44" length="9.25" shape="315.97,374.06 318.31,373.03 320.38,373.03 322.17,374.05 323.69,376.11"/>
    </edge>
    <edge id=":769220272_1" function="internal">
        <lane id=":769220272_1_0" index="0" disallow="pedestrian tram rail_urban rail rail_electric rail_fast ship" speed="13.41" length="9.30" shape="319.21,367.96 323.69,376.11"/>
    </edge>
    <edge id=":769220890_0" function="internal">
        <lane id=":769220890_0_0" index="0" disallow="pedestrian tram rail_urban rail rail_electric rail_fast ship" speed="13.41" length="0.30" shape="391.53,373.46 391.44,373.17"/>
    </edge>
    <edge id=":859228149_0" function="internal">
        <lane id=":859228149_0_0" index="0" disallow="pedestrian tram rail_urban rail rail_electric rail_fast ship" speed="7.65" length="10.29" shape="421.00,455.50 419.51,454.55 418.47,452.70 417.89,449.98 417.77,446.37"/>
    </edge>
    <edge id=":859228149_1" function="internal">
        <lane id=":859228149_1_0" index="0" disallow="pedestrian tram rail_urban rail rail_electric rail_fast ship" speed="13.41" length="11.29" shape="421.00,455.50 417.81,454.50 415.62,453.78 413.41,453.19 410.13,452.53"/>
    </edge>
    <edge id=":859228149_2" function="internal">
        <lane id=":859228149_2_0" index="0" disallow="pedestrian tram rail_urban rail rail_electric rail_fast ship" speed="3.65" length="4.67" shape="421.00,455.50 419.63,455.93 419.01,456.58 419.17,457.46 420.09,458.57"/>
    </edge>
    <edge id=":859228149_3" function="internal">
        <lane id=":859228149_3_0" index="0" disallow="pedestrian tram rail_urban rail rail_electric rail_fast ship" speed="13.41" length="10.93" shape="409.56,455.68 412.74,456.32 414.88,456.90 416.99,457.59 420.09,458.57"/>
    </edge>
    <edge id=":859228149_4" function="internal">
        <lane id=":859228149_4_0" index="0" disallow="pedestrian tram rail_urban rail rail_electric rail_fast ship" speed="7.70" length="14.57" shape="409.56,455.68 413.04,455.63 415.57,454.06 417.15,450.98 417.77,446.37"/>
    </edge>
    <edge id=":859228149_5" function="internal">
        <lane id=":859228149_5_0" index="0" disallow="pedestrian tram rail_urban rail rail_electric rail_fast ship" speed="3.65" length="4.67" shape="409.56,455.68 410.89,455.10 411.42,454.39 411.17,453.53 410.13,452.53"/>
    </edge>

    <edge id="-25768522#0" from="859228149" to="281047638" priority="-1" type="highway.residential" shape="412.10,454.51 407.92,453.76 380.97,448.71">
        <lane id="-25768522#0_0" index="0" allow="pedestrian" speed="13.41" length="15.10" width="2.00" shape="410.59,449.97 408.68,449.62 395.76,447.20"/>
        <lane id="-25768522#0_1" index="1" disallow="pedestrian tram rail_urban rail rail_electric rail_fast ship" speed="13.41" length="15.10" shape="410.13,452.53 408.21,452.18 395.28,449.76"/>
    </edge>
    <edge id="-25768522#1" from="281047647" to="859228149" priority="-1" type="highway.residential" shape="1024.17,774.84 985.40,756.61 805.66,659.92 745.07,623.00 692.51,589.90 630.86,540.94 570.57,488.89 529.42,473.85 515.07,471.40 459.57,465.81 436.77,461.90 412.10,454.51">
        <lane id="-25768522#1_0" index="0" allow="pedestrian" speed="13.41" length="685.18" width="2.00" shape="1018.84,767.69 987.29,752.86 807.75,656.27 747.28,619.43 694.94,586.47 633.54,537.70 572.73,485.21 530.51,469.78 515.64,467.23 460.14,461.65 437.73,457.80 421.75,453.01"/>
        <lane id="-25768522#1_1" index="1" disallow="pedestrian tram rail_urban rail rail_electric rail_fast ship" speed="13.41" length="685.18" shape="1017.73,770.04 986.12,755.18 806.45,658.53 745.91,621.64 693.43,588.60 631.88,539.71 571.39,487.49 529.84,472.30 515.29,469.81 459.78,464.22 437.14,460.34 421.00,455.50"/>
    </edge>
    <edge id="-25768522#2" from="281047651" to="281047647" priority="-1" type="highway.residential" shape="1300.89,987.62 1280.22,970.76 1083.27,828.05 1057.04,809.60 1038.05,795.13 1031.93,787.98 1024.17,774.84">
        <lane id="-25768522#2_0" index="0" allow="pedestrian" speed="13.41" length="346.38" width="2.00" shape="1303.55,984.37 1282.78,967.43 1085.71,824.63 1059.52,806.21 1040.95,792.06 1035.36,785.52 1029.37,775.37"/>
        <lane id="-25768522#2_1" index="1" disallow="pedestrian tram rail_urban rail rail_electric rail_fast ship" speed="13.41" length="346.38" shape="1301.91,986.38 1281.19,969.50 1084.20,826.75 1057.99,808.31 1039.16,793.96 1033.24,787.04 1027.13,776.70"/>
    </edge>
    <edge id="-514262166" from="545848195" to="1181940734" priority="-1" type="highway.residential" shape="679.30,360.33 673.04,299.52 671.62,250.07 668.80,233.28 665.76,213.26">
        <lane id="-514262166_0" index="0" allow="pedestrian" speed="13.41" length="140.22" width="2.00" shape="679.51,352.56 674.04,299.46 672.62,249.97 669.78,233.12 666.75,213.11"/>
    </edge>
    <edge id="102571217#0" from="281047656" to="769220890" priority="-1" type="highway.residential" spreadType="center" shape="411.80,432.46 402.81,405.67 392.44,373.01">
        <lane id="102571217#0_0" index="0" allow="pedestrian" speed="13.41" length="56.34" width="2.00" shape="411.40,426.24 404.33,405.18 394.01,372.67"/>
        <lane id="102571217#0_1" index="1" disallow="pedestrian tram rail_urban rail rail_electric rail_fast ship" speed="13.41" length="56.34" shape="408.93,427.07 401.86,405.98 391.53,373.46"/>
    </edge>
    <edge id="102571217#1" from="769220890" to="627931260" priority="-1" type="highway.residential" spreadType="center" shape="392.44,373.01 386.28,353.80 372.15,323.07 356.96,295.69 335.87,261.05 230.56,104.65">
        <lane id="102571217#1_0" index="0" allow="pedestrian" speed="13.41" length="314.35" width="2.00" shape="393.92,372.38 387.77,353.22 373.58,322.34 358.34,294.89 337.21,260.18 231.88,103.76"/>
        <lane id="102571217#1_1" index="1" disallow="pedestrian tram rail_urban rail rail_electric rail_fast ship" speed="13.41" length="314.35" shape="391.44,373.17 385.35,354.16 371.26,323.52 356.09,296.20 335.02,261.58 229.73,105.21"/>
    </edge>
    <edge id="123008133#0" from="545848195" to="1761755182" priority="-1" type="highway.residential" spreadType="center" shape="678.74,361.15 710.23,382.72">
        <lane id="123008133#0_0" index="0" allow="pedestrian" speed="13.41" length="35.41" width="2.00" shape="680.11,364.03 709.33,384.04"/>
        <lane id="123008133#0_1" index="1" disallow="pedestrian tram rail_urban rail rail_electric rail_fast ship" speed="13.41" length="35.41" shape="681.58,361.89 710.80,381.90"/>
    </edge>
    <edge id="123008133#1" from="1761755182" to="769220216" priority="-1" type="highway.residential" spreadType="center" shape="710.28,382.75 713.87,384.94">
        <lane id="123008133#1_0" index="0" allow="pedestrian" speed="13.41" length="4.20" width="2.00" shape="709.44,384.11 713.03,386.31"/>
        <lane id="123008133#1_1" index="1" disallow="pedestrian tram rail_urban rail rail_electric rail_fast ship" speed="13.41" length="4.20" shape="710.80,381.90 714.39,384.09"/>
    </edge>
    <edge id="181251571" from="281047638" to="281047656" priority="-1" type="highway.unclassified" spreadType="center" shape="381.44,449.59 411.32,433.66">
        <lane id="181251571_0" index="0" allow="pedestrian" speed="13.41" length="15.69" width="2.00" shape="395.27,444.03 409.11,436.65"/>
        <lane id="181251571_1" index="1" disallow="pedestrian tram rail_urban rail rail_electric rail_fast ship" speed="13.41" length="15.69" shape="394.05,441.74 407.89,434.35"/>
    </edge>
    <edge id="25768519#0" from="27412825" to="627854546" priority="-1" type="highway.unclassified" spreadType="center" shape="0.79,738.29 75.50,641.28 103.49,615.37 124.73,595.72 157.21,565.67 230.76,511.17 366.62,456.22">
        <lane id="25768519#0_0" index="0" allow="pedestrian" speed="13.41" length="466.40" width="2.00" shape="2.06,739.26 76.68,642.36 104.58,616.55 125.82,596.90 158.23,566.91 231.55,512.58 362.31,459.69"/>
        <lane id="25768519#0_1" index="1" disallow="pedestrian tram rail_urban rail rail_electric rail_fast ship" speed="13.41" length="466.40" shape="-0.00,737.68 74.75,640.60 102.81,614.64 124.05,594.99 156.57,564.90 230.27,510.30 361.33,457.28"/>
    </edge>
    <edge id="25768519#1" from="627854546" to="281047638" priority="-1" type="highway.unclassified" spreadType="center" shape="366.65,456.21 381.38,449.62">
        <lane id="25768519#1_0" index="0" allow="pedestrian" speed="13.41" length="5.93" width="2.00" shape="371.21,455.92 376.62,453.51"/>
        <lane id="25768519#1_1" index="1" disallow="pedestrian tram rail_urban rail rail_electric rail_fast ship" speed="13.41" length="5.93" shape="370.14,453.55 375.55,451.13"/>
    </edge>
    <edge id="25768522#0" from="281047638" to="859228149" priority="-1" type="highway.residential" shape="380.97,448.71 407.92,453.76 412.10,454.51">
        <lane id="25768522#0_0" index="0" allow="pedestrian" speed="13.41" length="15.14" width="2.00" shape="394.21,455.46 407.15,457.88 409.10,458.24"/>
        <lane id="25768522#0_1" index="1" disallow="pedestrian tram rail_urban rail rail_electric rail_fast ship" speed="13.41" length="15.14" shape="394.69,452.91 407.62,455.33 409.56,455.68"/>
    </edge>
    <edge id="25768522#1" from="859228149" to="281047647" priority="-1" type="highway.residential" shape="412.10,454.51 436.77,461.90 459.57,465.81 515.07,471.40 529.42,473.85 570.57,488.89 630.86,540.94 692.51,589.90 745.07,623.00 805.66,659.92 985.40,756.61 1024.17,774.84">
        <lane id="25768522#1_0" index="0" allow="pedestrian" speed="13.41" length="684.30" width="2.00" shape="419.34,461.06 435.81,465.99 459.00,469.98 514.51,475.56 528.34,477.93 568.40,492.57 628.18,544.18 690.07,593.33 742.85,626.57 803.57,663.56 983.51,760.36 1015.27,775.29"/>
        <lane id="25768522#1_1" index="1" disallow="pedestrian tram rail_urban rail rail_electric rail_fast ship" speed="13.41" length="684.30" shape="420.09,458.57 436.40,463.46 459.35,467.40 514.86,472.98 529.01,475.40 569.74,490.29 629.84,542.17 691.58,591.21 744.22,624.36 804.86,661.31 984.68,758.04 1016.37,772.94"/>
    </edge>
    <edge id="25768522#2" from="281047647" to="281047651" priority="-1" type="highway.residential" shape="1024.17,774.84 1031.93,787.98 1038.05,795.13 1057.04,809.60 1083.27,828.05 1280.22,970.76 1300.89,987.62">
        <lane id="25768522#2_0" index="0" allow="pedestrian" speed="13.41" length="348.44" width="2.00" shape="1022.13,779.65 1028.50,790.43 1035.15,798.20 1054.56,812.99 1080.83,831.47 1277.65,974.10 1298.24,990.88"/>
        <lane id="25768522#2_1" index="1" disallow="pedestrian tram rail_urban rail rail_electric rail_fast ship" speed="13.41" length="348.44" shape="1024.37,778.33 1030.63,788.91 1036.95,796.30 1056.10,810.89 1082.34,829.35 1279.24,972.03 1299.88,988.86"/>
    </edge>
    <edge id="49430655#0" from="627875049" to="769220272" priority="-1" type="highway.residential" spreadType="center" shape="58.10,0.63 150.27,113.76 235.70,231.08 304.09,343.49 320.05,371.46">
        <lane id="49430655#0_0" index="0" allow="pedestrian" speed="13.41" length="451.33" width="2.00" shape="56.86,1.64 149.00,114.74 234.37,231.97 302.71,344.30 316.95,369.25"/>
        <lane id="49430655#0_1" index="1" disallow="pedestrian tram rail_urban rail rail_electric rail_fast ship" speed="13.41" length="451.33" shape="58.88,-0.00 151.06,113.15 236.54,230.53 304.95,342.98 319.21,367.96"/>
    </edge>
    <edge id="49430655#1" from="769220272" to="627854546" priority="-1" type="highway.residential" spreadType="center" shape="320.04,371.44 365.36,455.77">
        <lane id="49430655#1_0" index="0" allow="pedestrian" speed="13.41" length="86.39" width="2.00" shape="321.40,377.34 362.29,453.44"/>
        <lane id="49430655#1_1" index="1" disallow="pedestrian tram rail_urban rail rail_electric rail_fast ship" speed="13.41" length="86.39" shape="323.69,376.11 364.58,452.21"/>
    </edge>
    <edge id="49430656" from="627854550" to="769220869" priority="-1" type="highway.residential" spreadType="center" shape="461.07,559.35 440.36,577.34 368.59,643.37 332.29,675.82">
        <lane id="49430656_0" index="0" allow="pedestrian" speed="13.41" length="167.58" width="2.00" shape="455.43,562.12 439.30,576.14 367.51,642.19 331.22,674.63"/>
        <lane id="49430656_1" index="1" disallow="pedestrian tram rail_urban rail rail_electric rail_fast ship" speed="13.41" length="167.58" shape="457.14,564.09 441.03,578.08 369.26,644.11 332.95,676.56"/>
    </edge>
    <edge id="514262166" from="1181940734" to="545848195" priority="-1" type="highway.residential" shape="665.76,213.26 668.80,233.28 671.62,250.07 673.04,299.52 679.30,360.33">
        <lane id="514262166_0" index="0" allow="pedestrian" speed="13.41" length="140.03" width="2.00" shape="661.61,213.89 664.65,233.94 667.43,250.48 668.84,299.80 674.33,353.10"/>
        <lane id="514262166_1" index="1" disallow="pedestrian tram rail_urban rail rail_electric rail_fast ship" speed="13.41" length="140.03" shape="664.18,213.50 667.22,233.53 670.02,250.22 671.44,299.63 676.92,352.83"/>
    </edge>
    <edge id="52513421#0" from="627854546" to="6556490704" priority="-1" type="highway.residential" spreadType="center" shape="365.49,455.95 402.42,498.27">
        <lane id="52513421#0_0" index="0" allow="pedestrian" speed="13.41" length="50.26" width="2.00" shape="368.07,461.34 401.12,499.21"/>
        <lane id="52513421#0_1" index="1" disallow="pedestrian tram rail_urban rail rail_electric rail_fast ship" speed="13.41" length="50.26" shape="370.03,459.63 403.08,497.50"/>
    </edge>
    <edge id="52513421#1" from="6556490704" to="627854548" priority="-1" type="highway.residential" spreadType="center" shape="402.42,498.27 442.65,544.29">
        <lane id="52513421#1_0" index="0" allow="pedestrian" speed="13.41" length="57.79" width="2.00" shape="401.32,499.44 439.35,542.95"/>
        <lane id="52513421#1_1" index="1" disallow="pedestrian tram rail_urban rail rail_electric rail_fast ship" speed="13.41" length="57.79" shape="403.27,497.73 441.31,541.24"/>
    </edge>
    <edge id="52513421#2" from="627854548" to="627854550" priority="-1" type="highway.residential" spreadType="center" shape="442.74,544.38 461.05,560.85">
        <lane id="52513421#2_0" index="0" allow="pedestrian" speed="13.41" length="13.94" width="2.00" shape="445.10,548.65 455.47,557.98"/>
        <lane id="52513421#2_1" index="1" disallow="pedestrian tram rail_urban rail rail_electric rail_fast ship" speed="13.41" length="13.94" shape="446.84,546.72 457.21,556.04"/>
    </edge>
    <edge id="61732970#0" from="545848218" to="769220224" priority="-1" type="highway.residential" spreadType="center" shape="809.53,529.95 737.32,512.87 664.66,478.60 651.44,469.66">
        <lane id="61732970#0_0" index="0" allow="pedestrian" speed="13.41" length="159.23" width="2.00" shape="809.90,528.39 737.85,511.35 665.45,477.21 661.58,474.59"/>
        <lane id="61732970#0_1" index="1" disallow="pedestrian bus tram rail_urban rail rail_electric rail_fast ship" speed="13.41" length="159.23" shape="809.30,530.92 736.99,513.82 664.16,479.48 660.12,476.74"/>
    </edge>
    <edge id="61732970#1" from="769220224" to="545848240" priority="-1" type="highway.residential" spreadType="center" shape="651.51,469.71 597.39,426.13 495.09,403.94">
        <lane id="61732970#1_0" index="0" allow="pedestrian" speed="13.41" length="172.18" width="2.00" shape="651.03,467.27 598.10,424.64 495.65,402.42"/>
        <lane id="61732970#1_1" index="1" disallow="pedestrian bus tram rail_urban rail rail_electric rail_fast ship" speed="13.41" length="172.18" shape="649.40,469.30 596.95,427.05 495.10,404.96"/>
    </edge>
    <edge id="61732970#2" from="545848240" to="281047656" priority="-1" type="highway.residential" spreadType="center" shape="494.81,403.92 476.13,405.19 455.35,411.03 410.43,431.87">
        <lane id="61732970#2_0" index="0" allow="pedestrian" speed="13.41" length="83.14" width="2.00" shape="494.48,402.33 475.86,403.60 454.79,409.53 415.72,427.65"/>
        <lane id="61732970#2_1" index="1" disallow="pedestrian bus tram rail_urban rail rail_electric rail_fast ship" speed="13.41" length="83.14" shape="494.65,404.93 476.30,406.18 455.70,411.97 416.81,430.01"/>
    </edge>
    <edge id="61732977" from="769220256" to="769220272" priority="-1" type="highway.residential" spreadType="center" shape="309.64,436.06 285.84,395.18 296.28,387.54 321.45,371.81">
        <lane id="61732977_0" index="0" allow="pedestrian" speed="13.41" length="83.51" width="2.00" shape="311.02,435.25 287.95,395.62 297.18,388.86 317.34,376.27"/>
        <lane id="61732977_1" index="1" disallow="pedestrian tram rail_urban rail rail_electric rail_fast ship" speed="13.41" length="83.51" shape="308.77,436.56 284.53,394.91 295.72,386.71 315.97,374.06"/>
    </edge>
    <edge id="61732985" from="281047647" to="769220224" priority="-1" type="highway.residential" spreadType="center" shape="1025.14,774.59 1019.12,751.06 1013.94,738.56 1010.15,730.97 1005.76,725.51 1000.55,721.59 965.54,701.54 931.40,678.51 915.28,665.35 896.81,646.17 878.42,623.15 869.36,611.29 864.24,603.79 857.00,598.76 850.35,594.71 787.56,563.73 751.62,546.68 677.74,500.53 666.00,492.07 659.56,484.59 654.80,477.05 651.80,470.09">
        <lane id="61732985_0" index="0" allow="pedestrian" speed="13.41" length="476.57" width="2.00" shape="1024.32,764.93 1020.64,750.55 1015.40,737.89 1011.50,730.10 1006.88,724.35 1001.43,720.25 966.38,700.18 932.36,677.22 916.36,664.17 898.01,645.11 879.69,622.16 870.66,610.36 865.39,602.64 857.88,597.41 851.12,593.31 788.25,562.29 752.39,545.28 678.63,499.20 667.08,490.88 660.85,483.64 657.85,478.90"/>
        <lane id="61732985_1" index="1" disallow="pedestrian tram rail_urban rail rail_electric rail_fast ship" speed="13.41" length="476.57" shape="1021.80,765.58 1018.17,751.38 1013.03,738.97 1009.30,731.51 1005.06,726.23 1000.00,722.43 965.01,702.39 930.81,679.31 914.60,666.08 896.05,646.83 877.64,623.76 868.55,611.88 863.51,604.50 856.46,599.60 849.86,595.59 787.12,564.63 751.14,547.56 677.18,501.36 665.32,492.81 658.75,485.19 655.44,479.94"/>
    </edge>
    <edge id="61733048" from="769220888" to="627854548" priority="-1" type="highway.residential" spreadType="center" shape="370.72,561.42 384.06,576.43 389.25,581.46 397.06,581.91 403.59,578.16 444.05,544.40">
        <lane id="61733048_0" index="0" allow="pedestrian" speed="13.41" length="90.69" width="2.00" shape="369.53,562.49 382.91,577.54 388.56,583.02 397.45,583.53 404.51,579.48 441.13,548.92"/>
        <lane id="61733048_1" index="1" disallow="pedestrian tram rail_urban rail rail_electric rail_fast ship" speed="13.41" length="90.69" shape="371.47,560.76 384.79,575.74 389.68,580.48 396.82,580.89 403.01,577.34 439.46,546.92"/>
    </edge>
    <edge id="72323137" from="859228149" to="281047656" priority="-1" type="highway.unclassified" spreadType="center" shape="412.69,455.32 416.21,452.77 418.70,448.87 418.85,443.29 417.48,438.92 414.74,434.97 411.52,432.04">