<routes xmlns:xsi="http://www.w3.org/2001/XMLSchema-instance" xsi:noNamespaceSchemaLocation="http://sumo-sim.org/xsd/routes_file.xsd">
   <vType id="DEFAULT_VEHTYPE" sigma="0"/>
   <route id="0" edges="beg middle end rend"/>
   <vehicle id="0" route="0" depart="0"/>
</routes>
