<?xml version="1.0" encoding="UTF-8"?>

<!-- generated on Mon 16 Sep 2019 04:20:13 PM CEST by Eclipse SUMO netedit Version v1_3_1+0339-ac209b0
<configuration xmlns:xsi="http://www.w3.org/2001/XMLSchema-instance" xsi:noNamespaceSchemaLocation="http://sumo.dlr.de/xsd/netconvertConfiguration.xsd">

    <input>
        <sumo-net-file value="/scr1/sumo/tests/netconvert/function/railway/repair/connectStraight/input_net.net.xml"/>
    </input>

    <output>
        <output-file value="/scr1/sumo/tests/netconvert/function/railway/repair/connectStraight/input_net.net.xml"/>
    </output>

    <processing>
        <geometry.max-grade.fix value="false"/>
        <offset.disable-normalization value="true"/>
        <lefthand value="false"/>
    </processing>

    <junctions>
        <no-internal-links value="true"/>
        <no-turnarounds value="true"/>
        <junctions.corner-detail value="5"/>
        <junctions.limit-turn-speed value="-1"/>
        <rectangular-lane-cut value="false"/>
    </junctions>

    <pedestrian>
        <walkingareas value="false"/>
    </pedestrian>

</configuration>
-->

<net version="1.3" junctionCornerDetail="5" xmlns:xsi="http://www.w3.org/2001/XMLSchema-instance" xsi:noNamespaceSchemaLocation="http://sumo.dlr.de/xsd/net_file.xsd">

    <location netOffset="0.00,0.00" convBoundary="-90.71,-151.36,267.88,-67.71" origBoundary="-10000000000.00,-10000000000.00,10000000000.00,10000000000.00" projParameter="!"/>

    <edge id="gneE0" from="gneJ0" to="gneJ1" priority="-1" spreadType="center">
        <lane id="gneE0_0" index="0" allow="rail" speed="27.78" length="68.20" shape="-25.94,-68.57 40.75,-67.73"/>
    </edge>
    <edge id="gneE1" from="gneJ2" to="gneJ1" priority="-1" spreadType="center">
        <lane id="gneE1_0" index="0" allow="rail" speed="27.78" length="82.86" shape="125.11,-67.71 43.75,-67.71"/>
    </edge>
    <edge id="gneE2" from="gneJ4" to="gneJ3" priority="-1" spreadType="center">
        <lane id="gneE2_0" index="0" allow="rail" speed="27.78" length="66.92" shape="41.53,-84.86 -23.89,-85.56"/>
    </edge>
    <edge id="gneE3" from="gneJ4" to="gneJ5" priority="-1" spreadType="center">
        <lane id="gneE3_0" index="0" allow="rail" speed="27.78" length="81.97" shape="44.53,-84.83 125.00,-84.46"/>
    </edge>
    <edge id="gneE4" from="gneJ7" to="gneJ8" priority="-1" spreadType="center">
        <lane id="gneE4_0" index="0" allow="rail" speed="27.78" length="79.52" shape="-90.71,-123.95 -11.44,-123.95"/>
    </edge>
    <edge id="gneE5" from="gneJ8" to="gneJ9" priority="-1" spreadType="center">
        <lane id="gneE5_0" index="0" allow="rail" speed="27.78" length="160.77" shape="-8.95,-123.96 146.73,-124.68"/>
    </edge>
    <edge id="gneE6" from="gneJ9" to="gneJ10" priority="-1" spreadType="center" bidi="gneE8">
        <lane id="gneE6_0" index="0" allow="rail" speed="27.78" length="118.30" shape="149.77,-124.69 267.88,-123.70"/>
    </edge>
    <edge id="gneE7" from="gneJ9" to="gneJ8" priority="-1" spreadType="center" shape="149.58,-124.69 72.53,-151.36 -11.19,-123.95">
        <lane id="gneE7_0" index="0" allow="rail" speed="27.78" length="169.63" shape="146.77,-125.66 72.53,-151.36 -9.14,-124.62"/>
    </edge>
    <edge id="gneE8" from="gneJ10" to="gneJ9" priority="-1" spreadType="center" bidi="gneE6">
        <lane id="gneE8_0" index="0" allow="rail" speed="27.78" length="118.30" shape="267.88,-123.70 149.77,-124.69"/>
    </edge>

    <junction id="gneJ0" type="dead_end" x="-25.94" y="-68.57" incLanes="" intLanes="" shape="-25.96,-66.97 -25.92,-70.17"/>
    <junction id="gneJ1" type="dead_end" x="42.25" y="-67.71" incLanes="gneE1_0 gneE0_0" intLanes="" shape="43.75,-66.11 43.75,-69.31 40.77,-69.33 40.73,-66.13"/>
    <junction id="gneJ10" type="dead_end" x="267.88" y="-123.70" incLanes="gneE6_0" intLanes="" shape="267.89,-125.30 267.87,-122.10 267.89,-125.30 267.87,-122.10"/>
    <junction id="gneJ2" type="dead_end" x="125.11" y="-67.71" incLanes="" intLanes="" shape="125.11,-69.31 125.11,-66.11"/>
    <junction id="gneJ3" type="dead_end" x="-23.89" y="-85.56" incLanes="gneE2_0" intLanes="" shape="-23.91,-83.96 -23.87,-87.16"/>
    <junction id="gneJ4" type="dead_end" x="43.03" y="-84.84" incLanes="" intLanes="" shape="44.52,-83.23 44.54,-86.43 41.55,-86.46 41.51,-83.26"/>
    <junction id="gneJ5" type="dead_end" x="125.00" y="-84.46" incLanes="gneE3_0" intLanes="" shape="125.01,-86.06 124.99,-82.86"/>
    <junction id="gneJ7" type="dead_end" x="-90.71" y="-123.95" incLanes="" intLanes="" shape="-90.71,-122.35 -90.71,-125.55"/>
    <junction id="gneJ8" type="priority" x="-11.19" y="-123.95" incLanes="gneE7_0 gneE4_0" intLanes="" shape="-8.47,-122.36 -9.60,-126.15 -10.27,-125.86 -10.50,-125.74 -10.74,-125.64 -11.03,-125.57 -11.44,-125.55 -11.44,-122.35">
        <request index="0" response="0" foes="0"/>
    </junction>
    <junction id="gneJ9" type="priority" x="149.58" y="-124.69" incLanes="gneE8_0 gneE5_0" intLanes="" shape="149.76,-123.09 149.78,-126.29 148.65,-126.45 148.27,-126.63 147.90,-126.84 147.45,-127.08 146.82,-127.34 146.68,-123.08">
        <request index="0" response="10" foes="10"/>
        <request index="1" response="00" foes="01"/>
    </junction>

    <connection from="gneE4" to="gneE5" fromLane="0" toLane="0" dir="s" state="M"/>
    <connection from="gneE5" to="gneE6" fromLane="0" toLane="0" dir="s" state="M"/>
    <connection from="gneE8" to="gneE7" fromLane="0" toLane="0" dir="s" state="M"/>

</net>
