<?xml version="1.0" encoding="UTF-8"?>

<!-- generated on Tue Sep  3 13:12:09 2019 by Eclipse SUMO netconvert Version v1_3_1+0122-12c4159
This data file and the accompanying materials
are made available under the terms of the Eclipse Public License v2.0
which accompanies this distribution, and is available at
http://www.eclipse.org/legal/epl-v20.html
SPDX-License-Identifier: EPL-2.0
<configuration xmlns:xsi="http://www.w3.org/2001/XMLSchema-instance" xsi:noNamespaceSchemaLocation="http://sumo.dlr.de/xsd/netconvertConfiguration.xsd">

    <input>
        <sumo-net-file value="input_net.net.xml"/>
    </input>

    <output>
        <write-license value="true"/>
        <railway.topology.output value="topology.xml"/>
    </output>

    <processing>
        <geometry.max-grade.fix value="false"/>
        <offset.disable-normalization value="true"/>
        <lefthand value="false"/>
    </processing>

    <junctions>
        <no-internal-links value="true"/>
        <no-turnarounds value="true"/>
        <junctions.corner-detail value="5"/>
        <junctions.limit-turn-speed value="-1"/>
        <rectangular-lane-cut value="false"/>
    </junctions>

    <pedestrian>
        <walkingareas value="false"/>
    </pedestrian>

    <railway>
        <railway.topology.repair value="true"/>
        <railway.topology.repair.connect-straight value="true"/>
    </railway>

    <report>
        <verbose value="true"/>
        <xml-validation value="never"/>
    </report>

</configuration>
-->

<net version="1.3" junctionCornerDetail="5" xmlns:xsi="http://www.w3.org/2001/XMLSchema-instance" xsi:noNamespaceSchemaLocation="http://sumo.dlr.de/xsd/net_file.xsd">

    <location netOffset="0.00,0.00" convBoundary="-25.94,-85.56,125.11,-67.71" origBoundary="-10000000000.00,-10000000000.00,10000000000.00,10000000000.00" projParameter="!"/>

    <edge id="-gneE0" from="gneJ1" to="gneJ0" priority="-1" spreadType="center" bidi="gneE0">
        <lane id="-gneE0_0" index="0" allow="rail" speed="27.78" length="68.20" shape="42.10,-67.71 -25.94,-68.57"/>
    </edge>
    <edge id="-gneE1" from="gneJ1" to="gneJ2" priority="-1" spreadType="center" bidi="gneE1">
        <lane id="-gneE1_0" index="0" allow="rail" speed="27.78" length="82.86" shape="42.40,-67.71 125.11,-67.71"/>
    </edge>
    <edge id="-gneE2" from="gneJ3" to="gneJ4" priority="-1" spreadType="center" bidi="gneE2">
        <lane id="-gneE2_0" index="0" allow="rail" speed="27.78" length="66.92" shape="-23.89,-85.56 42.88,-84.84"/>
    </edge>
    <edge id="-gneE3" from="gneJ5" to="gneJ4" priority="-1" spreadType="center" bidi="gneE3">
        <lane id="-gneE3_0" index="0" allow="rail" speed="27.78" length="81.97" shape="125.00,-84.46 43.18,-84.84"/>
    </edge>
    <edge id="gneE0" from="gneJ0" to="gneJ1" priority="-1" spreadType="center" bidi="-gneE0">
        <lane id="gneE0_0" index="0" allow="rail" speed="27.78" length="68.20" shape="-25.94,-68.57 42.10,-67.71"/>
    </edge>
    <edge id="gneE1" from="gneJ2" to="gneJ1" priority="-1" spreadType="center" bidi="-gneE1">
        <lane id="gneE1_0" index="0" allow="rail" speed="27.78" length="82.86" shape="125.11,-67.71 42.40,-67.71"/>
    </edge>
    <edge id="gneE2" from="gneJ4" to="gneJ3" priority="-1" spreadType="center" bidi="-gneE2">
        <lane id="gneE2_0" index="0" allow="rail" speed="27.78" length="66.92" shape="42.88,-84.84 -23.89,-85.56"/>
    </edge>
    <edge id="gneE3" from="gneJ4" to="gneJ5" priority="-1" spreadType="center" bidi="-gneE3">
        <lane id="gneE3_0" index="0" allow="rail" speed="27.78" length="81.97" shape="43.18,-84.84 125.00,-84.46"/>
    </edge>

    <junction id="gneJ0" type="dead_end" x="-25.94" y="-68.57" incLanes="-gneE0_0" intLanes="" shape="-25.96,-66.97 -25.92,-70.17 -25.96,-66.97 -25.92,-70.17"/>
    <junction id="gneJ1" type="priority" x="42.25" y="-67.71" incLanes="gneE1_0 gneE0_0" intLanes="" shape="42.40,-66.11 42.40,-69.31 42.12,-69.31 42.08,-66.11">
        <request index="0" response="00" foes="00"/>
        <request index="1" response="00" foes="00"/>
    </junction>
    <junction id="gneJ2" type="dead_end" x="125.11" y="-67.71" incLanes="-gneE1_0" intLanes="" shape="125.11,-69.31 125.11,-66.11 125.11,-69.31 125.11,-66.11"/>
    <junction id="gneJ3" type="dead_end" x="-23.89" y="-85.56" incLanes="gneE2_0" intLanes="" shape="-23.91,-83.96 -23.87,-87.16 -23.91,-83.96 -23.87,-87.16"/>
    <junction id="gneJ4" type="priority" x="43.03" y="-84.84" incLanes="-gneE3_0 -gneE2_0" intLanes="" shape="43.17,-83.24 43.19,-86.44 42.90,-86.44 42.86,-83.24">
        <request index="0" response="00" foes="00"/>
        <request index="1" response="00" foes="00"/>
    </junction>
    <junction id="gneJ5" type="dead_end" x="125.00" y="-84.46" incLanes="gneE3_0" intLanes="" shape="125.01,-86.06 124.99,-82.86 125.01,-86.06 124.99,-82.86"/>

    <connection from="-gneE2" to="gneE3" fromLane="0" toLane="0" dir="s" state="M"/>
    <connection from="-gneE3" to="gneE2" fromLane="0" toLane="0" dir="s" state="M"/>
    <connection from="gneE0" to="-gneE1" fromLane="0" toLane="0" dir="s" state="M"/>
    <connection from="gneE1" to="-gneE0" fromLane="0" toLane="0" dir="s" state="M"/>

</net>
