<?xml version="1.0" encoding="UTF-8"?>

<!-- generated on 2021-07-01 12:02:10 by Eclipse SUMO netedit Version v1_9_2+0791-d417f99328
<configuration xmlns:xsi="http://www.w3.org/2001/XMLSchema-instance" xsi:noNamespaceSchemaLocation="http://sumo.dlr.de/xsd/netconvertConfiguration.xsd">

    <input>
        <sumo-net-file value="C:\Users\SUMO-Test\.texttest\tmp\netedit.gui.1_from_01Jul114414.5980\netedit.gui\additionalElements\parkingspace\inspect_selection\parameters\input_net.net.xml"/>
    </input>

    <output>
        <output-file value="C:\Users\SUMO-Test\.texttest\tmp\netedit.gui.1_from_01Jul114414.5980\netedit.gui\additionalElements\parkingspace\inspect_selection\parameters\net.net.xml"/>
    </output>

    <processing>
        <geometry.min-radius.fix.railways value="false"/>
        <geometry.max-grade.fix value="false"/>
        <offset.disable-normalization value="true"/>
        <lefthand value="false"/>
    </processing>

    <junctions>
        <no-turnarounds value="true"/>
        <junctions.corner-detail value="5"/>
        <junctions.limit-turn-speed value="5.5"/>
        <rectangular-lane-cut value="false"/>
    </junctions>

    <pedestrian>
        <walkingareas value="false"/>
    </pedestrian>

    <netedit>
        <additional-files value="C:\Users\SUMO-Test\.texttest\tmp\netedit.gui.1_from_01Jul114414.5980\netedit.gui\additionalElements\parkingspace\inspect_selection\parameters\additionals.xml"/>
        <additionals-output value="C:\Users\SUMO-Test\.texttest\tmp\netedit.gui.1_from_01Jul114414.5980\netedit.gui\additionalElements\parkingspace\inspect_selection\parameters\additionals.xml"/>
        <route-files value="C:\Users\SUMO-Test\.texttest\tmp\netedit.gui.1_from_01Jul114414.5980\netedit.gui\additionalElements\parkingspace\inspect_selection\parameters\routes.xml"/>
        <demandelements-output value="C:\Users\SUMO-Test\.texttest\tmp\netedit.gui.1_from_01Jul114414.5980\netedit.gui\additionalElements\parkingspace\inspect_selection\parameters\routes.xml"/>
        <data-files value="C:\Users\SUMO-Test\.texttest\tmp\netedit.gui.1_from_01Jul114414.5980\netedit.gui\additionalElements\parkingspace\inspect_selection\parameters\datas.xml"/>
        <dataelements-output value="C:\Users\SUMO-Test\.texttest\tmp\netedit.gui.1_from_01Jul114414.5980\netedit.gui\additionalElements\parkingspace\inspect_selection\parameters\datas.xml"/>
    </netedit>

    <visualisation>
        <gui-settings-file value="C:\Users\SUMO-Test\.texttest\tmp\netedit.gui.1_from_01Jul114414.5980\netedit.gui\additionalElements\parkingspace\inspect_selection\parameters\gui-settings.xml"/>
        <window-size value="936,697"/>
        <window-pos value="50,50"/>
        <gui-testing value="true"/>
        <gui-testing-debug value="true"/>
        <gui-testing-debug-gl value="true"/>
        <gui-testing.setting-output value="C:\Users\SUMO-Test\.texttest\tmp\netedit.gui.1_from_01Jul114414.5980\netedit.gui\additionalElements\parkingspace\inspect_selection\parameters\guisettingsoutput.xml"/>
    </visualisation>

    <report>
        <no-warnings value="true"/>
        <aggregate-warnings value="5"/>
        <error-log value="C:\Users\SUMO-Test\.texttest\tmp\netedit.gui.1_from_01Jul114414.5980\netedit.gui\additionalElements\parkingspace\inspect_selection\parameters\log.txt"/>
    </report>

</configuration>
-->

<additional xmlns:xsi="http://www.w3.org/2001/XMLSchema-instance" xsi:noNamespaceSchemaLocation="http://sumo.dlr.de/xsd/additional_file.xsd">
    <parkingArea id="parkingArea_A" lane="gneE0_0" startPos="12.00" endPos="22.00" length="5.00">
        <space x="17.00" y="7.00" z="10.00" name="nameA" width="4.00" length="5.00" angle="45.00">
            <param key="keyFinal1" value="value1"/>
            <param key="keyFinal2" value="value2"/>
            <param key="keyFinal3" value="value3"/>
        </space>
    </parkingArea>
    <parkingArea id="parkingArea_B" lane="gneE0_0" startPos="29.00" endPos="39.00" length="5.00">
        <space x="34.00" y="7.00" z="20.00" name="nameB" width="2.00" length="12.00" angle="12.00">
            <param key="keyFinal1" value="value1"/>
            <param key="keyFinal2" value="value2"/>
            <param key="keyFinal3" value="value3"/>
        </space>
    </parkingArea>
</additional>
