<?xml version="1.0" encoding="UTF-8"?>

<!-- generated on 19.11.2018 10:24:49 by Eclipse SUMO netedit Version v1_0_0+0979-5758048824
-->

<additional xmlns:xsi="http://www.w3.org/2001/XMLSchema-instance" xsi:noNamespaceSchemaLocation="http://sumo.dlr.de/xsd/additional_file.xsd">
    <chargingStation id="chargingStation_0" lane="gneE0_0" startPos="5.00" endPos="10.00"/>
</additional>
