<?xml version="1.0" encoding="UTF-8"?>

<!-- generated on Thu Dec 12 07:35:06 2013 by SUMO netconvert Version dev-SVN-r15319
<?xml version="1.0" encoding="UTF-8"?>

<configuration xmlns:xsi="http://www.w3.org/2001/XMLSchema-instance" xsi:noNamespaceSchemaLocation="http://sumo.dlr.de/xsd/netconvertConfiguration.xsd">

    <input>
        <node-files value="input_nodes.nod.xml"/>
        <edge-files value="input_edges.edg.xml"/>
    </input>

    <output>
        <output-file value="net.net.xml"/>
    </output>

    <tls_building>
        <tls.guess value="true"/>
    </tls_building>

    <report>
        <verbose value="true"/>
    </report>

</configuration>
-->

<net version="0.13" xmlns:xsi="http://www.w3.org/2001/XMLSchema-instance" xsi:noNamespaceSchemaLocation="http://sumo.dlr.de/xsd/net_file.xsd">

    <location netOffset="-14449.88,-28064.00" convBoundary="0.00,0.00,219.43,272.00" origBoundary="14449.88,28064.00,14669.31,28336.00" projParameter="!"/>

    <edge id=":n1_0" function="internal">
        <lane id=":n1_0_0" index="0" speed="13.89" length="5.10" shape="90.59,74.27 90.03,72.98 89.20,72.21 88.09,71.96 86.70,72.24"/>
    </edge>
    <edge id=":n1_1" function="internal">
        <lane id=":n1_1_0" index="0" speed="13.89" length="3.63" shape="90.59,74.27 90.16,71.44 90.28,70.68"/>
    </edge>
    <edge id=":n1_2" function="internal">
        <lane id=":n1_2_0" index="0" speed="13.89" length="2.41" shape="90.59,74.27 91.06,72.86 91.75,72.25"/>
    </edge>
    <edge id=":n1_9" function="internal">
        <lane id=":n1_9_0" index="0" speed="13.89" length="6.40" shape="90.28,70.68 90.54,69.06 91.71,67.11 93.69,65.61"/>
    </edge>
    <edge id=":n1_10" function="internal">
        <lane id=":n1_10_0" index="0" speed="13.89" length="2.41" shape="91.75,72.25 92.66,72.43 93.78,73.41"/>
    </edge>
    <edge id=":n1_3" function="internal">
        <lane id=":n1_3_0" index="0" speed="13.89" length="5.55" shape="95.25,68.52 94.24,69.32 93.66,70.40 93.50,71.76 93.78,73.41"/>
    </edge>
    <edge id=":n1_4" function="internal">
        <lane id=":n1_4_0" index="0" speed="13.89" length="9.32" shape="95.25,68.52 86.70,72.24"/>
    </edge>
    <edge id=":n1_5" function="internal">
        <lane id=":n1_5_0" index="0" speed="13.89" length="2.41" shape="95.25,68.52 93.77,68.38 93.01,67.85"/>
    </edge>
    <edge id=":n1_11" function="internal">
        <lane id=":n1_11_0" index="0" speed="13.89" length="2.41" shape="93.01,67.85 92.99,66.93 93.69,65.61"/>
    </edge>
    <edge id=":n1_6" function="internal">
        <lane id=":n1_6_0" index="0" speed="13.89" length="8.83" shape="85.59,69.14 93.69,65.61"/>
    </edge>
    <edge id=":n1_7" function="internal">
        <lane id=":n1_7_0" index="0" speed="13.89" length="6.75" shape="85.59,69.14 88.50,68.54 90.84,69.06 91.86,70.00"/>
    </edge>
    <edge id=":n1_8" function="internal">
        <lane id=":n1_8_0" index="0" speed="13.89" length="2.41" shape="85.59,69.14 87.04,69.50 87.70,70.13"/>
    </edge>
    <edge id=":n1_12" function="internal">
        <lane id=":n1_12_0" index="0" speed="13.89" length="3.98" shape="91.86,70.00 92.60,70.68 93.78,73.41"/>
    </edge>
    <edge id=":n1_13" function="internal">
        <lane id=":n1_13_0" index="0" speed="13.89" length="2.41" shape="87.70,70.13 87.59,71.05 86.70,72.24"/>
    </edge>
    <edge id=":n5_0" function="internal">
        <lane id=":n5_0_0" index="0" speed="13.89" length="4.82" shape="147.59,271.57 147.12,272.98 146.43,273.59 145.53,273.41 144.41,272.43"/>
    </edge>
    <edge id=":n6_0" function="internal">
        <lane id=":n6_0_0" index="0" speed="13.89" length="4.82" shape="218.65,-1.45 220.13,-1.31 220.88,-0.78 220.91,0.14 220.21,1.45"/>
    </edge>
    <edge id=":n8_0" function="internal">
        <lane id=":n8_0_0" index="0" speed="13.89" length="4.82" shape="0.56,103.05 -0.89,102.69 -1.55,102.06 -1.44,101.14 -0.56,99.95"/>
    </edge>

    <edge id="e1" from="n1" to="n8" priority="-1">
        <lane id="e1_0" index="0" speed="13.89" length="91.49" shape="86.70,72.24 0.56,103.05"/>
    </edge>
    <edge id="e13" from="n5" to="n1" priority="-1">
        <lane id="e13_0" index="0" speed="13.89" length="205.34" shape="144.41,272.43 90.59,74.27"/>
    </edge>
    <edge id="e14" from="n6" to="n1" priority="-1">
        <lane id="e14_0" index="0" speed="13.89" length="141.82" shape="220.21,1.45 95.25,68.52"/>
    </edge>
    <edge id="e15" from="n1" to="n6" priority="-1">
        <lane id="e15_0" index="0" speed="13.89" length="141.82" shape="93.69,65.61 218.65,-1.45"/>
    </edge>
    <edge id="e16" from="n1" to="n5" priority="-1">
        <lane id="e16_0" index="0" speed="13.89" length="205.34" shape="93.78,73.41 147.59,271.57"/>
    </edge>
    <edge id="e2" from="n8" to="n1" priority="-1">
        <lane id="e2_0" index="0" speed="13.89" length="91.49" shape="-0.56,99.95 85.59,69.14"/>
    </edge>

    <tlLogic id="n1" type="static" programID="0" offset="0">
        <phase duration="31" state="rrrGGgGgg"/>
        <phase duration="4" state="rrryygygg"/>
        <phase duration="6" state="rrrrrGrGG"/>
        <phase duration="4" state="rrrrryryy"/>
        <phase duration="31" state="GGgGrrrrr"/>
        <phase duration="4" state="yyyyrrrrr"/>
    </tlLogic>

    <junction id="n1" type="traffic_light" x="90.87" y="69.00" incLanes="e13_0 e14_0 e2_0" intLanes=":n1_0_0 :n1_9_0 :n1_10_0 :n1_3_0 :n1_4_0 :n1_11_0 :n1_6_0 :n1_12_0 :n1_13_0" shape="89.05,74.69 95.32,72.99 96.01,69.93 92.93,64.21 85.05,67.63 87.24,73.75">
        <request index="0" response="000010000" foes="100010000" cont="0"/>
        <request index="1" response="011010000" foes="011110000" cont="1"/>
        <request index="2" response="010001000" foes="010001000" cont="1"/>
        <request index="3" response="000000000" foes="010000100" cont="0"/>
        <request index="4" response="000000000" foes="110000011" cont="0"/>
        <request index="5" response="001000010" foes="001000010" cont="1"/>
        <request index="6" response="000000000" foes="000100010" cont="0"/>
        <request index="7" response="000011000" foes="000011110" cont="1"/>
        <request index="8" response="000010001" foes="000010001" cont="1"/>
    </junction>
    <junction id="n5" type="priority" x="146.00" y="272.00" incLanes="e16_0" intLanes=":n5_0_0" shape="145.95,272.01 142.86,272.85 149.14,271.15 146.05,271.99">
        <request index="0" response="0" foes="0" cont="0"/>
    </junction>
    <junction id="n6" type="priority" x="219.43" y="0.00" incLanes="e15_0" intLanes=":n6_0_0" shape="219.45,0.04 220.97,2.86 217.89,-2.86 219.41,-0.04">
        <request index="0" response="0" foes="0" cont="0"/>
    </junction>
    <junction id="n8" type="priority" x="0.00" y="101.50" incLanes="e1_0" intLanes=":n8_0_0" shape="-0.02,101.45 -1.09,98.44 1.09,104.56 0.02,101.55">
        <request index="0" response="0" foes="0" cont="0"/>
    </junction>

    <junction id=":n1_9_0" type="internal" x="90.28" y="70.68" incLanes=":n1_1_0 e14_0 e2_0" intLanes=":n1_4_0 :n1_5_0 :n1_6_0 :n1_7_0"/>
    <junction id=":n1_10_0" type="internal" x="91.75" y="72.25" incLanes=":n1_2_0 e14_0 e2_0" intLanes=":n1_3_0 :n1_7_0"/>
    <junction id=":n1_11_0" type="internal" x="93.01" y="67.85" incLanes=":n1_5_0 e13_0 e2_0" intLanes=":n1_1_0 :n1_6_0"/>
    <junction id=":n1_12_0" type="internal" x="91.86" y="70.00" incLanes=":n1_7_0 e14_0" intLanes=":n1_1_0 :n1_2_0 :n1_3_0 :n1_4_0"/>
    <junction id=":n1_13_0" type="internal" x="87.70" y="70.13" incLanes=":n1_8_0 e13_0 e14_0" intLanes=":n1_0_0 :n1_4_0"/>

    <connection from="e1" to="e2" fromLane="0" toLane="0" via=":n8_0_0" dir="t" state="M"/>
    <connection from="e13" to="e1" fromLane="0" toLane="0" via=":n1_0_0" tl="n1" linkIndex="0" dir="r" state="o"/>
    <connection from="e13" to="e15" fromLane="0" toLane="0" via=":n1_1_0" tl="n1" linkIndex="1" dir="l" state="o"/>
    <connection from="e13" to="e16" fromLane="0" toLane="0" via=":n1_2_0" tl="n1" linkIndex="2" dir="t" state="o"/>
    <connection from="e14" to="e16" fromLane="0" toLane="0" via=":n1_3_0" tl="n1" linkIndex="3" dir="r" state="o"/>
    <connection from="e14" to="e1" fromLane="0" toLane="0" via=":n1_4_0" tl="n1" linkIndex="4" dir="s" state="o"/>
    <connection from="e14" to="e15" fromLane="0" toLane="0" via=":n1_5_0" tl="n1" linkIndex="5" dir="t" state="o"/>
    <connection from="e15" to="e14" fromLane="0" toLane="0" via=":n6_0_0" dir="t" state="M"/>
    <connection from="e16" to="e13" fromLane="0" toLane="0" via=":n5_0_0" dir="t" state="M"/>
    <connection from="e2" to="e15" fromLane="0" toLane="0" via=":n1_6_0" tl="n1" linkIndex="6" dir="s" state="o"/>
    <connection from="e2" to="e16" fromLane="0" toLane="0" via=":n1_7_0" tl="n1" linkIndex="7" dir="l" state="o"/>
    <connection from="e2" to="e1" fromLane="0" toLane="0" via=":n1_8_0" tl="n1" linkIndex="8" dir="t" state="o"/>

    <connection from=":n1_0" to="e1" fromLane="0" toLane="0" dir="s" state="M"/>
    <connection from=":n1_1" to="e15" fromLane="0" toLane="0" via=":n1_9_0" dir="s" state="m"/>
    <connection from=":n1_9" to="e15" fromLane="0" toLane="0" dir="s" state="M"/>
    <connection from=":n1_2" to="e16" fromLane="0" toLane="0" via=":n1_10_0" dir="s" state="m"/>
    <connection from=":n1_10" to="e16" fromLane="0" toLane="0" dir="s" state="M"/>
    <connection from=":n1_3" to="e16" fromLane="0" toLane="0" dir="s" state="M"/>
    <connection from=":n1_4" to="e1" fromLane="0" toLane="0" dir="s" state="M"/>
    <connection from=":n1_5" to="e15" fromLane="0" toLane="0" via=":n1_11_0" dir="s" state="m"/>
    <connection from=":n1_11" to="e15" fromLane="0" toLane="0" dir="s" state="M"/>
    <connection from=":n1_6" to="e15" fromLane="0" toLane="0" dir="s" state="M"/>
    <connection from=":n1_7" to="e16" fromLane="0" toLane="0" via=":n1_12_0" dir="s" state="m"/>
    <connection from=":n1_12" to="e16" fromLane="0" toLane="0" dir="s" state="M"/>
    <connection from=":n1_8" to="e1" fromLane="0" toLane="0" via=":n1_13_0" dir="s" state="m"/>
    <connection from=":n1_13" to="e1" fromLane="0" toLane="0" dir="s" state="M"/>
    <connection from=":n5_0" to="e13" fromLane="0" toLane="0" dir="s" state="M"/>
    <connection from=":n6_0" to="e14" fromLane="0" toLane="0" dir="s" state="M"/>
    <connection from=":n8_0" to="e2" fromLane="0" toLane="0" dir="s" state="M"/>

</net>
