<?xml version="1.0" encoding="UTF-8"?>

<!-- generated on 2021-06-09 10:33:00 by Eclipse SUMO netedit Version v1_9_2+0419-15e8195e70
<configuration xmlns:xsi="http://www.w3.org/2001/XMLSchema-instance" xsi:noNamespaceSchemaLocation="http://sumo.dlr.de/xsd/netconvertConfiguration.xsd">

    <input>
        <sumo-net-file value="C:\Users\SUMO-Test\.texttest\tmp\netedit.gui.09Jun103121.4800\netedit.gui\additionalElements\access\load\friendlypos\input_net.net.xml"/>
    </input>

    <output>
        <output-file value="C:\Users\SUMO-Test\.texttest\tmp\netedit.gui.09Jun103121.4800\netedit.gui\additionalElements\access\load\friendlypos\net.net.xml"/>
    </output>

    <processing>
        <geometry.min-radius.fix.railways value="false"/>
        <geometry.max-grade.fix value="false"/>
        <offset.disable-normalization value="true"/>
        <lefthand value="false"/>
    </processing>

    <junctions>
        <no-turnarounds value="true"/>
        <junctions.corner-detail value="5"/>
        <junctions.limit-turn-speed value="5.5"/>
        <rectangular-lane-cut value="false"/>
    </junctions>

    <pedestrian>
        <walkingareas value="false"/>
    </pedestrian>

    <netedit>
        <additional-files value="C:\Users\SUMO-Test\.texttest\tmp\netedit.gui.09Jun103121.4800\netedit.gui\additionalElements\access\load\friendlypos\additionals.xml"/>
        <additionals-output value="C:\Users\SUMO-Test\.texttest\tmp\netedit.gui.09Jun103121.4800\netedit.gui\additionalElements\access\load\friendlypos\additionals.xml"/>
        <route-files value="C:\Users\SUMO-Test\.texttest\tmp\netedit.gui.09Jun103121.4800\netedit.gui\additionalElements\access\load\friendlypos\routes.xml"/>
        <demandelements-output value="C:\Users\SUMO-Test\.texttest\tmp\netedit.gui.09Jun103121.4800\netedit.gui\additionalElements\access\load\friendlypos\routes.xml"/>
        <data-files value="C:\Users\SUMO-Test\.texttest\tmp\netedit.gui.09Jun103121.4800\netedit.gui\additionalElements\access\load\friendlypos\datas.xml"/>
        <dataelements-output value="C:\Users\SUMO-Test\.texttest\tmp\netedit.gui.09Jun103121.4800\netedit.gui\additionalElements\access\load\friendlypos\datas.xml"/>
    </netedit>

    <visualisation>
        <gui-settings-file value="C:\Users\SUMO-Test\.texttest\tmp\netedit.gui.09Jun103121.4800\netedit.gui\additionalElements\access\load\friendlypos\gui-settings.xml"/>
        <window-size value="936,697"/>
        <window-pos value="50,50"/>
        <gui-testing value="true"/>
        <gui-testing-debug value="true"/>
        <gui-testing-debug-gl value="true"/>
        <gui-testing.setting-output value="C:\Users\SUMO-Test\.texttest\tmp\netedit.gui.09Jun103121.4800\netedit.gui\additionalElements\access\load\friendlypos\guisettingsoutput.xml"/>
    </visualisation>

    <report>
        <no-warnings value="true"/>
        <aggregate-warnings value="5"/>
        <error-log value="C:\Users\SUMO-Test\.texttest\tmp\netedit.gui.09Jun103121.4800\netedit.gui\additionalElements\access\load\friendlypos\log.txt"/>
    </report>

</configuration>
-->

<additional xmlns:xsi="http://www.w3.org/2001/XMLSchema-instance" xsi:noNamespaceSchemaLocation="http://sumo.dlr.de/xsd/additional_file.xsd">
    <busStop id="busStop_0" lane="1_0" startPos="23.00" endPos="33.00">
        <access lane="8_0" pos="10.00"/>
        <access lane="10_0" pos="4000.00" length="10.00" friendlyPos="1"/>
        <access lane="11_0" pos="-200.00" length="10.00" friendlyPos="1"/>
        <access lane="12_0" pos="10.00" length="10.00" friendlyPos="1"/>
    </busStop>
</additional>
