<?xml version="1.0" encoding="UTF-8"?>

<!-- generated on 25.03.2014 13:21:22 by Netedit Version dev-SVN-r14545
<?xml version="1.0" encoding="UTF-8"?>

<configuration xmlns:xsi="http://www.w3.org/2001/XMLSchema-instance" xsi:noNamespaceSchemaLocation="http://sumo-sim.org/xsd/netedit.exeConfiguration.xsd">

    <input>
        <sumo-net-file value="C:\Users\biek_la\Desktop\sumo\tools\game\ramp\ramp.net.xml"/>
    </input>

    <output>
        <output-file value="C:\Users\biek_la\Desktop\sumo\tools\game\ramp\ramp.net.xml"/>
    </output>

    <processing>
        <no-turnarounds value="true"/>
        <offset.disable-normalization value="true"/>
    </processing>

</configuration>
-->

<net version="0.13" xmlns:xsi="http://www.w3.org/2001/XMLSchema-instance" xsi:noNamespaceSchemaLocation="http://sumo-sim.org/xsd/net_file.xsd">

    <location netOffset="0.00,0.00" convBoundary="-232.15,-39.68,1409.70,62.04" origBoundary="-10000000000.00,-10000000000.00,10000000000.00,10000000000.00" projParameter="!"/>

    <edge id=":gneJ13_0" function="internal">
        <lane id=":gneJ13_0_0" index="0" speed="23.61" length="0.10" shape="58.48,34.10 58.47,34.08"/>
    </edge>
    <edge id=":gneJ3_0" function="internal">
        <lane id=":gneJ3_0_0" index="0" speed="23.61" length="5.49" shape="-143.69,54.64 -139.67,50.91"/>
    </edge>
    <edge id=":gneJ3_1" function="internal">
        <lane id=":gneJ3_1_0" index="0" speed="33.33" length="5.00" shape="-143.69,54.64 -138.69,54.64"/>
    </edge>
    <edge id=":gneJ3_2" function="internal">
        <lane id=":gneJ3_2_0" index="0" speed="33.33" length="5.00" shape="-143.69,57.94 -138.69,57.94"/>
    </edge>
    <edge id=":gneJ4_0" function="internal">
        <lane id=":gneJ4_0_0" index="0" speed="23.61" length="3.96" shape="75.44,49.93 79.13,51.38"/>
    </edge>
    <edge id=":gneJ4_1" function="internal">
        <lane id=":gneJ4_1_0" index="0" speed="33.33" length="4.16" shape="74.97,54.68 79.13,54.68"/>
    </edge>
    <edge id=":gneJ4_2" function="internal">
        <lane id=":gneJ4_2_0" index="0" speed="33.33" length="4.16" shape="74.97,57.98 79.13,57.98"/>
    </edge>
    <edge id=":gneJ5_0" function="internal">
        <lane id=":gneJ5_0_0" index="0" speed="23.61" length="6.25" shape="-87.53,17.41 -81.88,20.07"/>
    </edge>
    <edge id=":gneJ5_1" function="internal">
        <lane id=":gneJ5_1_0" index="0" speed="23.61" length="6.14" shape="-87.79,21.71 -81.88,20.07"/>
    </edge>
    <edge id=":gneJ6_0" function="internal">
        <lane id=":gneJ6_0_0" index="0" speed="33.33" length="6.39" shape="40.89,20.07 47.00,18.18"/>
    </edge>
    <edge id=":gneJ6_1" function="internal">
        <lane id=":gneJ6_1_0" index="0" speed="33.33" length="5.87" shape="40.89,20.07 46.26,22.45"/>
    </edge>
    <edge id=":gneJ7_0" function="internal">
        <lane id=":gneJ7_0_0" index="0" speed="33.33" length="4.46" shape="192.63,51.38 195.63,54.68"/>
    </edge>
    <edge id=":gneJ7_1" function="internal">
        <lane id=":gneJ7_1_0" index="0" speed="33.33" length="4.46" shape="192.63,54.68 195.63,57.98"/>
    </edge>
    <edge id=":gneJ8_0" function="internal">
        <lane id=":gneJ8_0_0" index="0" speed="33.33" length="4.46" shape="298.83,54.68 301.83,57.98"/>
    </edge>

    <edge id="gneE11" from="gneJ8" to="gneJ11" priority="1">
        <lane id="gneE11_0" index="0" speed="33.33" length="1107.88" shape="301.83,57.98 1409.70,60.39"/>
    </edge>
    <edge id="gneE12" from="gneJ12" to="gneJ5" priority="1">
        <lane id="gneE12_0" index="0" speed="13.89" length="98.78" shape="-167.18,-41.01 -87.53,17.41"/>
    </edge>
    <edge id="gneE13" from="gneJ6" to="gneJ13" priority="1">
        <lane id="gneE13_0" index="0" speed="33.33" length="16.88" shape="46.26,22.45 58.48,34.10"/>
    </edge>
    <edge id="gneE14" from="gneJ13" to="gneJ4" priority="1">
        <lane id="gneE14_0" index="0" speed="13.89" length="23.22" shape="58.47,34.08 75.44,49.93"/>
    </edge>
    <edge id="gneE2" from="gneJ2" to="gneJ3" priority="1">
        <lane id="gneE2_0" index="0" speed="33.33" length="233.39" shape="-377.08,54.64 -143.69,54.64"/>
        <lane id="gneE2_1" index="1" speed="33.33" length="233.39" shape="-377.08,57.94 -143.69,57.94"/>
    </edge>
    <edge id="gneE3" from="gneJ3" to="gneJ4" priority="1">
        <lane id="gneE3_0" index="0" speed="33.33" length="213.66" shape="-138.69,54.64 74.97,54.68"/>
        <lane id="gneE3_1" index="1" speed="33.33" length="213.66" shape="-138.69,57.94 74.97,57.98"/>
    </edge>
    <edge id="gneE4" from="gneJ3" to="gneJ5" priority="1">
        <lane id="gneE4_0" index="0" speed="13.89" length="59.53" shape="-139.67,50.91 -87.79,21.71"/>
    </edge>
    <edge id="gneE5" from="gneJ5" to="gneJ6" priority="1">
        <lane id="gneE5_0" index="0" speed="33.33" length="122.77" shape="-81.88,20.07 40.89,20.07"/>
    </edge>
    <edge id="gneE7" from="gneJ4" to="gneJ7" priority="1">
        <lane id="gneE7_0" index="0" speed="33.33" length="113.50" shape="79.13,51.38 192.63,51.38"/>
        <lane id="gneE7_1" index="1" speed="33.33" length="113.50" shape="79.13,54.68 192.63,54.68"/>
        <lane id="gneE7_2" index="2" speed="33.33" length="113.50" shape="79.13,57.98 192.63,57.98"/>
    </edge>
    <edge id="gneE8" from="gneJ7" to="gneJ8" priority="1">
        <lane id="gneE8_0" index="0" speed="33.33" length="103.20" shape="195.63,54.68 298.83,54.68"/>
        <lane id="gneE8_1" index="1" speed="33.33" length="103.20" shape="195.63,57.98 298.83,57.98"/>
    </edge>
    <edge id="gneE9" from="gneJ6" to="gneJ9" priority="1">
        <lane id="gneE9_0" index="0" speed="33.33" length="117.83" shape="47.00,18.18 154.65,-29.73"/>
    </edge>

    <tlLogic id="gneJ13" type="static" programID="0" offset="0">
        <phase duration="3" state="y"/>
        <phase duration="10000" state="G"/>
    </tlLogic>
    <tlLogic id="gneJ13" type="static" programID="1" offset="0">
        <phase duration="3" state="y"/>
        <phase duration="10000" state="r"/>
    </tlLogic>

    <junction id="gneJ11" type="unregulated" x="1409.70" y="62.04" incLanes="gneE11_0" intLanes="" shape="1409.71,58.79 1409.70,61.99"/>
    <junction id="gneJ12" type="unregulated" x="-168.16" y="-39.68" incLanes="" intLanes="" shape="-168.13,-39.72 -166.24,-42.30"/>
    <junction id="gneJ13" type="traffic_light" x="57.34" y="35.29" incLanes="gneE13_0" intLanes=":gneJ13_0_0" shape="57.38,35.26 59.56,32.92 57.37,35.25">
        <request index="0" response="0" foes="0" cont="0"/>
    </junction>
    <junction id="gneJ2" type="unregulated" x="-377.08" y="59.59" incLanes="" intLanes="" shape="-377.08,59.54 -377.08,53.04"/>
    <junction id="gneJ3" type="priority" x="-151.72" y="59.59" incLanes="gneE2_0 gneE2_1" intLanes=":gneJ3_0_0 :gneJ3_1_0 :gneJ3_2_0" shape="-138.69,59.54 -138.69,53.04 -138.88,52.30 -140.45,49.52 -143.69,53.04 -143.69,59.54">
        <request index="0" response="000" foes="000" cont="0"/>
        <request index="1" response="000" foes="000" cont="0"/>
        <request index="2" response="000" foes="000" cont="0"/>
    </junction>
    <junction id="gneJ4" type="priority" x="83.42" y="59.63" incLanes="gneE14_0 gneE3_0 gneE3_1" intLanes=":gneJ4_0_0 :gneJ4_1_0 :gneJ4_2_0" shape="79.13,59.58 79.13,49.78 76.53,48.76 74.35,51.10 74.97,53.08 74.97,59.58">
        <request index="0" response="000" foes="000" cont="0"/>
        <request index="1" response="000" foes="000" cont="0"/>
        <request index="2" response="000" foes="000" cont="0"/>
    </junction>
    <junction id="gneJ5" type="priority" x="-84.44" y="21.72" incLanes="gneE12_0 gneE4_0" intLanes=":gneJ5_0_0 :gneJ5_1_0" shape="-81.88,21.67 -81.88,18.47 -86.59,16.12 -88.48,18.70 -88.58,20.32 -87.01,23.11">
        <request index="0" response="00" foes="10" cont="0"/>
        <request index="1" response="01" foes="01" cont="0"/>
    </junction>
    <junction id="gneJ6" type="priority" x="43.11" y="21.72" incLanes="gneE5_0" intLanes=":gneJ6_0_0 :gneJ6_1_0" shape="45.16,23.60 47.37,21.29 47.65,19.64 46.35,16.72 40.89,18.47 40.89,21.67">
        <request index="0" response="00" foes="00" cont="0"/>
        <request index="1" response="00" foes="00" cont="0"/>
    </junction>
    <junction id="gneJ7" type="priority" x="194.13" y="59.63" incLanes="gneE7_0 gneE7_1 gneE7_2" intLanes=":gneJ7_0_0 :gneJ7_1_0" shape="195.63,59.58 195.63,53.08 192.63,49.78 192.63,59.58">
        <request index="0" response="00" foes="00" cont="0"/>
        <request index="1" response="00" foes="00" cont="0"/>
    </junction>
    <junction id="gneJ8" type="priority" x="300.33" y="59.63" incLanes="gneE8_0 gneE8_1" intLanes=":gneJ8_0_0" shape="301.83,59.58 301.83,56.38 298.83,53.08 298.83,59.58">
        <request index="0" response="0" foes="0" cont="0"/>
    </junction>
    <junction id="gneJ9" type="unregulated" x="155.32" y="-28.22" incLanes="gneE9_0" intLanes="" shape="154.00,-31.19 155.30,-28.27"/>

    <connection from="gneE12" to="gneE5" fromLane="0" toLane="0" via=":gneJ5_0_0" dir="s" state="M"/>
    <connection from="gneE13" to="gneE14" fromLane="0" toLane="0" via=":gneJ13_0_0" tl="gneJ13" linkIndex="0" dir="s" state="o"/>
    <connection from="gneE14" to="gneE7" fromLane="0" toLane="0" pass="1" via=":gneJ4_0_0" dir="s" state="M"/>
    <connection from="gneE2" to="gneE4" fromLane="0" toLane="0" via=":gneJ3_0_0" dir="s" state="M"/>
    <connection from="gneE2" to="gneE3" fromLane="0" toLane="0" via=":gneJ3_1_0" dir="s" state="M"/>
    <connection from="gneE2" to="gneE3" fromLane="1" toLane="1" via=":gneJ3_2_0" dir="s" state="M"/>
    <connection from="gneE3" to="gneE7" fromLane="0" toLane="1" pass="1" via=":gneJ4_1_0" dir="s" state="M"/>
    <connection from="gneE3" to="gneE7" fromLane="1" toLane="2" pass="1" via=":gneJ4_2_0" dir="s" state="M"/>
    <connection from="gneE4" to="gneE5" fromLane="0" toLane="0" via=":gneJ5_1_0" dir="s" state="m"/>
    <connection from="gneE5" to="gneE9" fromLane="0" toLane="0" via=":gneJ6_0_0" dir="s" state="M"/>
    <connection from="gneE5" to="gneE13" fromLane="0" toLane="0" via=":gneJ6_1_0" dir="s" state="M"/>
    <connection from="gneE7" to="gneE8" fromLane="0" toLane="0" via=":gneJ7_0_0" dir="s" state="M"/>
    <connection from="gneE7" to="gneE8" fromLane="1" toLane="1" via=":gneJ7_1_0" dir="s" state="M"/>
    <connection from="gneE8" to="gneE11" fromLane="0" toLane="0" via=":gneJ8_0_0" dir="s" state="M"/>

    <connection from=":gneJ13_0" to="gneE14" fromLane="0" toLane="0" dir="s" state="M"/>
    <connection from=":gneJ3_0" to="gneE4" fromLane="0" toLane="0" dir="s" state="M"/>
    <connection from=":gneJ3_1" to="gneE3" fromLane="0" toLane="0" dir="s" state="M"/>
    <connection from=":gneJ3_2" to="gneE3" fromLane="0" toLane="1" dir="s" state="M"/>
    <connection from=":gneJ4_0" to="gneE7" fromLane="0" toLane="0" dir="s" state="M"/>
    <connection from=":gneJ4_1" to="gneE7" fromLane="0" toLane="1" dir="s" state="M"/>
    <connection from=":gneJ4_2" to="gneE7" fromLane="0" toLane="2" dir="s" state="M"/>
    <connection from=":gneJ5_0" to="gneE5" fromLane="0" toLane="0" dir="s" state="M"/>
    <connection from=":gneJ5_1" to="gneE5" fromLane="0" toLane="0" dir="s" state="M"/>
    <connection from=":gneJ6_0" to="gneE9" fromLane="0" toLane="0" dir="s" state="M"/>
    <connection from=":gneJ6_1" to="gneE13" fromLane="0" toLane="0" dir="s" state="M"/>
    <connection from=":gneJ7_0" to="gneE8" fromLane="0" toLane="0" dir="s" state="M"/>
    <connection from=":gneJ7_1" to="gneE8" fromLane="0" toLane="1" dir="s" state="M"/>
    <connection from=":gneJ8_0" to="gneE11" fromLane="0" toLane="0" dir="s" state="M"/>

</net>
