<additional xmlns:xsi="http://www.w3.org/2001/XMLSchema-instance" xsi:noNamespaceSchemaLocation="https://sumo.dlr.de/xsd/additional_file.xsd">

	<!-- Calibrator with vehicleTypes -->
	<calibrator id="calibratorVehicleTypes" edge="gneE0" pos="10.00" freq="100.00" output="calibratorVehicleTypes.txt">
	
		<!-- non valid (empty) -->
		<vType id="type01"/>
		
		<!-- non valid (dummy) -->
		<vType id="type02" maxSpeed="dummyMaxSpeed"/>
		
		<!-- non valid (negative) -->
		<vType id="type03" maxSpeed="-12"/>
		
		<!-- valid -->
		<vType id="type04" maxSpeed="7.5"/>
		
	</calibrator>
	
</additional>
