<?xml version="1.0"?>

<!-- generated on 01/05/10 11:00:52 by SUMO polyconvert Version dev-SVN-r8106
<configuration>

    <input>
        <dlr-navteq-poly-files value="dlr_navteq_polygons.txt"/>
    </input>

    <output>
        <output value="pois.poi.xml"/>
    </output>

    <projection>
        <proj.shift value="5"/>
        <proj.utm value="true"/>
    </projection>

    <report>
        <verbose value="true"/>
    </report>

</configuration>
-->

<shapes>
    <poly id="noname#0" type="unknown" color="0.20,0.50,1.00" fill="0" layer="-1" shape="0.00,0.00 22.65,-47.35 139.86,-87.24"/>
    <poly id="noname#1" type="unknown" color="0.20,0.50,1.00" fill="0" layer="-1" shape="1732.51,-6198.51 2167.49,-6523.88 2202.13,-6404.61 2208.60,-6212.25"/>
</shapes>
