<additional>

	<vtypeprobe id="test1" type="" freq="10" file="vtypeprobe.xml"/>

</additional>
