<?xml version="1.0" encoding="UTF-8"?>

<!-- generated on Mon 30 Jan 2012 01:07:10 PM CET by Netedit Version dev-SVN-r11809
This data file and the accompanying materials
are made available under the terms of the Eclipse Public License v2.0
which accompanies this distribution, and is available at
http://www.eclipse.org/legal/epl-v20.html
SPDX-License-Identifier: EPL-2.0
<configuration xmlns:xsi="http://www.w3.org/2001/XMLSchema-instance" xsi:noNamespaceSchemaLocation="http://sumo.dlr.de/xsd/netedit.exeConfiguration.xsd">

    <input>
        <sumo-net-file value="/home/erdm_ja/delphi-extern/sumo/tests/sumo/model/stop_at_position/net.net.xml"/>
    </input>

    <output>
        <output-file value="/home/erdm_ja/delphi-extern/sumo/tests/sumo/model/stop_at_position/net.net.xml"/>
    </output>

    <processing>
        <no-turnarounds value="true"/>
        <offset.disable-normalization value="true"/>
    </processing>

</configuration>
-->

<net version="0.13" xmlns:xsi="http://www.w3.org/2001/XMLSchema-instance" xsi:noNamespaceSchemaLocation="http://sumo.dlr.de/xsd/net_file.xsd">

    <location netOffset="1589.00,1511.23" convBoundary="0.00,0.00,3178.00,3022.46" origBoundary="-1589.00,-1511.23,1589.00,1511.23" projParameter="!"/>

    <edge id="gneE0" from="start" to="end" priority="1" spreadType="center">
        <lane id="gneE0_0" index="0" speed="30" length="1000.00" shape="0.00,0.00 1000.00,0.00"/>
    </edge>

    <junction id="end" type="unregulated" x="1000.00" y="0.00" incLanes="gneE0_0" intLanes="" shape="1000.00,-1.60 1000.00,1.60">
    </junction>
    <junction id="start" type="unregulated" x="0.00" y="0.00" incLanes="" intLanes="" shape="-0.00,1.60 0.00,-1.60">
    </junction>

</net>
