<routes>
    <vType id="t0" sigma="0"/>
    <vehicle id="v0" type="t0" depart="0" departPos="-1">
        <route edges="WC CE"/>
        <stop lane="WC_0" duration="20" endPos="-0.1"/>
    </vehicle>

    <person id="p0" depart="0" departPos="1">
        <walk edges="CE WC" departPosLat="1"/>
    </person>

</routes>
