<?xml version="1.0" encoding="UTF-8"?>

<!-- generated on 07/06/17 11:20:30 by SUMO Version dev-SVN-r25114
<?xml version="1.0" encoding="UTF-8"?>

<configuration xmlns:xsi="http://www.w3.org/2001/XMLSchema-instance" xsi:noNamespaceSchemaLocation="http://sumo.dlr.de/xsd/sumoConfiguration.xsd">

    <input>
        <net-file value="three_split.net.xml"/>
        <additional-files value="input_additional.add.xml"/>
    </input>

    <time>
        <end value="7201"/>
    </time>

    <report>
        <xml-validation value="never"/>
        <duration-log.disable value="true"/>
        <no-step-log value="true"/>
    </report>

</configuration>
-->

<calibratorstats xmlns:xsi="http://www.w3.org/2001/XMLSchema-instance" xsi:noNamespaceSchemaLocation="http://sumo.dlr.de/xsd/calibratorstats_file.xsd">
    <interval begin="0.00" end="1800.00" id="calibtest" nVehContrib="1250" removed="0" inserted="1250" cleared="0" flow="2500.00" aspiredFlow="2500.00" speed="29.68" aspiredSpeed="27.80"/>
    <interval begin="1800.00" end="3600.00" id="calibtest" nVehContrib="1115" removed="0" inserted="1115" cleared="0" flow="2230.00" aspiredFlow="2500.00" speed="15.41" aspiredSpeed="15.00"/>
    <interval begin="3600.00" end="5400.00" id="calibtest" nVehContrib="1046" removed="0" inserted="1046" cleared="0" flow="2092.00" aspiredFlow="2500.00" speed="9.91" aspiredSpeed="10.00"/>
    <interval begin="5400.00" end="7200.00" id="calibtest" nVehContrib="764" removed="0" inserted="764" cleared="0" flow="1528.00" aspiredFlow="2500.00" speed="5.00" aspiredSpeed="5.00"/>
</calibratorstats>
