<?xml version="1.0" encoding="UTF-8"?>

<!-- generated on 05/02/13 14:16:27 by SUMO sumo Version 0.17.0
<?xml version="1.0" encoding="UTF-8"?>

<configuration xmlns:xsi="http://www.w3.org/2001/XMLSchema-instance" xsi:noNamespaceSchemaLocation="http://sumo-sim.org/xsd/sumoConfiguration.xsd">

    <input>
        <net-file value="three_split.net.xml"/>
        <additional-files value="input_additional.add.xml"/>
    </input>

    <time>
        <end value="7201"/>
    </time>

    <report>
        <no-duration-log value="true"/>
        <no-step-log value="true"/>
    </report>

</configuration>
-->

<calibratorstats>
   <interval begin="0.00" end="1800.00" id="calibtest" nVehContrib="1250" removed="0" inserted="1250" cleared="0" flow="2500.00" aspiredFlow="2500.00" speed="28.44" aspiredSpeed="27.80"/>
   <interval begin="1800.00" end="3600.00" id="calibtest" nVehContrib="1124" removed="0" inserted="1124" cleared="0" flow="2248.00" aspiredFlow="2500.00" speed="15.38" aspiredSpeed="15.00"/>
   <interval begin="3600.00" end="5400.00" id="calibtest" nVehContrib="989" removed="0" inserted="989" cleared="0" flow="1978.00" aspiredFlow="2500.00" speed="10.07" aspiredSpeed="10.00"/>
   <interval begin="5400.00" end="7200.00" id="calibtest" nVehContrib="725" removed="0" inserted="725" cleared="0" flow="1450.00" aspiredFlow="2500.00" speed="4.74" aspiredSpeed="5.00"/>
</calibratorstats>
