<?xml version="1.0" encoding="UTF-8"?>

<!-- generated on Thu Apr 12 13:06:05 2018 by SUMO netconvert Version 51a1a62
This data file and the accompanying materials
are made available under the terms of the Eclipse Public License v2.0
which accompanies this distribution, and is available at
http://www.eclipse.org/legal/epl-v20.html
SPDX-License-Identifier: EPL-2.0
<configuration xmlns:xsi="http://www.w3.org/2001/XMLSchema-instance" xsi:noNamespaceSchemaLocation="http://sumo.dlr.de/xsd/netconvertConfiguration.xsd">

    <input>
        <osm-files value="osm.xml"/>
    </input>

    <output>
        <write-license value="true"/>
        <output-file value="net.net.xml"/>
        <plain-output-prefix value="plain"/>
    </output>

    <projection>
        <proj.utm value="true"/>
    </projection>

    <report>
        <xml-validation value="never"/>
    </report>

</configuration>
-->

<net version="0.27" xmlns:xsi="http://www.w3.org/2001/XMLSchema-instance" xsi:noNamespaceSchemaLocation="http://sumo.dlr.de/xsd/net_file.xsd">

    <location netOffset="-362705.63,-5761721.48" convBoundary="0.00,0.00,4118.45,2224.15" origBoundary="13.000000,51.990000,13.060000,52.010000" projParameter="+proj=utm +zone=33 +ellps=WGS84 +datum=WGS84 +units=m +no_defs"/>

    <type id="highway.bridleway" priority="1" numLanes="1" speed="2.78" allow="pedestrian" oneway="1" width="2.00"/>
    <type id="highway.bus_guideway" priority="1" numLanes="1" speed="27.78" allow="bus" oneway="1"/>
    <type id="highway.cycleway" priority="1" numLanes="1" speed="8.33" allow="bicycle" oneway="0" width="1.00"/>
    <type id="highway.footway" priority="1" numLanes="1" speed="2.78" allow="pedestrian" oneway="1" width="2.00"/>
    <type id="highway.ford" priority="1" numLanes="1" speed="2.78" allow="army" oneway="0"/>
    <type id="highway.living_street" priority="3" numLanes="1" speed="2.78" disallow="tram rail_urban rail rail_electric ship" oneway="0"/>
    <type id="highway.motorway" priority="13" numLanes="2" speed="44.44" allow="private emergency authority army vip passenger hov taxi bus coach delivery truck trailer motorcycle evehicle custom1 custom2" oneway="1"/>
    <type id="highway.motorway_link" priority="12" numLanes="1" speed="22.22" allow="private emergency authority army vip passenger hov taxi bus coach delivery truck trailer motorcycle evehicle custom1 custom2" oneway="1"/>
    <type id="highway.path" priority="1" numLanes="1" speed="2.78" allow="bicycle pedestrian" oneway="1" width="2.00"/>
    <type id="highway.pedestrian" priority="1" numLanes="1" speed="2.78" allow="pedestrian" oneway="1" width="2.00"/>
    <type id="highway.primary" priority="9" numLanes="2" speed="27.78" disallow="tram rail_urban rail rail_electric ship" oneway="0"/>
    <type id="highway.primary_link" priority="8" numLanes="1" speed="22.22" disallow="tram rail_urban rail rail_electric ship" oneway="0"/>
    <type id="highway.raceway" priority="14" numLanes="2" speed="83.33" allow="vip" oneway="0"/>
    <type id="highway.residential" priority="4" numLanes="1" speed="13.89" disallow="tram rail_urban rail rail_electric ship" oneway="0"/>
    <type id="highway.secondary" priority="7" numLanes="2" speed="27.78" disallow="tram rail_urban rail rail_electric ship" oneway="0"/>
    <type id="highway.secondary_link" priority="6" numLanes="1" speed="22.22" disallow="tram rail_urban rail rail_electric ship" oneway="0"/>
    <type id="highway.service" priority="2" numLanes="1" speed="5.56" allow="delivery bicycle pedestrian" oneway="0"/>
    <type id="highway.services" priority="1" numLanes="1" speed="8.33" disallow="tram rail_urban rail rail_electric ship" oneway="0"/>
    <type id="highway.stairs" priority="1" numLanes="1" speed="1.39" allow="pedestrian" oneway="1" width="2.00"/>
    <type id="highway.step" priority="1" numLanes="1" speed="1.39" allow="pedestrian" oneway="1" width="2.00"/>
    <type id="highway.steps" priority="1" numLanes="1" speed="1.39" allow="pedestrian" oneway="1" width="2.00"/>
    <type id="highway.tertiary" priority="6" numLanes="1" speed="22.22" disallow="tram rail_urban rail rail_electric ship" oneway="0"/>
    <type id="highway.tertiary_link" priority="5" numLanes="1" speed="22.22" disallow="tram rail_urban rail rail_electric ship" oneway="0"/>
    <type id="highway.track" priority="1" numLanes="1" speed="5.56" disallow="tram rail_urban rail rail_electric ship" oneway="0"/>
    <type id="highway.trunk" priority="11" numLanes="2" speed="27.78" disallow="tram rail_urban rail rail_electric bicycle pedestrian ship" oneway="0"/>
    <type id="highway.trunk_link" priority="10" numLanes="1" speed="22.22" disallow="tram rail_urban rail rail_electric bicycle pedestrian ship" oneway="0"/>
    <type id="highway.unclassified" priority="5" numLanes="1" speed="13.89" disallow="tram rail_urban rail rail_electric ship" oneway="0"/>
    <type id="highway.unsurfaced" priority="1" numLanes="1" speed="8.33" disallow="tram rail_urban rail rail_electric ship" oneway="0"/>
    <type id="railway.light_rail" priority="15" numLanes="1" speed="27.78" allow="rail_urban" oneway="1"/>
    <type id="railway.preserved" priority="15" numLanes="1" speed="27.78" allow="rail" oneway="1"/>
    <type id="railway.rail" priority="15" numLanes="1" speed="83.33" allow="rail rail_electric" oneway="1"/>
    <type id="railway.subway" priority="15" numLanes="1" speed="27.78" allow="rail_urban" oneway="1"/>
    <type id="railway.tram" priority="15" numLanes="1" speed="13.89" allow="tram" oneway="1"/>

    <edge id=":0_0" function="internal">
        <lane id=":0_0_0" index="0" disallow="tram rail_urban rail rail_electric ship" speed="27.78" length="4.67" shape="0.04,1206.93 -1.18,1206.17 -1.60,1205.38 -1.22,1204.57 -0.04,1203.73"/>
    </edge>
    <edge id=":1_0" function="internal">
        <lane id=":1_0_0" index="0" disallow="tram rail_urban rail rail_electric ship" speed="27.78" length="9.40" shape="691.15,1187.96 681.75,1188.22"/>
    </edge>
    <edge id=":1_1" function="internal">
        <lane id=":1_1_0" index="0" disallow="tram rail_urban rail rail_electric ship" speed="27.78" length="4.32" shape="691.15,1187.96 688.38,1187.45 687.24,1186.47"/>
    </edge>
    <edge id=":1_2" function="internal">
        <lane id=":1_2_0" index="0" disallow="tram rail_urban rail rail_electric ship" speed="27.78" length="2.34" shape="691.15,1187.96 689.93,1187.20 689.50,1186.41"/>
    </edge>
    <edge id=":1_9" function="internal">
        <lane id=":1_9_0" index="0" speed="27.78" length="8.53" shape="687.24,1186.47 686.36,1185.72 685.10,1182.78 684.59,1178.64"/>
    </edge>
    <edge id=":1_10" function="internal">
        <lane id=":1_10_0" index="0" speed="27.78" length="2.34" shape="689.50,1186.41 689.88,1185.60 691.06,1184.76"/>
    </edge>
    <edge id=":1_3" function="internal">
        <lane id=":1_3_0" index="0" disallow="tram rail_urban rail rail_electric ship" speed="27.78" length="5.00" shape="687.79,1178.55 688.02,1179.90 688.63,1180.85 689.61,1181.41 690.97,1181.57"/>
    </edge>
    <edge id=":1_4" function="internal">
        <lane id=":1_4_0" index="0" disallow="tram rail_urban rail rail_electric ship" speed="27.78" length="12.84" shape="687.79,1178.55 687.51,1182.72 686.41,1185.72 684.49,1187.55 681.75,1188.22"/>
    </edge>
    <edge id=":1_5" function="internal">
        <lane id=":1_5_0" index="0" disallow="tram rail_urban rail rail_electric ship" speed="27.78" length="4.67" shape="687.79,1178.55 687.02,1179.77 686.23,1180.19 685.42,1179.82 684.59,1178.64"/>
    </edge>
    <edge id=":1_6" function="internal">
        <lane id=":1_6_0" index="0" disallow="tram rail_urban rail rail_electric ship" speed="27.78" length="9.40" shape="681.58,1181.82 690.97,1181.57"/>
        <lane id=":1_6_1" index="1" disallow="tram rail_urban rail rail_electric ship" speed="27.78" length="9.40" shape="681.66,1185.02 691.06,1184.76"/>
    </edge>
    <edge id=":1_8" function="internal">
        <lane id=":1_8_0" index="0" disallow="tram rail_urban rail rail_electric ship" speed="27.78" length="2.34" shape="681.66,1185.02 682.88,1185.79 683.31,1186.58"/>
    </edge>
    <edge id=":1_11" function="internal">
        <lane id=":1_11_0" index="0" speed="27.78" length="2.34" shape="683.31,1186.58 682.93,1187.39 681.75,1188.22"/>
    </edge>
    <edge id=":10_0" function="internal">
        <lane id=":10_0_0" index="0" disallow="tram rail_urban rail rail_electric ship" speed="27.78" length="4.67" shape="4118.40,1092.10 4119.62,1092.87 4120.04,1093.66 4119.67,1094.47 4118.49,1095.30"/>
    </edge>
    <edge id=":11_0" function="internal">
        <lane id=":11_0_0" index="0" disallow="tram rail_urban rail rail_electric ship" speed="27.78" length="4.67" shape="3400.60,0.04 3401.37,-1.18 3402.16,-1.60 3402.97,-1.22 3403.80,-0.04"/>
    </edge>
    <edge id=":12_0" function="internal">
        <lane id=":12_0_0" index="0" disallow="tram rail_urban rail rail_electric ship" speed="27.78" length="4.67" shape="3463.47,2224.10 3462.71,2225.32 3461.92,2225.75 3461.11,2225.37 3460.27,2224.19"/>
    </edge>
    <edge id=":2_0" function="internal">
        <lane id=":2_0_0" index="0" disallow="tram rail_urban rail rail_electric ship" speed="27.78" length="9.40" shape="1377.55,1169.22 1368.16,1169.47"/>
    </edge>
    <edge id=":2_1" function="internal">
        <lane id=":2_1_0" index="0" disallow="tram rail_urban rail rail_electric ship" speed="27.78" length="9.30" shape="1377.55,1169.22 1374.78,1168.70 1372.76,1166.97 1371.50,1164.04 1371.43,1163.41"/>
    </edge>
    <edge id=":2_2" function="internal">
        <lane id=":2_2_0" index="0" disallow="tram rail_urban rail rail_electric ship" speed="27.78" length="4.67" shape="1377.55,1169.22 1376.33,1168.45 1375.91,1167.66 1376.29,1166.85 1377.47,1166.02"/>
    </edge>
    <edge id=":2_8" function="internal">
        <lane id=":2_8_0" index="0" speed="27.78" length="3.54" shape="1371.43,1163.41 1371.00,1159.89"/>
    </edge>
    <edge id=":2_3" function="internal">
        <lane id=":2_3_0" index="0" disallow="tram rail_urban rail rail_electric ship" speed="27.78" length="5.00" shape="1374.20,1159.81 1374.43,1161.16 1375.03,1162.11 1376.02,1162.66 1377.38,1162.82"/>
    </edge>
    <edge id=":2_4" function="internal">
        <lane id=":2_4_0" index="0" disallow="tram rail_urban rail rail_electric ship" speed="27.78" length="7.76" shape="1374.20,1159.81 1374.46,1162.55 1375.10,1164.51 1376.10,1165.66 1377.47,1166.02"/>
    </edge>
    <edge id=":2_5" function="internal">
        <lane id=":2_5_0" index="0" disallow="tram rail_urban rail rail_electric ship" speed="27.78" length="12.84" shape="1374.20,1159.81 1373.91,1163.97 1372.82,1166.97 1370.90,1168.80 1368.16,1169.47"/>
    </edge>
    <edge id=":2_6" function="internal">
        <lane id=":2_6_0" index="0" disallow="tram rail_urban rail rail_electric ship" speed="27.78" length="4.67" shape="1374.20,1159.81 1373.43,1161.03 1372.64,1161.45 1371.83,1161.07 1371.00,1159.89"/>
    </edge>
    <edge id=":2_7" function="internal">
        <lane id=":2_7_0" index="0" disallow="tram rail_urban rail rail_electric ship" speed="27.78" length="5.00" shape="1367.98,1163.08 1369.33,1162.84 1370.29,1162.24 1370.84,1161.25 1371.00,1159.89"/>
    </edge>
    <edge id=":3_0" function="internal">
        <lane id=":3_0_0" index="0" disallow="tram rail_urban rail rail_electric ship" speed="27.78" length="9.40" shape="2063.96,1150.57 2054.56,1150.82"/>
    </edge>
    <edge id=":3_1" function="internal">
        <lane id=":3_1_0" index="0" disallow="tram rail_urban rail rail_electric ship" speed="27.78" length="2.34" shape="2063.96,1150.57 2062.74,1149.80 2062.32,1149.01"/>
    </edge>
    <edge id=":3_9" function="internal">
        <lane id=":3_9_0" index="0" speed="27.78" length="2.34" shape="2062.32,1149.01 2062.69,1148.20 2063.87,1147.37"/>
    </edge>
    <edge id=":3_2" function="internal">
        <lane id=":3_2_0" index="0" disallow="tram rail_urban rail rail_electric ship" speed="27.78" length="5.00" shape="2060.60,1141.15 2060.83,1142.50 2061.44,1143.46 2062.43,1144.01 2063.79,1144.17"/>
    </edge>
    <edge id=":3_3" function="internal">
        <lane id=":3_3_0" index="0" disallow="tram rail_urban rail rail_electric ship" speed="27.78" length="12.84" shape="2060.60,1141.15 2060.32,1145.32 2059.22,1148.32 2057.30,1150.15 2054.56,1150.82"/>
    </edge>
    <edge id=":3_4" function="internal">
        <lane id=":3_4_0" index="0" disallow="tram rail_urban rail rail_electric ship" speed="27.78" length="4.67" shape="2060.60,1141.15 2059.84,1142.37 2059.05,1142.80 2058.24,1142.42 2057.40,1141.24"/>
    </edge>
    <edge id=":3_5" function="internal">
        <lane id=":3_5_0" index="0" disallow="tram rail_urban rail rail_electric ship" speed="27.78" length="5.00" shape="2054.39,1144.42 2055.74,1144.19 2056.69,1143.58 2057.25,1142.60 2057.40,1141.24"/>
    </edge>
    <edge id=":3_6" function="internal">
        <lane id=":3_6_0" index="0" disallow="tram rail_urban rail rail_electric ship" speed="27.78" length="9.40" shape="2054.39,1144.42 2063.79,1144.17"/>
        <lane id=":3_6_1" index="1" disallow="tram rail_urban rail rail_electric ship" speed="27.78" length="9.40" shape="2054.48,1147.62 2063.87,1147.37"/>
    </edge>
    <edge id=":3_8" function="internal">
        <lane id=":3_8_0" index="0" disallow="tram rail_urban rail rail_electric ship" speed="27.78" length="2.34" shape="2054.48,1147.62 2055.70,1148.39 2056.12,1149.18"/>
    </edge>
    <edge id=":3_10" function="internal">
        <lane id=":3_10_0" index="0" speed="27.78" length="2.34" shape="2056.12,1149.18 2055.74,1149.99 2054.56,1150.82"/>
    </edge>
    <edge id=":4_0" function="internal">
        <lane id=":4_0_0" index="0" disallow="tram rail_urban rail rail_electric ship" speed="27.78" length="10.17" shape="2750.54,1138.41 2747.75,1137.09 2745.67,1132.96 2745.19,1130.55"/>
    </edge>
    <edge id=":4_9" function="internal">
        <lane id=":4_9_0" index="0" speed="27.78" length="14.37" shape="2745.19,1130.55 2744.30,1126.03 2743.64,1116.28"/>
    </edge>
    <edge id=":4_1" function="internal">
        <lane id=":4_1_0" index="0" disallow="tram rail_urban rail rail_electric ship" speed="27.78" length="5.00" shape="2746.84,1116.20 2747.07,1117.55 2747.68,1118.50 2748.66,1119.06 2750.02,1119.21"/>
    </edge>
    <edge id=":4_2" function="internal">
        <lane id=":4_2_0" index="0" disallow="tram rail_urban rail rail_electric ship" speed="27.78" length="7.76" shape="2746.84,1116.20 2747.11,1118.95 2747.74,1120.90 2748.74,1122.05 2750.11,1122.41"/>
    </edge>
    <edge id=":4_3" function="internal">
        <lane id=":4_3_0" index="0" disallow="tram rail_urban rail rail_electric ship" speed="27.78" length="18.58" shape="2746.84,1116.20 2746.63,1123.16 2745.59,1128.16 2743.70,1131.19 2740.97,1132.26"/>
    </edge>
    <edge id=":4_4" function="internal">
        <lane id=":4_4_0" index="0" disallow="tram rail_urban rail rail_electric ship" speed="27.78" length="4.67" shape="2746.84,1116.20 2746.07,1117.42 2745.28,1117.84 2744.47,1117.46 2743.64,1116.28"/>
    </edge>
    <edge id=":4_5" function="internal">
        <lane id=":4_5_0" index="0" disallow="tram rail_urban rail rail_electric ship" speed="27.78" length="10.69" shape="2740.80,1125.86 2742.14,1125.23 2743.06,1123.43 2743.56,1120.44 2743.64,1116.28"/>
    </edge>
    <edge id=":4_6" function="internal">
        <lane id=":4_6_0" index="0" disallow="tram rail_urban rail rail_electric ship" speed="27.78" length="9.40" shape="2740.80,1125.86 2750.19,1125.61"/>
        <lane id=":4_6_1" index="1" disallow="tram rail_urban rail rail_electric ship" speed="27.78" length="9.40" shape="2740.89,1129.06 2750.28,1128.81"/>
    </edge>
    <edge id=":4_8" function="internal">
        <lane id=":4_8_0" index="0" disallow="tram rail_urban rail rail_electric ship" speed="27.78" length="4.67" shape="2740.89,1129.06 2742.11,1129.83 2742.53,1130.62 2742.15,1131.43 2740.97,1132.26"/>
    </edge>
    <edge id=":5_0" function="internal">
        <lane id=":5_0_0" index="0" disallow="tram rail_urban rail rail_electric ship" speed="27.78" length="5.00" shape="3424.34,1123.38 3424.11,1122.03 3423.50,1121.08 3422.51,1120.53 3421.15,1120.37"/>
    </edge>
    <edge id=":5_1" function="internal">
        <lane id=":5_1_0" index="0" disallow="tram rail_urban rail rail_electric ship" speed="27.78" length="25.67" shape="3424.34,1123.38 3424.63,1115.80 3425.59,1110.65 3426.56,1105.49 3426.85,1097.91"/>
        <lane id=":5_1_1" index="1" disallow="tram rail_urban rail rail_electric ship" speed="27.78" length="25.67" shape="3427.53,1123.30 3427.83,1115.72 3428.79,1110.56 3429.76,1105.40 3430.05,1097.82"/>
    </edge>
    <edge id=":5_3" function="internal">
        <lane id=":5_3_0" index="0" disallow="tram rail_urban rail rail_electric ship" speed="27.78" length="25.64" shape="3427.53,1123.30 3428.34,1116.32 3431.19,1111.27 3436.08,1108.16 3443.00,1106.98"/>
    </edge>
    <edge id=":5_4" function="internal">
        <lane id=":5_4_0" index="0" disallow="tram rail_urban rail rail_electric ship" speed="27.78" length="20.48" shape="3430.73,1123.21 3431.38,1117.64 3433.65,1113.60 3437.56,1111.12 3443.09,1110.18"/>
    </edge>
    <edge id=":5_5" function="internal">
        <lane id=":5_5_0" index="0" disallow="tram rail_urban rail rail_electric ship" speed="27.78" length="4.67" shape="3430.73,1123.21 3431.50,1121.99 3432.29,1121.57 3433.10,1121.95 3433.93,1123.13"/>
    </edge>
    <edge id=":5_6" function="internal">
        <lane id=":5_6_0" index="0" disallow="tram rail_urban rail rail_electric ship" speed="27.78" length="7.76" shape="3443.26,1116.57 3441.91,1117.00 3440.98,1118.21 3440.45,1120.19 3440.33,1122.95"/>
    </edge>
    <edge id=":5_7" function="internal">
        <lane id=":5_7_0" index="0" disallow="tram rail_urban rail rail_electric ship" speed="27.78" length="22.20" shape="3443.26,1116.57 3421.07,1117.17"/>
        <lane id=":5_7_1" index="1" disallow="tram rail_urban rail rail_electric ship" speed="27.78" length="22.20" shape="3443.17,1113.37 3420.98,1113.97"/>
    </edge>
    <edge id=":5_9" function="internal">
        <lane id=":5_9_0" index="0" disallow="tram rail_urban rail rail_electric ship" speed="27.78" length="17.81" shape="3443.17,1113.37 3437.59,1112.53 3433.55,1109.66 3431.03,1104.75 3430.80,1103.08"/>
    </edge>
    <edge id=":5_10" function="internal">
        <lane id=":5_10_0" index="0" disallow="tram rail_urban rail rail_electric ship" speed="27.78" length="4.67" shape="3443.17,1113.37 3441.95,1112.61 3441.53,1111.82 3441.91,1111.01 3443.09,1110.18"/>
    </edge>
    <edge id=":5_22" function="internal">
        <lane id=":5_22_0" index="0" speed="27.78" length="5.31" shape="3430.80,1103.08 3430.05,1097.82"/>
    </edge>
    <edge id=":5_11" function="internal">
        <lane id=":5_11_0" index="0" disallow="tram rail_urban rail rail_electric ship" speed="27.78" length="7.76" shape="3439.65,1097.56 3439.92,1100.31 3440.55,1102.27 3441.55,1103.42 3442.92,1103.78"/>
    </edge>
    <edge id=":5_12" function="internal">
        <lane id=":5_12_0" index="0" disallow="tram rail_urban rail rail_electric ship" speed="27.78" length="12.84" shape="3436.45,1097.65 3436.96,1101.79 3438.22,1104.73 3440.23,1106.46 3443.00,1106.98"/>
    </edge>
    <edge id=":5_13" function="internal">
        <lane id=":5_13_0" index="0" disallow="tram rail_urban rail rail_electric ship" speed="27.78" length="25.40" shape="3436.45,1097.65 3437.13,1123.04"/>
        <lane id=":5_13_1" index="1" disallow="tram rail_urban rail rail_electric ship" speed="27.78" length="25.40" shape="3433.25,1097.74 3433.93,1123.13"/>
    </edge>
    <edge id=":5_15" function="internal">
        <lane id=":5_15_0" index="0" disallow="tram rail_urban rail rail_electric ship" speed="27.78" length="23.12" shape="3433.25,1097.74 3432.64,1104.71 3430.40,1109.74 3426.51,1112.83 3420.98,1113.97"/>
    </edge>
    <edge id=":5_16" function="internal">
        <lane id=":5_16_0" index="0" disallow="tram rail_urban rail rail_electric ship" speed="27.78" length="4.67" shape="3433.25,1097.74 3432.48,1098.96 3431.69,1099.38 3430.88,1099.00 3430.05,1097.82"/>
    </edge>
    <edge id=":5_17" function="internal">
        <lane id=":5_17_0" index="0" disallow="tram rail_urban rail rail_electric ship" speed="27.78" length="5.00" shape="3420.64,1101.17 3421.99,1100.94 3422.94,1100.34 3423.50,1099.35 3423.65,1097.99"/>
    </edge>
    <edge id=":5_18" function="internal">
        <lane id=":5_18_0" index="0" disallow="tram rail_urban rail rail_electric ship" speed="27.78" length="10.16" shape="3420.72,1104.37 3423.47,1103.91 3425.41,1102.67 3426.53,1100.67 3426.85,1097.91"/>
    </edge>
    <edge id=":5_19" function="internal">
        <lane id=":5_19_0" index="0" disallow="tram rail_urban rail rail_electric ship" speed="27.78" length="15.32" shape="3420.81,1107.57 3424.95,1106.87 3427.87,1105.01 3429.57,1101.99 3430.05,1097.82"/>
    </edge>
    <edge id=":5_20" function="internal">
        <lane id=":5_20_0" index="0" disallow="tram rail_urban rail rail_electric ship" speed="27.78" length="7.18" shape="3420.90,1110.77 3426.47,1111.42 3427.84,1112.19"/>
    </edge>
    <edge id=":5_21" function="internal">
        <lane id=":5_21_0" index="0" disallow="tram rail_urban rail rail_electric ship" speed="27.78" length="2.34" shape="3420.90,1110.77 3422.12,1111.54 3422.54,1112.33"/>
    </edge>
    <edge id=":5_23" function="internal">
        <lane id=":5_23_0" index="0" speed="27.78" length="13.30" shape="3427.84,1112.19 3430.50,1113.69 3432.99,1117.59 3433.93,1123.13"/>
    </edge>
    <edge id=":5_24" function="internal">
        <lane id=":5_24_0" index="0" speed="27.78" length="2.34" shape="3422.54,1112.33 3422.16,1113.14 3420.98,1113.97"/>
    </edge>
    <edge id=":6_0" function="internal">
        <lane id=":6_0_0" index="0" disallow="tram rail_urban rail rail_electric ship" speed="27.78" length="4.67" shape="654.36,74.47 655.13,73.25 655.91,72.83 656.73,73.20 657.56,74.38"/>
    </edge>
    <edge id=":7_0" function="internal">
        <lane id=":7_0_0" index="0" disallow="tram rail_urban rail rail_electric ship" speed="27.78" length="4.67" shape="1340.92,55.72 1341.69,54.50 1342.47,54.08 1343.28,54.46 1344.12,55.63"/>
    </edge>
    <edge id=":8_0" function="internal">
        <lane id=":8_0_0" index="0" disallow="tram rail_urban rail rail_electric ship" speed="27.78" length="4.67" shape="2027.48,37.07 2028.25,35.85 2029.03,35.42 2029.84,35.80 2030.68,36.98"/>
    </edge>
    <edge id=":9_0" function="internal">
        <lane id=":9_0_0" index="0" disallow="tram rail_urban rail rail_electric ship" speed="27.78" length="4.67" shape="2714.04,18.51 2714.81,17.29 2715.60,16.87 2716.41,17.24 2717.24,18.42"/>
    </edge>

    <edge id="-101" from="6" to="1" priority="7" type="highway.secondary">
        <lane id="-101_0" index="0" disallow="tram rail_urban rail rail_electric ship" speed="27.78" length="1104.58" shape="657.56,74.38 687.79,1178.55"/>
    </edge>
    <edge id="-102" from="7" to="2" priority="7" type="highway.secondary">
        <lane id="-102_0" index="0" disallow="tram rail_urban rail rail_electric ship" speed="27.78" length="1104.58" shape="1344.12,55.63 1374.20,1159.81"/>
    </edge>
    <edge id="-103" from="8" to="3" priority="7" type="highway.secondary">
        <lane id="-103_0" index="0" disallow="tram rail_urban rail rail_electric ship" speed="27.78" length="1104.58" shape="2030.68,36.98 2060.60,1141.15"/>
    </edge>
    <edge id="-104" from="9" to="4" priority="7" type="highway.secondary">
        <lane id="-104_0" index="0" disallow="tram rail_urban rail rail_electric ship" speed="27.78" length="1098.18" shape="2717.24,18.42 2746.84,1116.20"/>
    </edge>
    <edge id="-105" from="11" to="5" priority="7" type="highway.secondary">
        <lane id="-105_0" index="0" disallow="tram rail_urban rail rail_electric ship" speed="27.78" length="1098.17" shape="3410.20,-0.21 3439.65,1097.56"/>
        <lane id="-105_1" index="1" disallow="tram rail_urban rail rail_electric ship" speed="27.78" length="1098.17" shape="3407.00,-0.13 3436.45,1097.65"/>
        <lane id="-105_2" index="2" disallow="tram rail_urban rail rail_electric ship" speed="27.78" length="1098.17" shape="3403.80,-0.04 3433.25,1097.74"/>
    </edge>
    <edge id="-106" from="12" to="5" priority="7" type="highway.secondary">
        <lane id="-106_0" index="0" disallow="tram rail_urban rail rail_electric ship" speed="27.78" length="1101.37" shape="3453.88,2224.36 3424.34,1123.38"/>
        <lane id="-106_1" index="1" disallow="tram rail_urban rail rail_electric ship" speed="27.78" length="1101.37" shape="3457.08,2224.27 3427.53,1123.30"/>
        <lane id="-106_2" index="2" disallow="tram rail_urban rail rail_electric ship" speed="27.78" length="1101.37" shape="3460.27,2224.19 3430.73,1123.21"/>
    </edge>
    <edge id="-200" from="1" to="0" priority="7" type="highway.secondary">
        <lane id="-200_0" index="0" disallow="tram rail_urban rail rail_electric ship" speed="27.78" length="681.96" shape="681.75,1188.22 0.04,1206.93"/>
    </edge>
    <edge id="-201" from="2" to="1" priority="7" type="highway.secondary">
        <lane id="-201_0" index="0" disallow="tram rail_urban rail rail_electric ship" speed="27.78" length="677.26" shape="1368.16,1169.47 691.15,1187.96"/>
    </edge>
    <edge id="-202" from="3" to="2" priority="7" type="highway.secondary">
        <lane id="-202_0" index="0" disallow="tram rail_urban rail rail_electric ship" speed="27.78" length="677.26" shape="2054.56,1150.82 1377.55,1169.22"/>
    </edge>
    <edge id="-203" from="4" to="3" priority="7" type="highway.secondary">
        <lane id="-203_0" index="0" disallow="tram rail_urban rail rail_electric ship" speed="27.78" length="677.26" shape="2740.97,1132.26 2063.96,1150.57"/>
    </edge>
    <edge id="-204" from="5" to="4" priority="7" type="highway.secondary">
        <lane id="-204_0" index="0" disallow="tram rail_urban rail rail_electric ship" speed="27.78" length="670.86" shape="3421.15,1120.37 2750.54,1138.41"/>
        <lane id="-204_1" index="1" disallow="tram rail_urban rail rail_electric ship" speed="27.78" length="670.86" shape="3421.07,1117.17 2750.45,1135.21"/>
        <lane id="-204_2" index="2" disallow="tram rail_urban rail rail_electric ship" speed="27.78" length="670.86" shape="3420.98,1113.97 2750.37,1132.01"/>
    </edge>
    <edge id="-205" from="10" to="5" priority="7" type="highway.secondary">
        <lane id="-205_0" index="0" disallow="tram rail_urban rail rail_electric ship" speed="27.78" length="675.56" shape="4118.57,1098.50 3443.26,1116.57"/>
        <lane id="-205_1" index="1" disallow="tram rail_urban rail rail_electric ship" speed="27.78" length="675.56" shape="4118.49,1095.30 3443.17,1113.37"/>
    </edge>
    <edge id="101" from="1" to="6" priority="7" type="highway.secondary">
        <lane id="101_0" index="0" disallow="tram rail_urban rail rail_electric ship" speed="27.78" length="1104.58" shape="684.59,1178.64 654.36,74.47"/>
    </edge>
    <edge id="102" from="2" to="7" priority="7" type="highway.secondary">
        <lane id="102_0" index="0" disallow="tram rail_urban rail rail_electric ship" speed="27.78" length="1104.58" shape="1371.00,1159.89 1340.92,55.72"/>
    </edge>
    <edge id="103" from="3" to="8" priority="7" type="highway.secondary">
        <lane id="103_0" index="0" disallow="tram rail_urban rail rail_electric ship" speed="27.78" length="1104.58" shape="2057.40,1141.24 2027.48,37.07"/>
    </edge>
    <edge id="104" from="4" to="9" priority="7" type="highway.secondary">
        <lane id="104_0" index="0" disallow="tram rail_urban rail rail_electric ship" speed="27.78" length="1098.18" shape="2743.64,1116.28 2714.04,18.51"/>
    </edge>
    <edge id="105" from="5" to="11" priority="7" type="highway.secondary">
        <lane id="105_0" index="0" disallow="tram rail_urban rail rail_electric ship" speed="27.78" length="1098.17" shape="3423.65,1097.99 3394.20,0.21"/>
        <lane id="105_1" index="1" disallow="tram rail_urban rail rail_electric ship" speed="27.78" length="1098.17" shape="3426.85,1097.91 3397.40,0.13"/>
        <lane id="105_2" index="2" disallow="tram rail_urban rail rail_electric ship" speed="27.78" length="1098.17" shape="3430.05,1097.82 3400.60,0.04"/>
    </edge>
    <edge id="106" from="5" to="12" priority="7" type="highway.secondary">
        <lane id="106_0" index="0" disallow="tram rail_urban rail rail_electric ship" speed="27.78" length="1101.37" shape="3440.33,1122.95 3469.87,2223.93"/>
        <lane id="106_1" index="1" disallow="tram rail_urban rail rail_electric ship" speed="27.78" length="1101.37" shape="3437.13,1123.04 3466.67,2224.02"/>
        <lane id="106_2" index="2" disallow="tram rail_urban rail rail_electric ship" speed="27.78" length="1101.37" shape="3433.93,1123.13 3463.47,2224.10"/>
    </edge>
    <edge id="200" from="0" to="1" priority="7" type="highway.secondary">
        <lane id="200_0" index="0" disallow="tram rail_urban rail rail_electric ship" speed="27.78" length="681.96" shape="-0.13,1200.54 681.58,1181.82"/>
        <lane id="200_1" index="1" disallow="tram rail_urban rail rail_electric ship" speed="27.78" length="681.96" shape="-0.04,1203.73 681.66,1185.02"/>
    </edge>
    <edge id="201" from="1" to="2" priority="7" type="highway.secondary">
        <lane id="201_0" index="0" disallow="tram rail_urban rail rail_electric ship" speed="27.78" length="677.26" shape="690.97,1181.57 1367.98,1163.08"/>
        <lane id="201_1" index="1" disallow="tram rail_urban rail rail_electric ship" speed="27.78" length="677.26" shape="691.06,1184.76 1368.07,1166.27"/>
    </edge>
    <edge id="202" from="2" to="3" priority="7" type="highway.secondary">
        <lane id="202_0" index="0" disallow="tram rail_urban rail rail_electric ship" speed="27.78" length="677.26" shape="1377.38,1162.82 2054.39,1144.42"/>