<?xml version="1.0" encoding="UTF-8"?>

<!-- generated on Mon Jun 22 01:55:54 2020 by Eclipse SUMO Version v1_6_0+0887-0dd4682dc5
This data file and the accompanying materials
are made available under the terms of the Eclipse Public License v2.0
which accompanies this distribution, and is available at
http://www.eclipse.org/legal/epl-v20.html
SPDX-License-Identifier: EPL-2.0
<configuration xmlns:xsi="http://www.w3.org/2001/XMLSchema-instance" xsi:noNamespaceSchemaLocation="http://sumo.dlr.de/xsd/sumoConfiguration.xsd">

    <input>
        <net-file value="net.net.xml"/>
        <route-files value="input_routes.rou.xml"/>
        <additional-files value="input_additional.add.xml"/>
    </input>

    <output>
        <write-license value="true"/>
    </output>

    <time>
        <begin value="0"/>
        <end value="1000"/>
    </time>

    <processing>
        <default.speeddev value="0"/>
    </processing>

    <report>
        <xml-validation value="never"/>
        <duration-log.disable value="true"/>
        <no-step-log value="true"/>
    </report>

</configuration>
-->

<e3Detector xmlns:xsi="http://www.w3.org/2001/XMLSchema-instance" xsi:noNamespaceSchemaLocation="http://sumo.dlr.de/xsd/det_e3_file.xsd">
   <interval begin="0.00" end="60.00" id="e3_0_1si" meanTravelTime="-1.00" meanOverlapTravelTime="-1.00" meanSpeed="-1.00" meanHaltsPerVehicle="-1.00" meanTimeLoss="-1.00" vehicleSum="0" meanSpeedWithin="-1.00" meanHaltsPerVehicleWithin="-1.00" meanDurationWithin="-1.00" vehicleSumWithin="0" meanIntervalSpeedWithin="-1.00" meanIntervalHaltsPerVehicleWithin="-1.00" meanIntervalDurationWithin="-1.00" meanTimeLossWithin="-1.00"/>
   <interval begin="60.00" end="120.00" id="e3_0_1si" meanTravelTime="-1.00" meanOverlapTravelTime="-1.00" meanSpeed="-1.00" meanHaltsPerVehicle="-1.00" meanTimeLoss="-1.00" vehicleSum="0" meanSpeedWithin="-1.00" meanHaltsPerVehicleWithin="-1.00" meanDurationWithin="-1.00" vehicleSumWithin="0" meanIntervalSpeedWithin="-1.00" meanIntervalHaltsPerVehicleWithin="-1.00" meanIntervalDurationWithin="-1.00" meanTimeLossWithin="-1.00"/>
   <interval begin="120.00" end="180.00" id="e3_0_1si" meanTravelTime="7.58" meanOverlapTravelTime="8.06" meanSpeed="11.31" meanHaltsPerVehicle="0.00" meanTimeLoss="1.31" vehicleSum="7" meanSpeedWithin="3.31" meanHaltsPerVehicleWithin="1.00" meanDurationWithin="21.75" vehicleSumWithin="9" meanIntervalSpeedWithin="3.31" meanIntervalHaltsPerVehicleWithin="1.00" meanIntervalDurationWithin="21.75" meanTimeLossWithin="17.91"/>
   <interval begin="180.00" end="240.00" id="e3_0_1si" meanTravelTime="26.50" meanOverlapTravelTime="26.99" meanSpeed="5.34" meanHaltsPerVehicle="0.68" meanTimeLoss="20.49" vehicleSum="19" meanSpeedWithin="4.12" meanHaltsPerVehicleWithin="1.12" meanDurationWithin="22.44" vehicleSumWithin="16" meanIntervalSpeedWithin="4.12" meanIntervalHaltsPerVehicleWithin="1.12" meanIntervalDurationWithin="22.44" meanTimeLossWithin="17.96"/>
   <interval begin="240.00" end="300.00" id="e3_0_1si" meanTravelTime="27.22" meanOverlapTravelTime="27.71" meanSpeed="6.16" meanHaltsPerVehicle="0.90" meanTimeLoss="21.05" vehicleSum="39" meanSpeedWithin="3.22" meanHaltsPerVehicleWithin="1.15" meanDurationWithin="24.82" vehicleSumWithin="20" meanIntervalSpeedWithin="3.22" meanIntervalHaltsPerVehicleWithin="1.15" meanIntervalDurationWithin="24.82" meanTimeLossWithin="20.96"/>
   <interval begin="300.00" end="360.00" id="e3_0_1si" meanTravelTime="32.74" meanOverlapTravelTime="33.24" meanSpeed="5.76" meanHaltsPerVehicle="1.19" meanTimeLoss="26.57" vehicleSum="37" meanSpeedWithin="2.52" meanHaltsPerVehicleWithin="1.00" meanDurationWithin="24.60" vehicleSumWithin="24" meanIntervalSpeedWithin="2.52" meanIntervalHaltsPerVehicleWithin="1.00" meanIntervalDurationWithin="24.60" meanTimeLossWithin="21.26"/>
   <interval begin="360.00" end="420.00" id="e3_0_1si" meanTravelTime="31.28" meanOverlapTravelTime="31.77" meanSpeed="5.59" meanHaltsPerVehicle="0.89" meanTimeLoss="25.17" vehicleSum="46" meanSpeedWithin="3.46" meanHaltsPerVehicleWithin="1.33" meanDurationWithin="27.22" vehicleSumWithin="36" meanIntervalSpeedWithin="3.41" meanIntervalHaltsPerVehicleWithin="1.19" meanIntervalDurationWithin="25.57" meanTimeLossWithin="22.00"/>
   <interval begin="420.00" end="480.00" id="e3_0_1si" meanTravelTime="39.00" meanOverlapTravelTime="39.49" meanSpeed="5.13" meanHaltsPerVehicle="1.15" meanTimeLoss="32.90" vehicleSum="52" meanSpeedWithin="3.22" meanHaltsPerVehicleWithin="1.42" meanDurationWithin="31.68" vehicleSumWithin="31" meanIntervalSpeedWithin="3.21" meanIntervalHaltsPerVehicleWithin="1.26" meanIntervalDurationWithin="29.30" meanTimeLossWithin="25.96"/>
   <interval begin="480.00" end="540.00" id="e3_0_1si" meanTravelTime="40.84" meanOverlapTravelTime="41.33" meanSpeed="5.57" meanHaltsPerVehicle="1.43" meanTimeLoss="34.65" vehicleSum="44" meanSpeedWithin="2.23" meanHaltsPerVehicleWithin="1.26" meanDurationWithin="34.68" vehicleSumWithin="42" meanIntervalSpeedWithin="2.22" meanIntervalHaltsPerVehicleWithin="1.12" meanIntervalDurationWithin="31.78" meanTimeLossWithin="28.91"/>
   <interval begin="540.00" end="600.00" id="e3_0_1si" meanTravelTime="38.77" meanOverlapTravelTime="39.25" meanSpeed="4.55" meanHaltsPerVehicle="1.08" meanTimeLoss="32.77" vehicleSum="65" meanSpeedWithin="2.75" meanHaltsPerVehicleWithin="1.63" meanDurationWithin="36.89" vehicleSumWithin="41" meanIntervalSpeedWithin="2.71" meanIntervalHaltsPerVehicleWithin="1.27" meanIntervalDurationWithin="29.70" meanTimeLossWithin="26.31"/>
   <interval begin="600.00" end="660.00" id="e3_0_1si" meanTravelTime="42.98" meanOverlapTravelTime="43.46" meanSpeed="5.01" meanHaltsPerVehicle="1.30" meanTimeLoss="36.90" vehicleSum="60" meanSpeedWithin="2.56" meanHaltsPerVehicleWithin="1.62" meanDurationWithin="35.42" vehicleSumWithin="40" meanIntervalSpeedWithin="2.56" meanIntervalHaltsPerVehicleWithin="1.43" meanIntervalDurationWithin="31.10" meanTimeLossWithin="27.79"/>
   <interval begin="660.00" end="720.00" id="e3_0_1si" meanTravelTime="45.04" meanOverlapTravelTime="45.53" meanSpeed="4.26" meanHaltsPerVehicle="1.60" meanTimeLoss="38.91" vehicleSum="60" meanSpeedWithin="3.33" meanHaltsPerVehicleWithin="0.82" meanDurationWithin="23.40" vehicleSumWithin="40" meanIntervalSpeedWithin="3.32" meanIntervalHaltsPerVehicleWithin="0.82" meanIntervalDurationWithin="23.37" meanTimeLossWithin="20.08"/>
   <interval begin="720.00" end="780.00" id="e3_0_1si" meanTravelTime="36.11" meanOverlapTravelTime="36.60" meanSpeed="4.70" meanHaltsPerVehicle="1.05" meanTimeLoss="30.13" vehicleSum="62" meanSpeedWithin="2.92" meanHaltsPerVehicleWithin="1.26" meanDurationWithin="30.20" vehicleSumWithin="35" meanIntervalSpeedWithin="2.86" meanIntervalHaltsPerVehicleWithin="1.20" meanIntervalDurationWithin="28.44" meanTimeLossWithin="25.05"/>
   <interval begin="780.00" end="840.00" id="e3_0_1si" meanTravelTime="35.78" meanOverlapTravelTime="36.26" meanSpeed="5.39" meanHaltsPerVehicle="1.11" meanTimeLoss="29.72" vehicleSum="55" meanSpeedWithin="2.37" meanHaltsPerVehicleWithin="1.60" meanDurationWithin="33.89" vehicleSumWithin="42" meanIntervalSpeedWithin="2.37" meanIntervalHaltsPerVehicleWithin="1.48" meanIntervalDurationWithin="31.01" meanTimeLossWithin="27.58"/>
   <interval begin="840.00" end="900.00" id="e3_0_1si" meanTravelTime="46.84" meanOverlapTravelTime="47.33" meanSpeed="4.15" meanHaltsPerVehicle="1.66" meanTimeLoss="40.69" vehicleSum="56" meanSpeedWithin="3.31" meanHaltsPerVehicleWithin="0.97" meanDurationWithin="26.13" vehicleSumWithin="37" meanIntervalSpeedWithin="3.31" meanIntervalHaltsPerVehicleWithin="0.95" meanIntervalDurationWithin="25.38" meanTimeLossWithin="22.15"/>
   <interval begin="900.00" end="960.00" id="e3_0_1si" meanTravelTime="37.09" meanOverlapTravelTime="37.57" meanSpeed="4.38" meanHaltsPerVehicle="1.08" meanTimeLoss="31.14" vehicleSum="61" meanSpeedWithin="3.67" meanHaltsPerVehicleWithin="1.38" meanDurationWithin="31.07" vehicleSumWithin="37" meanIntervalSpeedWithin="3.63" meanIntervalHaltsPerVehicleWithin="1.19" meanIntervalDurationWithin="27.41" meanTimeLossWithin="23.70"/>
   <interval begin="960.00" end="1000.00" id="e3_0_1si" meanTravelTime="42.51" meanOverlapTravelTime="42.99" meanSpeed="5.45" meanHaltsPerVehicle="1.29" meanTimeLoss="36.33" vehicleSum="38" meanSpeedWithin="3.74" meanHaltsPerVehicleWithin="1.44" meanDurationWithin="23.86" vehicleSumWithin="39" meanIntervalSpeedWithin="3.67" meanIntervalHaltsPerVehicleWithin="1.15" meanIntervalDurationWithin="20.87" meanTimeLossWithin="17.28"/>
</e3Detector>
