<?xml version="1.0" encoding="UTF-8"?>

<!-- generated on Fri Aug 24 13:48:14 2018 by Eclipse SUMO Version ad1c44c
This data file and the accompanying materials
are made available under the terms of the Eclipse Public License v2.0
which accompanies this distribution, and is available at
http://www.eclipse.org/legal/epl-v20.html
SPDX-License-Identifier: EPL-2.0
<configuration xmlns:xsi="http://www.w3.org/2001/XMLSchema-instance" xsi:noNamespaceSchemaLocation="http://sumo.dlr.de/xsd/sumoConfiguration.xsd">

    <input>
        <net-file value="net.net.xml"/>
        <route-files value="input_routes.rou.xml"/>
        <additional-files value="input_additional.add.xml"/>
    </input>

    <output>
        <write-license value="true"/>
    </output>

    <time>
        <begin value="0"/>
        <end value="1000"/>
    </time>

    <processing>
        <default.speeddev value="0"/>
    </processing>

    <report>
        <xml-validation value="never"/>
        <duration-log.disable value="true"/>
        <no-step-log value="true"/>
    </report>

</configuration>
-->

<e3Detector xmlns:xsi="http://www.w3.org/2001/XMLSchema-instance" xsi:noNamespaceSchemaLocation="http://sumo.dlr.de/xsd/det_e3_file.xsd">
   <interval begin="0.00" end="60.00" id="e3_0_1si" meanTravelTime="-1.00" meanOverlapTravelTime="-1.00" meanSpeed="-1.00" meanHaltsPerVehicle="-1.00" meanTimeLoss="-1.00" vehicleSum="0" meanSpeedWithin="-1.00" meanHaltsPerVehicleWithin="-1.00" meanDurationWithin="-1.00" vehicleSumWithin="0" meanIntervalSpeedWithin="-1.00" meanIntervalHaltsPerVehicleWithin="-1.00" meanIntervalDurationWithin="-1.00" meanTimeLossWithin="-1.00"/>
   <interval begin="60.00" end="120.00" id="e3_0_1si" meanTravelTime="-1.00" meanOverlapTravelTime="-1.00" meanSpeed="-1.00" meanHaltsPerVehicle="-1.00" meanTimeLoss="-1.00" vehicleSum="0" meanSpeedWithin="-1.00" meanHaltsPerVehicleWithin="-1.00" meanDurationWithin="-1.00" vehicleSumWithin="0" meanIntervalSpeedWithin="-1.00" meanIntervalHaltsPerVehicleWithin="-1.00" meanIntervalDurationWithin="-1.00" meanTimeLossWithin="-1.00"/>
   <interval begin="120.00" end="180.00" id="e3_0_1si" meanTravelTime="7.62" meanOverlapTravelTime="8.10" meanSpeed="11.23" meanHaltsPerVehicle="0.00" meanTimeLoss="1.31" vehicleSum="7" meanSpeedWithin="3.24" meanHaltsPerVehicleWithin="16.67" meanDurationWithin="21.80" vehicleSumWithin="9" meanIntervalSpeedWithin="3.24" meanIntervalHaltsPerVehicleWithin="16.67" meanIntervalDurationWithin="21.80" meanTimeLossWithin="17.98"/>
   <interval begin="180.00" end="240.00" id="e3_0_1si" meanTravelTime="26.45" meanOverlapTravelTime="26.93" meanSpeed="5.35" meanHaltsPerVehicle="17.16" meanTimeLoss="20.43" vehicleSum="19" meanSpeedWithin="4.03" meanHaltsPerVehicleWithin="15.88" meanDurationWithin="22.74" vehicleSumWithin="16" meanIntervalSpeedWithin="4.03" meanIntervalHaltsPerVehicleWithin="15.88" meanIntervalDurationWithin="22.74" meanTimeLossWithin="18.23"/>
   <interval begin="240.00" end="300.00" id="e3_0_1si" meanTravelTime="28.28" meanOverlapTravelTime="28.78" meanSpeed="6.25" meanHaltsPerVehicle="18.63" meanTimeLoss="22.15" vehicleSum="38" meanSpeedWithin="2.90" meanHaltsPerVehicleWithin="20.33" meanDurationWithin="26.27" vehicleSumWithin="21" meanIntervalSpeedWithin="2.90" meanIntervalHaltsPerVehicleWithin="20.33" meanIntervalDurationWithin="26.27" meanTimeLossWithin="22.48"/>
   <interval begin="300.00" end="360.00" id="e3_0_1si" meanTravelTime="34.78" meanOverlapTravelTime="35.26" meanSpeed="5.79" meanHaltsPerVehicle="24.53" meanTimeLoss="28.60" vehicleSum="36" meanSpeedWithin="2.68" meanHaltsPerVehicleWithin="18.46" meanDurationWithin="23.83" vehicleSumWithin="26" meanIntervalSpeedWithin="2.68" meanIntervalHaltsPerVehicleWithin="18.46" meanIntervalDurationWithin="23.83" meanTimeLossWithin="20.36"/>
   <interval begin="360.00" end="420.00" id="e3_0_1si" meanTravelTime="30.15" meanOverlapTravelTime="30.64" meanSpeed="5.81" meanHaltsPerVehicle="20.70" meanTimeLoss="24.04" vehicleSum="47" meanSpeedWithin="3.46" meanHaltsPerVehicleWithin="21.86" meanDurationWithin="28.50" vehicleSumWithin="35" meanIntervalSpeedWithin="3.41" meanIntervalHaltsPerVehicleWithin="20.86" meanIntervalDurationWithin="26.56" meanTimeLossWithin="22.96"/>
   <interval begin="420.00" end="480.00" id="e3_0_1si" meanTravelTime="38.78" meanOverlapTravelTime="39.27" meanSpeed="5.11" meanHaltsPerVehicle="28.54" meanTimeLoss="32.65" vehicleSum="54" meanSpeedWithin="2.52" meanHaltsPerVehicleWithin="24.67" meanDurationWithin="30.95" vehicleSumWithin="27" meanIntervalSpeedWithin="2.52" meanIntervalHaltsPerVehicleWithin="23.26" meanIntervalDurationWithin="29.31" meanTimeLossWithin="25.73"/>
   <interval begin="480.00" end="540.00" id="e3_0_1si" meanTravelTime="38.26" meanOverlapTravelTime="38.75" meanSpeed="5.43" meanHaltsPerVehicle="27.69" meanTimeLoss="32.06" vehicleSum="45" meanSpeedWithin="2.39" meanHaltsPerVehicleWithin="25.93" meanDurationWithin="30.87" vehicleSumWithin="40" meanIntervalSpeedWithin="2.39" meanIntervalHaltsPerVehicleWithin="24.73" meanIntervalDurationWithin="29.55" meanTimeLossWithin="26.47"/>
   <interval begin="540.00" end="600.00" id="e3_0_1si" meanTravelTime="35.08" meanOverlapTravelTime="35.56" meanSpeed="4.78" meanHaltsPerVehicle="25.50" meanTimeLoss="29.11" vehicleSum="64" meanSpeedWithin="2.66" meanHaltsPerVehicleWithin="29.82" meanDurationWithin="36.85" vehicleSumWithin="40" meanIntervalSpeedWithin="2.61" meanIntervalHaltsPerVehicleWithin="24.23" meanIntervalDurationWithin="29.87" meanTimeLossWithin="26.52"/>
   <interval begin="600.00" end="660.00" id="e3_0_1si" meanTravelTime="41.44" meanOverlapTravelTime="41.93" meanSpeed="5.33" meanHaltsPerVehicle="31.08" meanTimeLoss="35.36" vehicleSum="62" meanSpeedWithin="2.21" meanHaltsPerVehicleWithin="29.62" meanDurationWithin="35.96" vehicleSumWithin="39" meanIntervalSpeedWithin="2.21" meanIntervalHaltsPerVehicleWithin="26.77" meanIntervalDurationWithin="32.71" meanTimeLossWithin="29.39"/>
   <interval begin="660.00" end="720.00" id="e3_0_1si" meanTravelTime="44.35" meanOverlapTravelTime="44.84" meanSpeed="4.67" meanHaltsPerVehicle="33.51" meanTimeLoss="38.29" vehicleSum="55" meanSpeedWithin="2.38" meanHaltsPerVehicleWithin="28.93" meanDurationWithin="34.69" vehicleSumWithin="41" meanIntervalSpeedWithin="2.37" meanIntervalHaltsPerVehicleWithin="25.46" meanIntervalDurationWithin="30.49" meanTimeLossWithin="27.42"/>
   <interval begin="720.00" end="780.00" id="e3_0_1si" meanTravelTime="41.03" meanOverlapTravelTime="41.51" meanSpeed="4.27" meanHaltsPerVehicle="30.65" meanTimeLoss="35.00" vehicleSum="66" meanSpeedWithin="3.03" meanHaltsPerVehicleWithin="27.47" meanDurationWithin="34.57" vehicleSumWithin="36" meanIntervalSpeedWithin="2.98" meanIntervalHaltsPerVehicleWithin="23.47" meanIntervalDurationWithin="29.13" meanTimeLossWithin="25.74"/>
   <interval begin="780.00" end="840.00" id="e3_0_1si" meanTravelTime="39.18" meanOverlapTravelTime="39.67" meanSpeed="5.32" meanHaltsPerVehicle="28.89" meanTimeLoss="33.13" vehicleSum="56" meanSpeedWithin="2.77" meanHaltsPerVehicleWithin="25.05" meanDurationWithin="31.33" vehicleSumWithin="41" meanIntervalSpeedWithin="2.77" meanIntervalHaltsPerVehicleWithin="22.44" meanIntervalDurationWithin="28.40" meanTimeLossWithin="25.05"/>
   <interval begin="840.00" end="900.00" id="e3_0_1si" meanTravelTime="45.06" meanOverlapTravelTime="45.55" meanSpeed="4.14" meanHaltsPerVehicle="33.80" meanTimeLoss="38.95" vehicleSum="54" meanSpeedWithin="3.20" meanHaltsPerVehicleWithin="23.47" meanDurationWithin="28.65" vehicleSumWithin="38" meanIntervalSpeedWithin="3.18" meanIntervalHaltsPerVehicleWithin="22.24" meanIntervalDurationWithin="27.19" meanTimeLossWithin="24.03"/>
   <interval begin="900.00" end="960.00" id="e3_0_1si" meanTravelTime="38.17" meanOverlapTravelTime="38.65" meanSpeed="3.93" meanHaltsPerVehicle="27.97" meanTimeLoss="32.24" vehicleSum="59" meanSpeedWithin="3.33" meanHaltsPerVehicleWithin="26.61" meanDurationWithin="33.31" vehicleSumWithin="36" meanIntervalSpeedWithin="3.30" meanIntervalHaltsPerVehicleWithin="21.64" meanIntervalDurationWithin="27.17" meanTimeLossWithin="23.77"/>
   <interval begin="960.00" end="1000.00" id="e3_0_1si" meanTravelTime="47.17" meanOverlapTravelTime="47.67" meanSpeed="5.00" meanHaltsPerVehicle="36.24" meanTimeLoss="40.99" vehicleSum="37" meanSpeedWithin="3.65" meanHaltsPerVehicleWithin="16.67" meanDurationWithin="23.68" vehicleSumWithin="36" meanIntervalSpeedWithin="3.61" meanIntervalHaltsPerVehicleWithin="14.86" meanIntervalDurationWithin="21.25" meanTimeLossWithin="17.73"/>
</e3Detector>
