<?xml version="1.0" encoding="UTF-8"?>
<additional xmlns:xsi="http://www.w3.org/2001/XMLSchema-instance" xsi:noNamespaceSchemaLocation="http://sumo.dlr.de/xsd/additional_file.xsd">
    <vType id="veh_car" vClass="passenger"/>
    <vType id="veh_bus" vClass="bus"/>
    <vType id="veh_truck" vClass="truck"/>
    <vType id="veh_van" vClass="delivery"/>
    <vType id="veh_motorbike" vClass="motorcycle">
        <param key="scaleVisual" value="2"/>
    </vType>
    <vType id="bike_bicycle" vClass="bicycle">
        <param key="scaleVisual" value="2"/>
    </vType>
    <vType id="ped_pedestrian" vClass="pedestrian"/>
</additional>
