<?xml version="1.0" encoding="UTF-8"?>

<!-- generated on Thu 28 Nov 2013 11:59:42 AM CET by Netedit Version dev-SVN-r15221
<?xml version="1.0" encoding="UTF-8"?>

<configuration xmlns:xsi="http://www.w3.org/2001/XMLSchema-instance" xsi:noNamespaceSchemaLocation="http://sumo.dlr.de/xsd/netedit.exeConfiguration.xsd">

    <output>
        <output-file value="/scr1/erdm_ja/debug/1084/net.net.xml"/>
    </output>

    <processing>
        <no-internal-links value="true"/>
        <no-turnarounds value="true"/>
        <offset.disable-normalization value="true"/>
    </processing>

</configuration>
-->

<net version="0.13" xmlns:xsi="http://www.w3.org/2001/XMLSchema-instance" xsi:noNamespaceSchemaLocation="http://sumo.dlr.de/xsd/net_file.xsd">

    <location netOffset="0.00,0.00" convBoundary="-15.51,-26.82,180.23,26.89" origBoundary="10000000000.00,10000000000.00,-10000000000.00,-10000000000.00" projParameter="!"/>

    <edge id="beg" from="gneJ0" to="gneJ1" priority="1">
        <lane id="beg_0" index="0" speed="20.00" length="82.90" shape="-15.51,21.91 65.95,21.93"/>
        <lane id="beg_1" index="1" speed="20.00" length="82.90" shape="-15.51,25.21 65.95,25.23"/>
    </edge>
    <edge id="beg2" from="gneJ3" to="gneJ1" priority="0">
        <lane id="beg2_0" index="0" speed="13.89" length="53.70" shape="69.12,-26.81 69.06,18.83"/>
    </edge>
    <edge id="end" from="gneJ1" to="gneJ2" priority="1">
        <lane id="end_0" index="0" speed="20.00" length="112.83" shape="72.16,21.93 180.22,21.75"/>
        <lane id="end_1" index="1" speed="20.00" length="112.83" shape="72.16,25.23 180.22,25.05"/>
    </edge>

    <junction id="gneJ0" type="unregulated" x="-15.51" y="26.86" incLanes="" intLanes="" shape="-15.51,26.81 -15.51,20.31"/>
    <junction id="gneJ1" type="priority" x="67.40" y="26.89" incLanes="beg2_0 beg_0 beg_1" intLanes="" shape="72.16,26.83 72.15,20.33 70.66,18.83 67.46,18.83 65.95,20.33 65.95,26.83">
        <request index="0" response="110" foes="110"/>
        <request index="1" response="000" foes="001"/>
        <request index="2" response="000" foes="001"/>
    </junction>
    <junction id="gneJ2" type="unregulated" x="180.23" y="26.70" incLanes="end_0 end_1" intLanes="" shape="180.22,20.15 180.23,26.65"/>
    <junction id="gneJ3" type="unregulated" x="67.47" y="-26.82" incLanes="" intLanes="" shape="67.52,-26.82 70.72,-26.81"/>

    <connection from="beg" to="end" fromLane="0" toLane="0" dir="s" state="M"/>
    <connection from="beg" to="end" fromLane="1" toLane="1" dir="s" state="M"/>
    <connection from="beg2" to="end" fromLane="0" toLane="0" dir="r" state="m"/>

</net>
