<?xml version="1.0"?>

<!-- generated on 08/13/10 09:41:21 by SUMO netconvert Version dev-SVN-r8487
<configuration>

    <input>
        <xml-node-files value="input_nodes.nod.xml"/>
        <xml-edge-files value="input_edges.edg.xml"/>
    </input>

    <processing>
        <remove-geometry value="true"/>
        <no-internal-links value="true"/>
    </processing>

    <report>
        <verbose value="true"/>
    </report>

</configuration>
-->

<net>

   <location netOffset="-11.59,-1937.83" convBoundary="0.00,0.00,289.54,167.05" origBoundary="11.59,1937.83,301.13,2104.88" projParameter="!"/>

   <edge id="1" from="node104" to="node123" priority="75" type="" function="normal">
      <lane id="1_0" depart="1" maxspeed="15.00" length="366.04" shape="278.40,172.00 -4.95,172.00 -4.95,86.01"/>
      <lane id="1_1" depart="0" maxspeed="15.00" length="366.04" shape="278.40,168.70 -1.65,168.70 -1.65,86.01"/>
   </edge>
   <edge id="2" from="node103" to="node123" priority="75" type="" function="normal">
      <lane id="2_0" depart="1" maxspeed="15.00" length="288.09" shape="289.54,82.91 1.45,82.91"/>
      <lane id="2_1" depart="0" maxspeed="15.00" length="288.09" shape="289.54,79.61 1.45,79.61"/>
   </edge>
   <edge id="3" from="node123" to="node125" priority="75" type="" function="normal">
      <lane id="3_0" depart="1" maxspeed="15.00" length="76.51" shape="-4.95,76.51 -4.95,0.00"/>
      <lane id="3_1" depart="0" maxspeed="15.00" length="76.51" shape="-1.65,76.51 -1.65,0.00"/>
   </edge>

   <row-logic id="node123" requestSize="4">
      <logicitem request="0" response="0000" foes="1100"/>
      <logicitem request="1" response="0000" foes="1100"/>
      <logicitem request="2" response="0011" foes="0011"/>
      <logicitem request="3" response="0011" foes="0011"/>
   </row-logic>

   <junction id="node103" type="DEAD_END" x="289.54" y="77.96" incLanes="" intLanes="" shape="289.54,78.01 289.54,84.51"/>
   <junction id="node104" type="DEAD_END" x="278.40" y="167.05" incLanes="" intLanes="" shape="278.40,167.10 278.40,173.60"/>
   <junction id="node123" type="priority" x="0.00" y="77.96" incLanes="1_0 1_1 2_0 2_1" intLanes="" shape="-6.55,86.01 -0.05,86.01 1.45,84.51 1.45,78.01 -0.05,76.51 -6.55,76.51"/>
   <junction id="node125" type="DEAD_END" x="0.00" y="0.00" incLanes="3_0 3_1" intLanes="" shape="-6.55,-0.00 -0.05,-0.00"/>

   <succ edge="1" lane="1_0" junction="node123">
      <succlane lane="3_0" yield="0" dir="s" state="M"/>
   </succ>
   <succ edge="1" lane="1_1" junction="node123">
      <succlane lane="3_1" yield="0" dir="s" state="M"/>
   </succ>
   <succ edge="2" lane="2_0" junction="node123">
      <succlane lane="3_0" yield="1" dir="l" state="m"/>
   </succ>
   <succ edge="2" lane="2_1" junction="node123">
      <succlane lane="3_1" yield="1" dir="l" state="m"/>
   </succ>
   <succ edge="3" lane="3_0" junction="node125">
      <succlane lane="SUMO_NO_DESTINATION" yield="1" dir="s" state="O"/>
   </succ>
   <succ edge="3" lane="3_1" junction="node125">
      <succlane lane="SUMO_NO_DESTINATION" yield="1" dir="s" state="O"/>
   </succ>

</net>
