<additional xmlns:xsi="http://www.w3.org/2001/XMLSchema-instance" xsi:noNamespaceSchemaLocation="http://sumo.dlr.de/xsd/additional_file.xsd">

    <!-- non valid friendlyPos -->
    <chargingStation id="chargingStation_0" lane="center1_1" startPos="15" endPos="20" power="22000.00" efficiency="0.95" chargeInTransit="0" chargeDelay="5" name="chargingStation" friendlyPos="dummyFriendlyPos"/>

    <!-- valid friendlyPos -->
    <chargingStation id="chargingStation_1" lane="center1_1" startPos="15" endPos="20" power="22000.00" efficiency="0.95" chargeInTransit="0" chargeDelay="5" name="chargingStation" friendlyPos="true"/>

    <!-- valid friendlyPos, invalid positions 1 -->
    <chargingStation id="chargingStation_2" lane="center1_1" startPos="-20" endPos="-10" power="22000.00" efficiency="0.95" chargeInTransit="0" chargeDelay="5" name="chargingStation" friendlyPos="true"/>

    <!-- valid friendlyPos, invalid positions 2 -->
    <chargingStation id="chargingStation_3" lane="center1_1" startPos="200" endPos="300" power="22000.00" efficiency="0.95" chargeInTransit="0" chargeDelay="5" name="chargingStation" friendlyPos="true"/>

    <!-- valid friendlyPos, invalid positions 3 -->
    <chargingStation id="chargingStation_4" lane="center1_1" startPos="50" endPos="20" power="22000.00" efficiency="0.95" chargeInTransit="0" chargeDelay="5" name="chargingStation" friendlyPos="true"/>

    <!-- valid friendlyPos, invalid positions 4 -->
    <chargingStation id="chargingStation_5" lane="center1_1" startPos="20" endPos="20" power="22000.00" efficiency="0.95" chargeInTransit="0" chargeDelay="5" name="chargingStation" friendlyPos="true"/>

</additional>
