<?xml version="1.0" encoding="UTF-8"?>

<!-- generated on 04.10.2019 09:32:16 by Eclipse SUMO netedit Version v1_3_1+0555-c0a1b3e52e
<configuration xmlns:xsi="http://www.w3.org/2001/XMLSchema-instance" xsi:noNamespaceSchemaLocation="http://sumo.dlr.de/xsd/netconvertConfiguration.xsd">

    <input>
        <sumo-net-file value="C:/Users/SUMO-Test/.texttest/tmp/netedit.gui.04Oct092610.960/netedit.gui/additionalElements/chargingstation/load/friendlypos\input_net.net.xml"/>
    </input>

    <output>
        <output-file value="C:/Users/SUMO-Test/.texttest/tmp/netedit.gui.04Oct092610.960/netedit.gui/additionalElements/chargingstation/load/friendlypos\net.net.xml"/>
    </output>

    <processing>
        <geometry.max-grade.fix value="false"/>
        <offset.disable-normalization value="true"/>
        <lefthand value="false"/>
    </processing>

    <junctions>
        <no-turnarounds value="true"/>
        <junctions.corner-detail value="5"/>
        <junctions.limit-turn-speed value="5.5"/>
        <rectangular-lane-cut value="false"/>
    </junctions>

    <pedestrian>
        <walkingareas value="false"/>
    </pedestrian>

    <netedit>
        <additional-files value="C:/Users/SUMO-Test/.texttest/tmp/netedit.gui.04Oct092610.960/netedit.gui/additionalElements/chargingstation/load/friendlypos\additionals.xml"/>
        <additionals-output value="C:/Users/SUMO-Test/.texttest/tmp/netedit.gui.04Oct092610.960/netedit.gui/additionalElements/chargingstation/load/friendlypos\additionals.xml"/>
        <route-files value="C:/Users/SUMO-Test/.texttest/tmp/netedit.gui.04Oct092610.960/netedit.gui/additionalElements/chargingstation/load/friendlypos\routes.xml"/>
        <demandelements-output value="C:/Users/SUMO-Test/.texttest/tmp/netedit.gui.04Oct092610.960/netedit.gui/additionalElements/chargingstation/load/friendlypos\routes.xml"/>
    </netedit>

    <visualisation>
        <gui-settings-file value="C:/Users/SUMO-Test/.texttest/tmp/netedit.gui.04Oct092610.960/netedit.gui/additionalElements/chargingstation/load/friendlypos\gui-settings.xml"/>
        <window-size value="700,500"/>
        <window-pos value="50,50"/>
        <gui-testing value="true"/>
        <gui-testing-debug value="true"/>
        <gui-testing-debug-gl value="true"/>
    </visualisation>

    <report>
        <no-warnings value="true"/>
        <error-log value="C:/Users/SUMO-Test/.texttest/tmp/netedit.gui.04Oct092610.960/netedit.gui/additionalElements/chargingstation/load/friendlypos\log.txt"/>
    </report>

</configuration>
-->

<additional xmlns:xsi="http://www.w3.org/2001/XMLSchema-instance" xsi:noNamespaceSchemaLocation="http://sumo.dlr.de/xsd/additional_file.xsd">
    <chargingStation id="chargingStation_0" lane="gneE1_0" startPos="15.00" endPos="20.00" name="chargingStation" chargeDelay="5.00"/>
    <chargingStation id="chargingStation_1" lane="gneE1_0" startPos="15.00" endPos="20.00" name="chargingStation" friendlyPos="1" chargeDelay="5.00"/>
    <chargingStation id="chargingStation_2" lane="gneE1_0" startPos="30.00" endPos="40.00" name="chargingStation" friendlyPos="1" chargeDelay="5.00"/>
    <chargingStation id="chargingStation_3" lane="gneE1_0" startPos="49.90" endPos="50.00" name="chargingStation" friendlyPos="1" chargeDelay="5.00"/>
    <chargingStation id="chargingStation_4" lane="gneE1_0" startPos="19.90" endPos="20.00" name="chargingStation" friendlyPos="1" chargeDelay="5.00"/>
    <chargingStation id="chargingStation_5" lane="gneE1_0" startPos="19.90" endPos="20.00" name="chargingStation" friendlyPos="1" chargeDelay="5.00"/>
</additional>
