<nodes xmlns:xsi="http://www.w3.org/2001/XMLSchema-instance" xsi:noNamespaceSchemaLocation="http://sumo.dlr.de/xsd/nodes_file.xsd">
   <node id="C" x="0.0" y="0.0" type="rail_signal"/>

   <node id="W" x="-500.0" y="0.0"/>
   <node id="E" x="+500.0" y="0.0"/>
   <node id="N" x="500.0" y="100.0"/>

</nodes>
