<?xml version="1.0" encoding="UTF-8"?>

<!-- generated on Thu Sep  6 09:32:34 2018 by Eclipse SUMO netconvert Version v1_0_0+0032-77a1026
-->

<configuration xmlns:xsi="http://www.w3.org/2001/XMLSchema-instance" xsi:noNamespaceSchemaLocation="http://sumo.dlr.de/xsd/netconvertConfiguration.xsd">

    <input>
        <node-files value="cross1ltl.nod.xml"/>
        <edge-files value="cross1ltl.edg.xml"/>
    </input>

    <output>
        <output-file value="input_net.net.xml"/>
    </output>

    <report>
        <verbose value="true"/>
    </report>

</configuration>
