<?xml version="1.0" encoding="UTF-8"?>

<!-- generated on 2025-10-01 16:18:50.645329 by Eclipse SUMO createOvertakingReroutes.py v1_24_0+1085-a1ecf82ea13
<configuration>
    <net-file value="net.net.xml"/>
    <route-files value="input_routes.rou.xml"/>
    <output-file value="out.add.xml"/>
    <max-detour-factor value="3.0"/>
    <end value="86400.0"/>
</configuration>
-->

<additional xmlns:xsi="http://www.w3.org/2001/XMLSchema-instance" xsi:noNamespaceSchemaLocation="http://sumo.dlr.de/xsd/additional_file.xsd">
  <rerouter id="rr_0" edges="E3">
    <interval begin="0" end="86400.0">
       <overtakingReroute main="E4 E5 E6 E7 E8 E9 E10" siding="E4b E5b E7b E10b E11b">
    </interval>
  </rerouter>
  <rerouter id="rr_1" edges="E3">
    <interval begin="0" end="86400.0">
       <overtakingReroute main="E4 E5" siding="E4b E5b E6b">
    </interval>
  </rerouter>
  <rerouter id="rr_2" edges="E8">
    <interval begin="0" end="86400.0">
       <overtakingReroute main="E9 E10" siding="E9b E10b E11b">
    </interval>
  </rerouter>
</additional>
