<additional>
    <laneData id="dump" freq="900" file="aggregated_900.xml"/>
</additional>
