<?xml version="1.0" encoding="UTF-8"?>

<!-- generated on 2023-02-21 09:18:11 by Eclipse SUMO netedit Version v1_16_0+0488-c85d0c5ea0d
-->

<additional xmlns:xsi="http://www.w3.org/2001/XMLSchema-instance" xsi:noNamespaceSchemaLocation="http://sumo.dlr.de/xsd/additional_file.xsd">
    <!-- Calibrators -->
    <calibrator id="calibrator01" lane="center0_0" pos="0.00" period="100.00" output="calibrator01.txt"/>
</additional>
