<?xml version="1.0" encoding="UTF-8"?>

<!-- generated on Wed Sep  9 10:11:50 2020 by Eclipse SUMO duarouter Version v1_7_0+0007-9073c1719d
<configuration xmlns:xsi="http://www.w3.org/2001/XMLSchema-instance" xsi:noNamespaceSchemaLocation="http://sumo.dlr.de/xsd/duarouterConfiguration.xsd">

    <input>
        <net-file value="net.net.xml"/>
        <additional-files value="input_additional.add.xml"/>
        <route-files value="input_routes.rou.xml"/>
    </input>

    <output>
        <output-file value="input_routes.rou.xml.rou.xml"/>
        <alternatives-output value="input_routes.rou.xml.rou.alt.xml"/>
    </output>

    <report>
        <ignore-errors value="true"/>
        <no-step-log value="true"/>
    </report>

</configuration>
-->

<routes xmlns:xsi="http://www.w3.org/2001/XMLSchema-instance" xsi:noNamespaceSchemaLocation="http://sumo.dlr.de/xsd/routes_file.xsd">
    <vehicle id="v" type="t0" depart="42.00" departSpeed="max">
        <route edges="a b c"/>
    </vehicle>
</routes>
