<?xml version="1.0" encoding="UTF-8"?>

<!-- generated on 13.12.2018 10:53:49 by Eclipse SUMO netedit Version v1_0_0+1354-a5b8c6b0c6
<configuration xmlns:xsi="http://www.w3.org/2001/XMLSchema-instance" xsi:noNamespaceSchemaLocation="http://sumo.dlr.de/xsd/netconvertConfiguration.xsd">

    <input>
        <sumo-net-file value="D:\sumo\tests\netedit\netElements\edges\move\selected_separated\input_net.net.xml"/>
    </input>

    <output>
        <output-file value="D:\sumo\tests\netedit\netElements\edges\move\selected_separated\input_net.net.xml"/>
        <plain-output-prefix value="D:\sumo\tests\netedit\netElements\edges\move\selected_separated\input_net"/>
    </output>

    <processing>
        <geometry.max-grade.fix value="false"/>
        <offset.disable-normalization value="true"/>
        <lefthand value="false"/>
    </processing>

    <junctions>
        <no-turnarounds value="true"/>
        <junctions.corner-detail value="5"/>
        <junctions.limit-turn-speed value="5.5"/>
        <rectangular-lane-cut value="false"/>
    </junctions>

    <pedestrian>
        <walkingareas value="false"/>
    </pedestrian>

</configuration>
-->

<nodes version="1.0" xmlns:xsi="http://www.w3.org/2001/XMLSchema-instance" xsi:noNamespaceSchemaLocation="http://sumo.dlr.de/xsd/nodes_file.xsd">
    <location netOffset="25.00,0.00" convBoundary="0.00,-11.00,50.00,11.00" origBoundary="-10000000000.00,-10000000000.00,10000000000.00,10000000000.00" projParameter="!"/>

    <node id="gneJ0" x="0.00" y="0.00" type="traffic_light" tl="gneJ0"/>
    <node id="gneJ1" x="50.00" y="0.00" type="traffic_light" tl="gneJ1"/>
    <node id="gneJ2" x="0.00" y="11.00" type="dead_end"/>
    <node id="gneJ3" x="50.00" y="11.00" type="dead_end"/>
    <node id="gneJ4" x="0.00" y="-11.00" type="dead_end"/>
    <node id="gneJ5" x="49.00" y="-11.00" type="dead_end"/>
</nodes>
