<?xml version="1.0" encoding="UTF-8"?>

<!-- generated on 08/10/21 11:01:33 by Eclipse SUMO sumo Version v1_8_0+1925-6bf04e0fef
-->

<configuration xmlns:xsi="http://www.w3.org/2001/XMLSchema-instance" xsi:noNamespaceSchemaLocation="http://sumo.dlr.de/xsd/sumoConfiguration.xsd">

    <input>
        <net-file value="port_cologne.net.xml"/>
        <route-files value="port_cologne.passenger.trips.xml,port_cologne.truck.trips.xml,port_cologne.rail.trips.xml,port_cologne.ship.trips.xml"/>
        <additional-files value="port_cologne.poly.xml"/>
    </input>

    <processing>
        <ignore-route-errors value="true"/>
    </processing>

    <routing>
        <device.rerouting.adaptation-steps value="18"/>
        <device.rerouting.adaptation-interval value="10"/>
    </routing>

    <report>
        <verbose value="true"/>
        <duration-log.statistics value="true"/>
        <no-step-log value="true"/>
    </report>

    <gui_only>
        <gui-settings-file value="port_cologne.view.xml"/>
    </gui_only>

</configuration>
