<?xml version="1.0" encoding="UTF-8"?>

<!-- generated on 2021-09-20 12:11:52 by Eclipse SUMO duarouter Version v1_10_0+0107-32a7811116
<configuration xmlns:xsi="http://www.w3.org/2001/XMLSchema-instance" xsi:noNamespaceSchemaLocation="http://sumo.dlr.de/xsd/duarouterConfiguration.xsd">

    <input>
        <net-file value="osm.net.xml"/>
        <route-files value="osm.ship.trips.xml"/>
    </input>

    <output>
        <output-file value="osm.ship.trips.xml.tmp"/>
        <write-trips value="true"/>
    </output>

    <time>
        <begin value="0"/>
        <end value="3600"/>
    </time>

    <report>
        <no-warnings value="true"/>
        <ignore-errors value="true"/>
        <no-step-log value="true"/>
    </report>

</configuration>
-->

<routes xmlns:xsi="http://www.w3.org/2001/XMLSchema-instance" xsi:noNamespaceSchemaLocation="http://sumo.dlr.de/xsd/routes_file.xsd">
    <vType id="ship_ship" vClass="ship"/>
    <trip id="ship1" type="ship_ship" depart="100.00" from="-gneE20" to="-gneE18"/>
    <trip id="ship5" type="ship_ship" depart="500.00" from="-gneE18" to="-gneE9"/>
    <trip id="ship8" type="ship_ship" depart="800.00" from="-gneE18" to="gneE11"/>
    <trip id="ship12" type="ship_ship" depart="1200.00" from="gneE7" to="-gneE4"/>
    <trip id="ship14" type="ship_ship" depart="1400.00" from="gneE4" to="gneE11"/>
    <trip id="ship15" type="ship_ship" depart="1500.00" from="gneE22" to="gneE2"/>
    <trip id="ship17" type="ship_ship" depart="1700.00" from="-gneE5" to="83015625#0.24991"/>
    <trip id="ship18" type="ship_ship" depart="1800.00" from="gneE3" to="gneE12"/>
    <trip id="ship19" type="ship_ship" depart="1900.00" from="gneE5" to="gneE10"/>
    <trip id="ship20" type="ship_ship" depart="2000.00" from="gneE17" to="-83015625#2.163346"/>
    <trip id="ship21" type="ship_ship" depart="2100.00" from="-gneE18" to="-gneE20"/>
    <trip id="ship22" type="ship_ship" depart="2200.00" from="-gneE11" to="-gneE18"/>
    <trip id="ship23" type="ship_ship" depart="2300.00" from="-gneE11.169" to="-gneE20"/>
    <trip id="ship24" type="ship_ship" depart="2400.00" from="gneE13" to="-gneE5"/>
    <trip id="ship25" type="ship_ship" depart="2500.00" from="-gneE5" to="-gneE17"/>
    <trip id="ship26" type="ship_ship" depart="2600.00" from="-gneE2" to="gneE6.259"/>
    <trip id="ship27" type="ship_ship" depart="2700.00" from="gneE14" to="gneE12"/>
    <trip id="ship28" type="ship_ship" depart="2800.00" from="-gneE15" to="gneE2"/>
    <trip id="ship29" type="ship_ship" depart="2900.00" departSpeed="max" from="-gneE14" to="-gneE5.239"/>
    <trip id="ship30" type="ship_ship" depart="3000.00" from="gneE9" to="gneE13"/>
    <trip id="ship32" type="ship_ship" depart="3200.00" from="gneE4" to="gneE21"/>
    <trip id="ship34" type="ship_ship" depart="3400.00" departSpeed="max" from="-gneE22" to="-gneE2"/>
    <trip id="ship35" type="ship_ship" depart="3500.00" from="-gneE17" to="gneE7"/>
</routes>
