<?xml version="1.0" encoding="UTF-8"?>

<!-- generated on 23.11.2017 10:54:11 by Netedit Version dev-SVN-r26254
This data file and the accompanying materials
are made available under the terms of the Eclipse Public License v2.0
which accompanies this distribution, and is available at
http://www.eclipse.org/legal/epl-v20.html
SPDX-License-Identifier: EPL-2.0
<configuration xmlns:xsi="http://www.w3.org/2001/XMLSchema-instance" xsi:noNamespaceSchemaLocation="http://sumo.dlr.de/xsd/netconvertConfiguration.xsd">

    <output>
        <output-file value="C:\Users\zhizhouc\Desktop\To%20Jakob\network_bug.net.xml"/>
    </output>

    <processing>
        <no-turnarounds value="true"/>
        <offset.disable-normalization value="true"/>
    </processing>

</configuration>
-->

<net version="0.27" xmlns:xsi="http://www.w3.org/2001/XMLSchema-instance" xsi:noNamespaceSchemaLocation="http://sumo.dlr.de/xsd/net_file.xsd">

    <location netOffset="0.00,0.00" convBoundary="-13.57,11.41,129.92,123.16" origBoundary="10000000000.00,10000000000.00,-10000000000.00,-10000000000.00" projParameter="!"/>

    <edge id=":gneJ1_0" function="internal">
        <lane id=":gneJ1_0_0" index="0" speed="13.89" length="9.83" shape="62.77,73.48 52.95,73.82"/>
    </edge>
    <edge id=":gneJ1_1" function="internal">
        <lane id=":gneJ1_1_0" index="0" speed="13.89" length="5.56" shape="62.77,73.48 59.67,73.22 57.54,72.01"/>
    </edge>
    <edge id=":gneJ1_6" function="internal">
        <lane id=":gneJ1_6_0" index="0" speed="13.89" length="5.56" shape="57.54,72.01 56.40,69.85 56.23,66.75"/>
    </edge>
    <edge id=":gneJ1_2" function="internal">
        <lane id=":gneJ1_2_0" index="0" speed="13.89" length="5.19" shape="59.52,67.04 59.59,68.49 60.13,69.50 61.12,70.06 62.57,70.18"/>
    </edge>
    <edge id=":gneJ1_3" function="internal">
        <lane id=":gneJ1_3_0" index="0" speed="13.89" length="10.55" shape="59.52,67.04 58.88,70.00 57.57,72.11 55.59,73.38 52.95,73.82"/>
    </edge>
    <edge id=":gneJ1_4" function="internal">
        <lane id=":gneJ1_4_0" index="0" speed="13.89" length="5.58" shape="52.93,70.52 54.25,70.28 55.24,69.57 55.90,68.39 56.23,66.75"/>
    </edge>
    <edge id=":gneJ1_5" function="internal">
        <lane id=":gneJ1_5_0" index="0" speed="13.89" length="9.64" shape="52.93,70.52 62.57,70.18"/>
    </edge>
    <edge id=":gneJ2_0" function="internal">
        <lane id=":gneJ2_0_0" index="0" speed="13.89" length="4.82" shape="61.18,11.27 62.11,10.11 62.97,9.77 63.76,10.26 64.47,11.56"/>
    </edge>
    <edge id=":gneJ3_0" function="internal">
        <lane id=":gneJ3_0_0" index="0" speed="13.89" length="5.48" shape="109.44,74.31 109.13,72.72 108.46,71.60 107.45,70.97 106.09,70.83"/>
    </edge>
    <edge id=":gneJ3_1" function="internal">
        <lane id=":gneJ3_1_0" index="0" speed="13.89" length="11.16" shape="109.44,74.31 109.65,71.19 110.83,69.04 112.99,67.88 116.11,67.69"/>
    </edge>
    <edge id=":gneJ3_2" function="internal">
        <lane id=":gneJ3_2_0" index="0" speed="13.89" length="5.20" shape="115.84,70.98 114.38,71.07 113.38,71.61 112.83,72.61 112.73,74.06"/>
    </edge>
    <edge id=":gneJ3_3" function="internal">
        <lane id=":gneJ3_3_0" index="0" speed="13.89" length="9.77" shape="115.84,70.98 112.95,70.74 110.97,70.64 108.98,70.67 106.09,70.83"/>
    </edge>
    <edge id=":gneJ3_4" function="internal">
        <lane id=":gneJ3_4_0" index="0" speed="13.89" length="10.24" shape="105.89,67.53 108.89,67.37 111.00,67.34 113.12,67.45 116.11,67.69"/>
    </edge>
    <edge id=":gneJ3_5" function="internal">
        <lane id=":gneJ3_5_0" index="0" speed="13.89" length="5.19" shape="105.89,67.53 108.68,67.80 110.76,68.97"/>
    </edge>
    <edge id=":gneJ3_6" function="internal">
        <lane id=":gneJ3_6_0" index="0" speed="13.89" length="5.55" shape="110.76,68.97 112.11,71.06 112.73,74.06"/>
    </edge>
    <edge id=":gneJ5_0" function="internal">
        <lane id=":gneJ5_0_0" index="0" speed="13.89" length="4.82" shape="116.45,123.04 115.72,124.33 114.93,124.81 114.08,124.46 113.16,123.29"/>
    </edge>

    <edge id="gneE0" from="gneJ0" to="gneJ1" priority="1">
        <lane id="gneE0_0" index="0" speed="13.89" length="66.51" shape="-13.58,70.74 52.93,70.52"/>
    </edge>
    <edge id="gneE1" from="gneJ1" to="gneJ0" priority="1">
        <lane id="gneE1_0" index="0" speed="13.89" length="66.51" shape="52.95,73.82 -13.57,74.04"/>
    </edge>
    <edge id="gneE2" from="gneJ1" to="gneJ2" priority="1">
        <lane id="gneE2_0" index="0" speed="13.89" length="55.70" shape="56.23,66.75 61.18,11.27"/>
    </edge>
    <edge id="gneE3" from="gneJ2" to="gneJ1" priority="1">
        <lane id="gneE3_0" index="0" speed="13.89" length="55.70" shape="64.47,11.56 59.52,67.04"/>
    </edge>
    <edge id="gneE4" from="gneJ1" to="gneJ3" priority="1">
        <lane id="gneE4_0" index="0" speed="13.89" length="43.40" shape="62.57,70.18 105.89,67.53"/>
    </edge>
    <edge id="gneE5" from="gneJ3" to="gneJ1" priority="1">
        <lane id="gneE5_0" index="0" speed="13.89" length="43.40" shape="106.09,70.83 62.77,73.48"/>
    </edge>
    <edge id="gneE6" from="gneJ3" to="gneJ4" priority="1">
        <lane id="gneE6_0" index="0" speed="13.89" length="13.99" shape="116.11,67.69 130.06,68.85"/>
    </edge>
    <edge id="gneE7" from="gneJ4" to="gneJ3" priority="1">
        <lane id="gneE7_0" index="0" speed="13.89" length="13.99" shape="129.78,72.14 115.84,70.98"/>
    </edge>
    <edge id="gneE8" from="gneJ3" to="gneJ5" priority="1">
        <lane id="gneE8_0" index="0" speed="13.89" length="49.11" shape="112.73,74.06 116.45,123.04"/>
    </edge>
    <edge id="gneE9" from="gneJ5" to="gneJ3" priority="1">
        <lane id="gneE9_0" index="0" speed="13.89" length="49.11" shape="113.16,123.29 109.44,74.31"/>
    </edge>

    <junction id="gneJ0" type="dead_end" x="-13.57" y="72.39" incLanes="gneE1_0" intLanes="" shape="-13.57,72.34 -13.56,75.64 -13.57,72.44"/>
    <junction id="gneJ1" type="priority" x="57.40" y="72.15" incLanes="gneE5_0 gneE3_0 gneE0_0" intLanes=":gneJ1_0_0 :gneJ1_6_0 :gneJ1_2_0 :gneJ1_3_0 :gneJ1_4_0 :gneJ1_5_0" shape="62.87,75.07 62.47,68.58 61.11,67.18 54.64,66.60 52.93,68.92 52.95,75.42">
        <request index="0" response="000000" foes="001000" cont="0"/>
        <request index="1" response="110000" foes="111000" cont="1"/>
        <request index="2" response="100000" foes="100000" cont="0"/>
        <request index="3" response="100011" foes="100011" cont="0"/>
        <request index="4" response="000000" foes="000010" cont="0"/>
        <request index="5" response="000000" foes="001110" cont="0"/>
    </junction>
    <junction id="gneJ2" type="priority" x="62.82" y="11.41" incLanes="gneE2_0" intLanes=":gneJ2_0_0" shape="62.87,11.42 59.59,11.13 62.77,11.41">
        <request index="0" response="0" foes="0" cont="0"/>
    </junction>
    <junction id="gneJ3" type="priority" x="110.68" y="68.89" incLanes="gneE9_0 gneE7_0 gneE4_0" intLanes=":gneJ3_0_0 :gneJ3_1_0 :gneJ3_2_0 :gneJ3_3_0 :gneJ3_4_0 :gneJ3_6_0" shape="107.84,74.44 114.33,73.94 115.71,72.57 116.25,66.09 105.79,65.93 106.19,72.42">
        <request index="0" response="001000" foes="001000" cont="0"/>
        <request index="1" response="111000" foes="111000" cont="0"/>
        <request index="2" response="000000" foes="100000" cont="0"/>
        <request index="3" response="000000" foes="100011" cont="0"/>
        <request index="4" response="000000" foes="000010" cont="0"/>
        <request index="5" response="001100" foes="001110" cont="1"/>
    </junction>
    <junction id="gneJ4" type="dead_end" x="129.92" y="70.49" incLanes="gneE6_0" intLanes="" shape="129.91,70.54 130.19,67.26 129.92,70.44"/>
    <junction id="gneJ5" type="priority" x="114.80" y="123.16" incLanes="gneE8_0" intLanes=":gneJ5_0_0" shape="114.75,123.17 118.05,122.92 114.85,123.16">
        <request index="0" response="0" foes="0" cont="0"/>
    </junction>

    <junction id=":gneJ1_6_0" type="internal" x="57.54" y="72.01" incLanes=":gneJ1_1_0 gneE0_0" intLanes=":gneJ1_3_0 :gneJ1_4_0 :gneJ1_5_0"/>
    <junction id=":gneJ3_6_0" type="internal" x="110.76" y="68.97" incLanes=":gneJ3_5_0 gneE7_0" intLanes=":gneJ3_1_0 :gneJ3_2_0 :gneJ3_3_0"/>

    <connection from="gneE0" to="gneE2" fromLane="0" toLane="0" via=":gneJ1_4_0" dir="r" state="M"/>
    <connection from="gneE0" to="gneE4" fromLane="0" toLane="0" via=":gneJ1_5_0" dir="s" state="M"/>
    <connection from="gneE2" to="gneE3" fromLane="0" toLane="0" via=":gneJ2_0_0" dir="t" state="M"/>
    <connection from="gneE3" to="gneE4" fromLane="0" toLane="0" via=":gneJ1_2_0" dir="r" state="m"/>
    <connection from="gneE3" to="gneE1" fromLane="0" toLane="0" via=":gneJ1_3_0" dir="l" state="m"/>
    <connection from="gneE4" to="gneE6" fromLane="0" toLane="0" via=":gneJ3_4_0" dir="s" state="M"/>
    <connection from="gneE4" to="gneE8" fromLane="0" toLane="0" via=":gneJ3_5_0" dir="l" state="m"/>
    <connection from="gneE5" to="gneE1" fromLane="0" toLane="0" via=":gneJ1_0_0" dir="s" state="M"/>
    <connection from="gneE5" to="gneE2" fromLane="0" toLane="0" via=":gneJ1_1_0" dir="l" state="m"/>
    <connection from="gneE7" to="gneE8" fromLane="0" toLane="0" via=":gneJ3_2_0" dir="r" state="M"/>
    <connection from="gneE7" to="gneE5" fromLane="0" toLane="0" via=":gneJ3_3_0" dir="s" state="M"/>
    <connection from="gneE8" to="gneE9" fromLane="0" toLane="0" via=":gneJ5_0_0" dir="t" state="M"/>
    <connection from="gneE9" to="gneE5" fromLane="0" toLane="0" via=":gneJ3_0_0" dir="r" state="m"/>
    <connection from="gneE9" to="gneE6" fromLane="0" toLane="0" via=":gneJ3_1_0" dir="l" state="m"/>

    <connection from=":gneJ1_0" to="gneE1" fromLane="0" toLane="0" dir="s" state="M"/>
    <connection from=":gneJ1_1" to="gneE2" fromLane="0" toLane="0" via=":gneJ1_6_0" dir="s" state="m"/>
    <connection from=":gneJ1_6" to="gneE2" fromLane="0" toLane="0" dir="s" state="M"/>
    <connection from=":gneJ1_2" to="gneE4" fromLane="0" toLane="0" dir="s" state="M"/>
    <connection from=":gneJ1_3" to="gneE1" fromLane="0" toLane="0" dir="s" state="M"/>
    <connection from=":gneJ1_4" to="gneE2" fromLane="0" toLane="0" dir="s" state="M"/>
    <connection from=":gneJ1_5" to="gneE4" fromLane="0" toLane="0" dir="s" state="M"/>
    <connection from=":gneJ2_0" to="gneE3" fromLane="0" toLane="0" dir="s" state="M"/>
    <connection from=":gneJ3_0" to="gneE5" fromLane="0" toLane="0" dir="s" state="M"/>
    <connection from=":gneJ3_1" to="gneE6" fromLane="0" toLane="0" dir="s" state="M"/>
    <connection from=":gneJ3_2" to="gneE8" fromLane="0" toLane="0" dir="s" state="M"/>
    <connection from=":gneJ3_3" to="gneE5" fromLane="0" toLane="0" dir="s" state="M"/>
    <connection from=":gneJ3_4" to="gneE6" fromLane="0" toLane="0" dir="s" state="M"/>
    <connection from=":gneJ3_5" to="gneE8" fromLane="0" toLane="0" via=":gneJ3_6_0" dir="s" state="m"/>
    <connection from=":gneJ3_6" to="gneE8" fromLane="0" toLane="0" dir="s" state="M"/>
    <connection from=":gneJ5_0" to="gneE9" fromLane="0" toLane="0" dir="s" state="M"/>

</net>
