<?xml version="1.0" encoding="UTF-8"?>

<!-- generated on Wed 16 Sep 2020 12:21:49 PM CEST by Eclipse SUMO netedit Version v1_7_0+0098-b96f955b7b
<configuration xmlns:xsi="http://www.w3.org/2001/XMLSchema-instance" xsi:noNamespaceSchemaLocation="http://sumo.dlr.de/xsd/netconvertConfiguration.xsd">

    <input>
        <sumo-net-file value="net.net.xml"/>
    </input>

    <output>
        <output-file value="net.net.xml"/>
    </output>

    <processing>
        <geometry.min-radius.fix.railways value="false"/>
        <geometry.max-grade.fix value="false"/>
        <offset.disable-normalization value="true"/>
        <lefthand value="false"/>
    </processing>

    <junctions>
        <no-internal-links value="true"/>
        <no-turnarounds value="true"/>
        <junctions.corner-detail value="5"/>
        <junctions.limit-turn-speed value="5.5"/>
        <rectangular-lane-cut value="false"/>
    </junctions>

    <pedestrian>
        <walkingareas value="false"/>
    </pedestrian>

    <netedit>
        <route-files value="/home/kobo/dlr/sumo/tests/sumo/extended/bikes/tls_merge_straight/input_routes.rou.xml"/>
    </netedit>

    <report>
        <aggregate-warnings value="5"/>
    </report>

</configuration>
-->

<routes xmlns:xsi="http://www.w3.org/2001/XMLSchema-instance" xsi:noNamespaceSchemaLocation="http://sumo.dlr.de/xsd/routes_file.xsd">
    <route edges="SC CN" color="yellow" id="route_0"/>
    <flow id="flow_0" begin="0.00" route="route_0" end="360.00" probability="0.1"/>
    <flow id="flow_1" type="DEFAULT_BIKETYPE" begin="0.00" route="route_0" end="360.00" probability="0.1"/>
</routes>
