<?xml version="1.0" encoding="UTF-8"?>

<!-- generated on Wed Sep  9 10:11:50 2020 by Eclipse SUMO duarouter Version v1_7_0+0007-9073c1719d
<configuration xmlns:xsi="http://www.w3.org/2001/XMLSchema-instance" xsi:noNamespaceSchemaLocation="http://sumo.dlr.de/xsd/duarouterConfiguration.xsd">

    <input>
        <net-file value="net.net.xml"/>
        <additional-files value="input_additional.add.xml"/>
        <route-files value="input_routes.rou.xml"/>
    </input>

    <output>
        <output-file value="input_routes.rou.xml.rou.xml"/>
        <alternatives-output value="input_routes.rou.xml.rou.alt.xml"/>
    </output>

    <report>
        <ignore-errors value="true"/>
        <no-step-log value="true"/>
    </report>

</configuration>
-->

<routes xmlns:xsi="http://www.w3.org/2001/XMLSchema-instance" xsi:noNamespaceSchemaLocation="http://sumo.dlr.de/xsd/routes_file.xsd">
    <vType id="train" length="50.00" vClass="rail"/>
    <vehicle id="t0" type="train" depart="0.00" departSpeed="max">
        <route edges="a b c 2a 2b 2c"/>
        <stop busStop="stop_c" arrival="10" until="20" duration="10" started="10" ended="20" parking="true"/>
        <stop busStop="stop_2c" arrival="110" until="120" duration="10" started="110" ended="120"/>
    </vehicle>
    <vehicle id="t1" type="train" depart="120.00" departSpeed="max">
        <route edges="a b c 2a 2b 2c"/>
        <stop busStop="stop_c" arrival="210" until="220" duration="10"/>
        <stop busStop="stop_2c" arrival="310" until="320" duration="10"/>
    </vehicle>
    <vehicle id="t2" type="train" depart="220.00" departSpeed="max">
        <route edges="c 2a 2b 2c"/>
        <stop busStop="stop_c" arrival="310" until="320" duration="10"/>
        <stop busStop="stop_2c" arrival="410" until="420" duration="10"/>
    </vehicle>
</routes>
