<?xml version="1.0" encoding="UTF-8"?>

<!-- generated on 2023-04-18 09:18:59 by Eclipse SUMO netedit Version v1_16_0+2135-40d51fde2c5
-->

<configuration xmlns:xsi="http://www.w3.org/2001/XMLSchema-instance" xsi:noNamespaceSchemaLocation="http://sumo.dlr.de/xsd/netconvertConfiguration.xsd">

    <netedit>
        <new-network value="true"/>
    </netedit>

</configuration>
