<?xml version="1.0" encoding="UTF-8"?>

<!-- generated on 2023-08-08 15:01:31 by Eclipse SUMO netedit Version v1_18_0+0799-e3f13b8932a
-->

<additional xmlns:xsi="http://www.w3.org/2001/XMLSchema-instance" xsi:noNamespaceSchemaLocation="http://sumo.dlr.de/xsd/additional_file.xsd">
    <!-- Shapes -->
    <poi id="POI_2" color="red" layer="202.00" name="myName" lon="-20.000000" lat="-30.000000" width="0.00" height="0.00"/>
</additional>
