<?xml version="1.0" encoding="UTF-8"?>

<!-- generated on 2022-02-14 14:07:21 by Eclipse SUMO netedit Version v1_12_0+0544-e9874b5b681
<configuration xmlns:xsi="http://www.w3.org/2001/XMLSchema-instance" xsi:noNamespaceSchemaLocation="http://sumo.dlr.de/xsd/netconvertConfiguration.xsd">

    <input>
        <sumo-net-file value="C:\Users\SUMO-Test\.texttest\tmp\netedit.gui.1_from_14Feb133708.5880\netedit.gui\netElements\junctions\inspect_selected\radius\input_net.net.xml"/>
    </input>

    <output>
        <output-file value="C:\Users\SUMO-Test\.texttest\tmp\netedit.gui.1_from_14Feb133708.5880\netedit.gui\netElements\junctions\inspect_selected\radius\net.net.xml"/>
    </output>

    <processing>
        <geometry.min-radius.fix.railways value="false"/>
        <geometry.max-grade.fix value="false"/>
        <offset.disable-normalization value="true"/>
        <lefthand value="false"/>
    </processing>

    <junctions>
        <no-internal-links value="false"/>
        <no-turnarounds value="true"/>
        <junctions.corner-detail value="5"/>
        <junctions.limit-turn-speed value="5.5"/>
        <rectangular-lane-cut value="false"/>
    </junctions>

    <pedestrian>
        <walkingareas value="false"/>
    </pedestrian>

    <netedit>
        <additional-files value="C:\Users\SUMO-Test\.texttest\tmp\netedit.gui.1_from_14Feb133708.5880\netedit.gui\netElements\junctions\inspect_selected\radius\additionals.xml"/>
        <additionals-output value="C:\Users\SUMO-Test\.texttest\tmp\netedit.gui.1_from_14Feb133708.5880\netedit.gui\netElements\junctions\inspect_selected\radius\additionals.xml"/>
        <route-files value="C:\Users\SUMO-Test\.texttest\tmp\netedit.gui.1_from_14Feb133708.5880\netedit.gui\netElements\junctions\inspect_selected\radius\routes.xml"/>
        <demandelements-output value="C:\Users\SUMO-Test\.texttest\tmp\netedit.gui.1_from_14Feb133708.5880\netedit.gui\netElements\junctions\inspect_selected\radius\routes.xml"/>
        <data-files value="C:\Users\SUMO-Test\.texttest\tmp\netedit.gui.1_from_14Feb133708.5880\netedit.gui\netElements\junctions\inspect_selected\radius\datas.xml"/>
        <dataelements-output value="C:\Users\SUMO-Test\.texttest\tmp\netedit.gui.1_from_14Feb133708.5880\netedit.gui\netElements\junctions\inspect_selected\radius\datas.xml"/>
    </netedit>

    <visualisation>
        <gui-settings-file value="C:\Users\SUMO-Test\.texttest\tmp\netedit.gui.1_from_14Feb133708.5880\netedit.gui\netElements\junctions\inspect_selected\radius\gui-settings.xml"/>
        <window-size value="936,697"/>
        <window-pos value="50,50"/>
        <gui-testing value="true"/>
        <gui-testing-debug value="true"/>
        <gui-testing.setting-output value="C:\Users\SUMO-Test\.texttest\tmp\netedit.gui.1_from_14Feb133708.5880\netedit.gui\netElements\junctions\inspect_selected\radius\guisettingsoutput.xml"/>
    </visualisation>

    <report>
        <no-warnings value="true"/>
        <aggregate-warnings value="5"/>
        <error-log value="C:\Users\SUMO-Test\.texttest\tmp\netedit.gui.1_from_14Feb133708.5880\netedit.gui\netElements\junctions\inspect_selected\radius\log.txt"/>
    </report>

</configuration>
-->

<net version="1.9" junctionCornerDetail="5" limitTurnSpeed="5.50" xmlns:xsi="http://www.w3.org/2001/XMLSchema-instance" xsi:noNamespaceSchemaLocation="http://sumo.dlr.de/xsd/net_file.xsd">

    <location netOffset="50.00,50.00" convBoundary="0.00,0.00,100.00,100.00" origBoundary="-50.00,-50.00,50.00,50.00" projParameter="!"/>

    <edge id=":A_0" function="internal">
        <lane id=":A_0_0" index="0" speed="3.65" length="4.67" shape="48.40,0.00 49.20,-1.20 50.00,-1.60 50.80,-1.20 51.60,0.00"/>
    </edge>
    <edge id=":A_w0" function="walkingarea">
        <lane id=":A_w0_0" index="0" allow="pedestrian" speed="1.00" length="9.60" width="3.20" shape="50.00,0.00 53.20,0.00 53.20,0.00 56.40,0.00 43.60,0.00 46.80,0.00 46.80,0.00 50.00,0.00"/>
    </edge>
    <edge id=":B_0" function="internal">
        <lane id=":B_0_0" index="0" speed="3.65" length="4.67" shape="51.60,100.00 50.80,101.20 50.00,101.60 49.20,101.20 48.40,100.00"/>
    </edge>
    <edge id=":B_w0" function="walkingarea">
        <lane id=":B_w0_0" index="0" allow="pedestrian" speed="1.00" length="9.60" width="3.20" shape="50.00,100.00 46.80,100.00 46.80,100.00 43.60,100.00 56.40,100.00 53.20,100.00 53.20,100.00 50.00,100.00"/>
    </edge>
    <edge id=":C_0" function="internal">
        <lane id=":C_0_0" index="0" speed="3.65" length="4.67" shape="0.00,51.60 -1.20,50.80 -1.60,50.00 -1.20,49.20 0.00,48.40"/>
    </edge>
    <edge id=":C_w0" function="walkingarea">
        <lane id=":C_w0_0" index="0" allow="pedestrian" speed="1.00" length="9.60" width="3.20" shape="0.00,50.00 0.00,46.80 0.00,46.80 0.00,43.60 0.00,56.40 0.00,53.20 0.00,53.20 0.00,50.00"/>
    </edge>
    <edge id=":Center_0" function="internal">
        <lane id=":Center_0_0" index="0" speed="5.55" length="6.29" shape="45.20,58.70 44.96,56.99 44.23,55.78 43.01,55.04 41.30,54.80"/>
    </edge>
    <edge id=":Center_1" function="internal">
        <lane id=":Center_1_0" index="0" speed="13.90" length="17.40" shape="45.20,58.70 45.20,41.30"/>
        <lane id=":Center_1_1" index="1" speed="13.90" length="17.40" shape="48.40,58.70 48.40,41.30"/>
    </edge>
    <edge id=":Center_3" function="internal">
        <lane id=":Center_3_0" index="0" speed="8.61" length="16.61" shape="48.40,58.70 49.04,54.19 50.98,50.98 54.19,49.04 58.70,48.40"/>
    </edge>
    <edge id=":Center_4" function="internal">
        <lane id=":Center_4_0" index="0" speed="3.65" length="4.67" shape="48.40,58.70 49.20,57.50 50.00,57.10 50.80,57.50 51.60,58.70"/>
    </edge>
    <edge id=":Center_5" function="internal">
        <lane id=":Center_5_0" index="0" speed="5.55" length="6.29" shape="58.70,54.80 56.99,55.04 55.78,55.77 55.04,56.99 54.80,58.70"/>
    </edge>
    <edge id=":Center_6" function="internal">
        <lane id=":Center_6_0" index="0" speed="13.90" length="17.40" shape="58.70,54.80 41.30,54.80"/>
        <lane id=":Center_6_1" index="1" speed="13.90" length="17.40" shape="58.70,51.60 41.30,51.60"/>
    </edge>
    <edge id=":Center_8" function="internal">
        <lane id=":Center_8_0" index="0" speed="8.61" length="16.61" shape="58.70,51.60 54.19,50.96 50.98,49.02 49.04,45.81 48.40,41.30"/>
    </edge>
    <edge id=":Center_9" function="internal">
        <lane id=":Center_9_0" index="0" speed="3.65" length="4.67" shape="58.70,51.60 57.50,50.80 57.10,50.00 57.50,49.20 58.70,48.40"/>
    </edge>
    <edge id=":Center_10" function="internal">
        <lane id=":Center_10_0" index="0" speed="5.55" length="6.29" shape="54.80,41.30 55.04,43.01 55.77,44.22 56.99,44.96 58.70,45.20"/>
    </edge>
    <edge id=":Center_11" function="internal">
        <lane id=":Center_11_0" index="0" speed="13.90" length="17.40" shape="54.80,41.30 54.80,58.70"/>
        <lane id=":Center_11_1" index="1" speed="13.90" length="17.40" shape="51.60,41.30 51.60,58.70"/>
    </edge>
    <edge id=":Center_13" function="internal">
        <lane id=":Center_13_0" index="0" speed="8.61" length="16.61" shape="51.60,41.30 50.96,45.81 49.02,49.02 45.81,50.96 41.30,51.60"/>
    </edge>
    <edge id=":Center_14" function="internal">
        <lane id=":Center_14_0" index="0" speed="3.65" length="4.67" shape="51.60,41.30 50.80,42.50 50.00,42.90 49.20,42.50 48.40,41.30"/>
    </edge>
    <edge id=":Center_15" function="internal">
        <lane id=":Center_15_0" index="0" speed="5.55" length="6.29" shape="41.30,45.20 43.01,44.96 44.22,44.23 44.96,43.01 45.20,41.30"/>
    </edge>
    <edge id=":Center_16" function="internal">
        <lane id=":Center_16_0" index="0" speed="13.90" length="17.40" shape="41.30,45.20 58.70,45.20"/>
        <lane id=":Center_16_1" index="1" speed="13.90" length="17.40" shape="41.30,48.40 58.70,48.40"/>
    </edge>
    <edge id=":Center_18" function="internal">
        <lane id=":Center_18_0" index="0" speed="8.61" length="16.61" shape="41.30,48.40 45.81,49.04 49.02,50.98 50.96,54.19 51.60,58.70"/>
    </edge>
    <edge id=":Center_19" function="internal">
        <lane id=":Center_19_0" index="0" speed="3.65" length="4.67" shape="41.30,48.40 42.50,49.20 42.90,50.00 42.50,50.80 41.30,51.60"/>
    </edge>
    <edge id=":Center_c0" function="crossing" crossingEdges="4 8">
        <lane id=":Center_c0_0" index="0" allow="pedestrian" speed="1.00" length="12.80" width="3.00" shape="57.20,43.60 57.20,56.40"/>
    </edge>
    <edge id=":Center_c1" function="crossing" crossingEdges="3 7">
        <lane id=":Center_c1_0" index="0" allow="pedestrian" speed="1.00" length="12.80" width="4.00" shape="43.30,56.40 43.30,43.60"/>
    </edge>
    <edge id=":Center_w0" function="walkingarea">
        <lane id=":Center_w0_0" index="0" allow="pedestrian" speed="1.00" length="14.23" width="3.20" shape="43.60,58.70 46.80,58.70 46.80,58.70 50.00,58.70 50.00,58.70 53.20,58.70 53.20,58.70 56.40,58.70 58.70,56.40 58.70,53.20 58.70,53.20 58.70,50.00 58.70,50.00 58.70,46.80 58.70,46.80 58.70,43.60 56.40,41.30 53.20,41.30 53.20,41.30 50.00,41.30 50.00,41.30 46.80,41.30 46.80,41.30 43.60,41.30 41.30,43.60 41.30,46.80 41.30,46.80 41.30,50.00 41.30,50.00 41.30,53.20 41.30,53.20 41.30,56.40 43.54,58.00 43.34,57.42 43.02,56.98 42.58,56.66 42.00,56.46"/>
    </edge>
    <edge id=":Center_w1" function="walkingarea">
        <lane id=":Center_w1_0" index="0" allow="pedestrian" speed="1.00" length="13.90" width="3.00" shape="55.70,56.40 58.70,56.40 41.80,56.40 44.80,56.40"/>
    </edge>
    <edge id=":Center_w2" function="walkingarea">
        <lane id=":Center_w2_0" index="0" allow="pedestrian" speed="1.00" length="13.90" width="4.00" shape="45.30,43.60 41.30,43.60 59.20,43.60 55.20,43.60"/>
    </edge>
    <edge id=":D_0" function="internal">
        <lane id=":D_0_0" index="0" speed="3.65" length="4.67" shape="100.00,48.40 101.20,49.20 101.60,50.00 101.20,50.80 100.00,51.60"/>
    </edge>
    <edge id=":D_w0" function="walkingarea">
        <lane id=":D_w0_0" index="0" allow="pedestrian" speed="1.00" length="9.60" width="3.20" shape="100.00,50.00 100.00,53.20 100.00,53.20 100.00,56.40 100.00,43.60 100.00,46.80 100.00,46.80 100.00,50.00"/>
    </edge>

    <edge id="1" from="Center" to="A" priority="-1">
        <lane id="1_0" index="0" speed="13.90" length="41.30" shape="45.20,41.30 45.20,0.00"/>
        <lane id="1_1" index="1" speed="13.90" length="41.30" shape="48.40,41.30 48.40,0.00"/>
    </edge>
    <edge id="2" from="Center" to="B" priority="-1">
        <lane id="2_0" index="0" speed="13.90" length="41.30" shape="54.80,58.70 54.80,100.00"/>
        <lane id="2_1" index="1" speed="13.90" length="41.30" shape="51.60,58.70 51.60,100.00"/>
    </edge>
    <edge id="3" from="Center" to="C" priority="-1">
        <lane id="3_0" index="0" speed="13.90" length="41.30" shape="41.30,54.80 0.00,54.80"/>
        <lane id="3_1" index="1" speed="13.90" length="41.30" shape="41.30,51.60 0.00,51.60"/>
    </edge>
    <edge id="4" from="Center" to="D" priority="-1">
        <lane id="4_0" index="0" speed="13.90" length="41.30" shape="58.70,45.20 100.00,45.20"/>
        <lane id="4_1" index="1" speed="13.90" length="41.30" shape="58.70,48.40 100.00,48.40"/>
    </edge>
    <edge id="5" from="A" to="Center" priority="-1">
        <lane id="5_0" index="0" speed="13.90" length="41.30" shape="54.80,0.00 54.80,41.30"/>
        <lane id="5_1" index="1" speed="13.90" length="41.30" shape="51.60,0.00 51.60,41.30"/>
    </edge>
    <edge id="6" from="B" to="Center" priority="-1">
        <lane id="6_0" index="0" speed="13.90" length="41.30" shape="45.20,100.00 45.20,58.70"/>
        <lane id="6_1" index="1" speed="13.90" length="41.30" shape="48.40,100.00 48.40,58.70"/>
    </edge>
    <edge id="7" from="C" to="Center" priority="-1">
        <lane id="7_0" index="0" speed="13.90" length="41.30" shape="0.00,45.20 41.30,45.20"/>
        <lane id="7_1" index="1" speed="13.90" length="41.30" shape="0.00,48.40 41.30,48.40"/>
    </edge>
    <edge id="8" from="D" to="Center" priority="-1">
        <lane id="8_0" index="0" speed="13.90" length="41.30" shape="100.00,54.80 58.70,54.80"/>
        <lane id="8_1" index="1" speed="13.90" length="41.30" shape="100.00,51.60 58.70,51.60"/>
    </edge>

    <junction id="A" type="priority" x="50.00" y="0.00" incLanes="1_0 1_1" intLanes=":A_0_0" shape="50.00,0.00 43.60,0.00 50.00,0.00" name="Name B">
        <request index="0" response="0" foes="0" cont="0"/>
        <param key="C" value="D"/>
    </junction>
    <junction id="B" type="priority" x="50.00" y="100.00" incLanes="2_0 2_1" intLanes=":B_0_0" shape="50.00,100.00 56.40,100.00 50.00,100.00" name="Name B">
        <request index="0" response="0" foes="0" cont="0"/>
        <param key="C" value="D"/>
    </junction>
    <junction id="C" type="priority" x="0.00" y="50.00" incLanes="3_0 3_1" intLanes=":C_0_0" shape="0.00,50.00 0.00,56.40 0.00,50.00" radius="2.30" name="Name B">
        <request index="0" response="0" foes="0" cont="0"/>
        <param key="C" value="D"/>
    </junction>
    <junction id="Center" type="zipper" x="50.00" y="50.00" incLanes="6_0 6_1 8_0 8_1 5_0 5_1 7_0 7_1 :Center_w2_0 :Center_w1_0" intLanes=":Center_0_0 :Center_1_0 :Center_1_1 :Center_3_0 :Center_4_0 :Center_5_0 :Center_6_0 :Center_6_1 :Center_8_0 :Center_9_0 :Center_10_0 :Center_11_0 :Center_11_1 :Center_13_0 :Center_14_0 :Center_15_0 :Center_16_0 :Center_16_1 :Center_18_0 :Center_19_0 :Center_c0_0 :Center_c1_0" shape="43.60,58.70 56.40,58.70 56.66,57.42 56.98,56.98 57.42,56.66 58.00,56.46 58.70,56.40 58.70,43.60 57.42,43.34 56.98,43.02 56.66,42.58 56.46,42.00 56.40,41.30 43.60,41.30 43.34,42.58 43.02,43.02 42.58,43.34 42.00,43.54 41.30,43.60 41.30,56.40 42.58,56.66 43.02,56.98 43.34,57.42 43.54,58.00" radius="2.30" rightOfWay="edgePriority" fringe="inner" name="Name A">
        <request index="0"  response="1000000000000001000000" foes="1000000000000001000000" cont="0"/>
        <request index="1"  response="0001111010000011000000" foes="0001111010000011000000" cont="0"/>
        <request index="2"  response="0001110110000111000000" foes="0001110110000111000000" cont="0"/>
        <request index="3"  response="0101100001101111000000" foes="0101100001101111000000" cont="0"/>
        <request index="4"  response="0001000001000000000000" foes="0001000001000000000000" cont="0"/>
        <request index="5"  response="0100000000100000000000" foes="0100000000100000000000" cont="0"/>
        <request index="6"  response="1101000001100000001111" foes="1101000001100000001111" cont="0"/>
        <request index="7"  response="1111000011100000001110" foes="1111000011100000001110" cont="0"/>
        <request index="8"  response="0100110111100000001100" foes="0100110111100000001100" cont="0"/>
        <request index="9"  response="0100100000000000001000" foes="0100100000000000001000" cont="0"/>
        <request index="10" response="0100010000000000000000" foes="0100010000000000000000" cont="0"/>
        <request index="11" response="0000110000000111101000" foes="0000110000000111101000" cont="0"/>
        <request index="12" response="0001110000000111011000" foes="0001110000000111011000" cont="0"/>
        <request index="13" response="1011110000000110000110" foes="1011110000000110000110" cont="0"/>
        <request index="14" response="0000000000000100000100" foes="0000000000000100000100" cont="0"/>
        <request index="15" response="1000000000000000000010" foes="1000000000000000000010" cont="0"/>
        <request index="16" response="1100000011110100000110" foes="1100000011110100000110" cont="0"/>
        <request index="17" response="1100000011101100001110" foes="1100000011101100001110" cont="0"/>
        <request index="18" response="1000000011000011011110" foes="1000000011000011011110" cont="0"/>
        <request index="19" response="1000000010000010000000" foes="1000000010000010000000" cont="0"/>
        <request index="20" response="0000000000000000000000" foes="0000110000011111101000" cont="0"/>
        <request index="21" response="0000000000000000000000" foes="0011111010000011000001" cont="0"/>
        <param key="A" value="B"/>
    </junction>
    <junction id="D" type="priority" x="100.00" y="50.00" incLanes="4_0 4_1" intLanes=":D_0_0" shape="100.00,50.00 100.00,43.60 100.00,50.00" name="Name B">
        <request index="0" response="0" foes="0" cont="0"/>
        <param key="C" value="D"/>
    </junction>

    <connection from="1" to="5" fromLane="1" toLane="1" via=":A_0_0" dir="t" state="M"/>
    <connection from="2" to="6" fromLane="1" toLane="1" via=":B_0_0" dir="t" state="M"/>
    <connection from="3" to="7" fromLane="1" toLane="1" via=":C_0_0" dir="t" state="M"/>
    <connection from="4" to="8" fromLane="1" toLane="1" via=":D_0_0" dir="t" state="M"/>
    <connection from="5" to="4" fromLane="0" toLane="0" keepClear="0" via=":Center_10_0" dir="r" state="Z"/>
    <connection from="5" to="2" fromLane="0" toLane="0" keepClear="0" via=":Center_11_0" dir="s" state="Z"/>
    <connection from="5" to="2" fromLane="1" toLane="1" keepClear="0" via=":Center_11_1" dir="s" state="Z"/>
    <connection from="5" to="3" fromLane="1" toLane="1" keepClear="0" via=":Center_13_0" dir="l" state="Z"/>
    <connection from="5" to="1" fromLane="1" toLane="1" keepClear="0" via=":Center_14_0" dir="t" state="Z"/>
    <connection from="6" to="3" fromLane="0" toLane="0" keepClear="0" via=":Center_0_0" dir="r" state="Z"/>
    <connection from="6" to="1" fromLane="0" toLane="0" keepClear="0" via=":Center_1_0" dir="s" state="Z"/>
    <connection from="6" to="1" fromLane="1" toLane="1" keepClear="0" via=":Center_1_1" dir="s" state="Z"/>
    <connection from="6" to="4" fromLane="1" toLane="1" keepClear="0" via=":Center_3_0" dir="l" state="Z"/>
    <connection from="6" to="2" fromLane="1" toLane="1" keepClear="0" via=":Center_4_0" dir="t" state="Z"/>
    <connection from="7" to="1" fromLane="0" toLane="0" keepClear="0" via=":Center_15_0" dir="r" state="Z"/>
    <connection from="7" to="4" fromLane="0" toLane="0" keepClear="0" via=":Center_16_0" dir="s" state="Z"/>
    <connection from="7" to="4" fromLane="1" toLane="1" keepClear="0" via=":Center_16_1" dir="s" state="Z"/>
    <connection from="7" to="2" fromLane="1" toLane="1" keepClear="0" via=":Center_18_0" dir="l" state="Z"/>
    <connection from="7" to="3" fromLane="1" toLane="1" keepClear="0" via=":Center_19_0" dir="t" state="Z"/>
    <connection from="8" to="2" fromLane="0" toLane="0" keepClear="0" via=":Center_5_0" dir="r" state="Z"/>
    <connection from="8" to="3" fromLane="0" toLane="0" keepClear="0" via=":Center_6_0" dir="s" state="Z"/>
    <connection from="8" to="3" fromLane="1" toLane="1" keepClear="0" via=":Center_6_1" dir="s" state="Z"/>
    <connection from="8" to="1" fromLane="1" toLane="1" keepClear="0" via=":Center_8_0" dir="l" state="Z"/>
    <connection from="8" to="4" fromLane="1" toLane="1" keepClear="0" via=":Center_9_0" dir="t" state="Z"/>

    <connection from=":A_0" to="5" fromLane="0" toLane="1" dir="t" state="M"/>
    <connection from=":B_0" to="6" fromLane="0" toLane="1" dir="t" state="M"/>
    <connection from=":C_0" to="7" fromLane="0" toLane="1" dir="t" state="M"/>
    <connection from=":Center_0" to="3" fromLane="0" toLane="0" dir="r" state="M"/>
    <connection from=":Center_1" to="1" fromLane="0" toLane="0" dir="s" state="M"/>
    <connection from=":Center_1" to="1" fromLane="1" toLane="1" dir="s" state="M"/>
    <connection from=":Center_3" to="4" fromLane="0" toLane="1" dir="l" state="M"/>
    <connection from=":Center_4" to="2" fromLane="0" toLane="1" dir="t" state="M"/>
    <connection from=":Center_5" to="2" fromLane="0" toLane="0" dir="r" state="M"/>
    <connection from=":Center_6" to="3" fromLane="0" toLane="0" dir="s" state="M"/>
    <connection from=":Center_6" to="3" fromLane="1" toLane="1" dir="s" state="M"/>
    <connection from=":Center_8" to="1" fromLane="0" toLane="1" dir="l" state="M"/>
    <connection from=":Center_9" to="4" fromLane="0" toLane="1" dir="t" state="M"/>
    <connection from=":Center_10" to="4" fromLane="0" toLane="0" dir="r" state="M"/>
    <connection from=":Center_11" to="2" fromLane="0" toLane="0" dir="s" state="M"/>
    <connection from=":Center_11" to="2" fromLane="1" toLane="1" dir="s" state="M"/>
    <connection from=":Center_13" to="3" fromLane="0" toLane="1" dir="l" state="M"/>
    <connection from=":Center_14" to="1" fromLane="0" toLane="1" dir="t" state="M"/>
    <connection from=":Center_15" to="1" fromLane="0" toLane="0" dir="r" state="M"/>
    <connection from=":Center_16" to="4" fromLane="0" toLane="0" dir="s" state="M"/>
    <connection from=":Center_16" to="4" fromLane="1" toLane="1" dir="s" state="M"/>
    <connection from=":Center_18" to="2" fromLane="0" toLane="1" dir="l" state="M"/>
    <connection from=":Center_19" to="3" fromLane="0" toLane="1" dir="t" state="M"/>
    <connection from=":D_0" to="8" fromLane="0" toLane="1" dir="t" state="M"/>

    <connection from=":A_w0" to="5" fromLane="0" toLane="0" dir="s" state="M"/>
    <connection from="1" to=":A_w0" fromLane="0" toLane="0" dir="s" state="M"/>
    <connection from=":B_w0" to="6" fromLane="0" toLane="0" dir="s" state="M"/>
    <connection from="2" to=":B_w0" fromLane="0" toLane="0" dir="s" state="M"/>
    <connection from=":C_w0" to="7" fromLane="0" toLane="0" dir="s" state="M"/>
    <connection from="3" to=":C_w0" fromLane="0" toLane="0" dir="s" state="M"/>
    <connection from=":Center_c0" to=":Center_w1" fromLane="0" toLane="0" dir="s" state="M"/>
    <connection from=":Center_c1" to=":Center_w2" fromLane="0" toLane="0" dir="s" state="M"/>
    <connection from=":Center_w0" to="2" fromLane="0" toLane="0" dir="s" state="M"/>
    <connection from=":Center_w0" to="4" fromLane="0" toLane="0" dir="s" state="M"/>
    <connection from=":Center_w0" to="1" fromLane="0" toLane="0" dir="s" state="M"/>
    <connection from=":Center_w0" to="3" fromLane="0" toLane="0" dir="s" state="M"/>
    <connection from="6" to=":Center_w0" fromLane="0" toLane="0" dir="s" state="M"/>
    <connection from="8" to=":Center_w0" fromLane="0" toLane="0" dir="s" state="M"/>
    <connection from="5" to=":Center_w0" fromLane="0" toLane="0" dir="s" state="M"/>
    <connection from="7" to=":Center_w0" fromLane="0" toLane="0" dir="s" state="M"/>
    <connection from=":Center_w1" to=":Center_c1" fromLane="0" toLane="0" dir="s" state="M"/>
    <connection from=":Center_w2" to=":Center_c0" fromLane="0" toLane="0" dir="s" state="M"/>
    <connection from=":D_w0" to="8" fromLane="0" toLane="0" dir="s" state="M"/>
    <connection from="4" to=":D_w0" fromLane="0" toLane="0" dir="s" state="M"/>
</net>
