<additional xmlns:xsi="http://www.w3.org/2001/XMLSchema-instance" xsi:noNamespaceSchemaLocation="http://sumo.dlr.de/xsd/additional_file.xsd">
    <laneData id="lane_data" file="aggregated.xml" freq="3600" edges="767378478"/>
    <edgeData id="edge_data" file="aggregated_1.xml" freq="3600" edges="767378478"/>
</additional>
