<?xml version="1.0" encoding="UTF-8"?>
<routes xmlns:xsi="http://www.w3.org/2001/XMLSchema-instance" xsi:noNamespaceSchemaLocation="http://sumo.dlr.de/xsd/routes_file.xsd">

    <flow id="v0" begin="0.00" number="1" period="1">
        <param key="test" value="42"/>
        <route edges="WC CE"/>
        <stop lane="WC_0" endPos="10.00" duration="1"/>
    </flow>
</routes>
