<?xml version="1.0"?>

<!-- generated on 06/16/11 10:44:25 by SUMO duarouter Version dev-SVN-r10630
<?xml version="1.0" encoding="iso-8859-1"?>

<configuration xmlns:xsi="http://www.w3.org/2001/XMLSchema-instance" xsi:noNamespaceSchemaLocation="http://sumo.sf.net/xsd/duarouterConfiguration.xsd">

    <input>
        <net-file value="input_net.net.xml"/>
        <alternative-files value="input_alts.rou.alt.xml"/>
    </input>

    <output>
        <output-file value="routes.rou.xml"/>
    </output>

    <processing>
        <skip-new-routes value="true"/>
    </processing>

</configuration>
-->

<route-alternatives xmlns:xsi="http://www.w3.org/2001/XMLSchema-instance" xsi:noNamespaceSchemaLocation="http://sumo.sf.net/xsd/routes_file.xsd">
    <vehicle id="0" depart="0.00" color="0.00,0.00,0.00">
        <routeDistribution last="0">
            <route cost="125.16" probability="1.00000000" edges="beg beg2left left left2end end rend"/>
        </routeDistribution>
    </vehicle>
    <vehicle id="9" depart="0.00" color="0.00,0.00,0.00">
        <routeDistribution last="0">
            <route cost="125.12" probability="1.00000000" edges="beg middle end rend"/>
        </routeDistribution>
    </vehicle>
</route-alternatives>
