<?xml version="1.0" encoding="UTF-8"?>

<!-- generated on Tue Dec  4 15:59:31 2018 by Eclipse SUMO netconvert Version v1_0_0+1208-d42a3cd999
<configuration xmlns:xsi="http://www.w3.org/2001/XMLSchema-instance" xsi:noNamespaceSchemaLocation="http://sumo.dlr.de/xsd/netconvertConfiguration.xsd">

    <input>
        <node-files value=".\complex\tutorial\traci_pedestrian_crossing\data\pedcrossing.nod.xml"/>
        <edge-files value=".\complex\tutorial\traci_pedestrian_crossing\data\pedcrossing.edg.xml"/>
        <connection-files value=".\complex\tutorial\traci_pedestrian_crossing\data\pedcrossing.con.xml"/>
    </input>

    <output>
        <output-file value=".\complex\tutorial\traci_pedestrian_crossing\data\pedcrossing.net.xml"/>
    </output>

    <junctions>
        <no-turnarounds value="true"/>
    </junctions>

    <report>
        <verbose value="true"/>
    </report>

</configuration>
-->

<net version="1.0" junctionCornerDetail="5" limitTurnSpeed="5.50" xmlns:xsi="http://www.w3.org/2001/XMLSchema-instance" xsi:noNamespaceSchemaLocation="http://sumo.dlr.de/xsd/net_file.xsd">

    <location netOffset="100.00,50.00" convBoundary="0.00,0.00,200.00,100.00" origBoundary="-10000000000.00,-10000000000.00,10000000000.00,10000000000.00" projParameter="!"/>

    <edge id=":C_0" function="internal">
        <lane id=":C_0_0" index="0" disallow="pedestrian" speed="13.89" length="6.00" shape="103.00,54.80 97.00,54.80"/>
        <lane id=":C_0_1" index="1" disallow="pedestrian" speed="13.89" length="6.00" shape="103.00,51.60 97.00,51.60"/>
    </edge>
    <edge id=":C_2" function="internal">
        <lane id=":C_2_0" index="0" disallow="pedestrian" speed="13.89" length="6.00" shape="97.00,45.20 103.00,45.20"/>
        <lane id=":C_2_1" index="1" disallow="pedestrian" speed="13.89" length="6.00" shape="97.00,48.40 103.00,48.40"/>
    </edge>
    <edge id=":C_c0" function="crossing" crossingEdges="CE EC">
        <lane id=":C_c0_0" index="0" allow="pedestrian" speed="1.00" length="12.80" width="6.00" shape="100.00,43.60 100.00,56.40"/>
    </edge>
    <edge id=":C_w0" function="walkingarea">
        <lane id=":C_w0_0" index="0" allow="pedestrian" speed="1.00" length="1.50" width="6.00" shape="98.50,57.90 101.50,57.90 103.00,56.40 97.00,56.40"/>
    </edge>
    <edge id=":C_w1" function="walkingarea">
        <lane id=":C_w1_0" index="0" allow="pedestrian" speed="1.00" length="1.50" width="6.00" shape="97.00,43.60 103.00,43.60 101.50,42.10 98.50,42.10"/>
    </edge>

    <edge id="CE" from="C" to="E" priority="1">
        <lane id="CE_0" index="0" disallow="pedestrian" speed="13.89" length="97.00" shape="103.00,45.20 200.00,45.20"/>
        <lane id="CE_1" index="1" disallow="pedestrian" speed="13.89" length="97.00" shape="103.00,48.40 200.00,48.40"/>
    </edge>
    <edge id="CS" from="C" to="S" priority="1" spreadType="center">
        <lane id="CS_0" index="0" allow="pedestrian" speed="5.00" length="42.10" width="3.00" shape="100.00,42.10 100.00,0.00"/>
    </edge>
    <edge id="CW" from="C" to="W" priority="1">
        <lane id="CW_0" index="0" disallow="pedestrian" speed="13.89" length="97.00" shape="97.00,54.80 0.00,54.80"/>
        <lane id="CW_1" index="1" disallow="pedestrian" speed="13.89" length="97.00" shape="97.00,51.60 0.00,51.60"/>
    </edge>
    <edge id="EC" from="E" to="C" priority="1">
        <lane id="EC_0" index="0" disallow="pedestrian" speed="13.89" length="97.00" shape="200.00,54.80 103.00,54.80"/>
        <lane id="EC_1" index="1" disallow="pedestrian" speed="13.89" length="97.00" shape="200.00,51.60 103.00,51.60"/>
    </edge>
    <edge id="NC" from="N" to="C" priority="1" spreadType="center">
        <lane id="NC_0" index="0" allow="pedestrian" speed="5.00" length="42.10" width="3.00" shape="100.00,100.00 100.00,57.90"/>
    </edge>
    <edge id="WC" from="W" to="C" priority="1">
        <lane id="WC_0" index="0" disallow="pedestrian" speed="13.89" length="97.00" shape="0.00,45.20 97.00,45.20"/>
        <lane id="WC_1" index="1" disallow="pedestrian" speed="13.89" length="97.00" shape="0.00,48.40 97.00,48.40"/>
    </edge>

    <tlLogic id="C" type="static" programID="0" offset="0">
        <phase duration="77" state="GGGGr"/>
        <phase duration="3"  state="yyyyr"/>
        <phase duration="5"  state="rrrrG"/>
        <phase duration="5"  state="rrrrr"/>
    </tlLogic>

    <junction id="C" type="traffic_light" x="100.00" y="50.00" incLanes="NC_0 EC_0 EC_1 WC_0 WC_1 :C_w1_0" intLanes=":C_0_0 :C_0_1 :C_2_0 :C_2_1 :C_c0_0" shape="98.50,57.90 101.50,57.90 101.67,57.07 101.88,56.78 102.17,56.57 102.54,56.44 103.00,56.40 103.00,43.60 102.17,43.43 101.88,43.23 101.67,42.93 101.54,42.56 101.50,42.10 98.50,42.10 98.33,42.93 98.13,43.22 97.83,43.43 97.46,43.56 97.00,43.60 97.00,56.40 97.83,56.57 98.13,56.77 98.33,57.07 98.46,57.44">
        <request index="0" response="10000" foes="10000" cont="0"/>
        <request index="1" response="10000" foes="10000" cont="0"/>
        <request index="2" response="10000" foes="10000" cont="0"/>
        <request index="3" response="10000" foes="10000" cont="0"/>
        <request index="4" response="00000" foes="01111" cont="0"/>
    </junction>
    <junction id="E" type="unregulated" x="200.00" y="50.00" incLanes="CE_0 CE_1" intLanes="" shape="200.00,50.00 200.00,43.60 200.00,50.00"/>
    <junction id="N" type="dead_end" x="100.00" y="100.00" incLanes="" intLanes="" shape="101.50,100.00 98.50,100.00"/>
    <junction id="S" type="dead_end" x="100.00" y="0.00" incLanes="CS_0" intLanes="" shape="98.50,0.00 101.50,0.00"/>
    <junction id="W" type="unregulated" x="0.00" y="50.00" incLanes="CW_0 CW_1" intLanes="" shape="0.00,50.00 0.00,56.40 0.00,50.00"/>

    <connection from="EC" to="CW" fromLane="0" toLane="0" via=":C_0_0" tl="C" linkIndex="0" dir="s" state="o"/>
    <connection from="EC" to="CW" fromLane="1" toLane="1" via=":C_0_1" tl="C" linkIndex="1" dir="s" state="o"/>
    <connection from="WC" to="CE" fromLane="0" toLane="0" via=":C_2_0" tl="C" linkIndex="2" dir="s" state="o"/>
    <connection from="WC" to="CE" fromLane="1" toLane="1" via=":C_2_1" tl="C" linkIndex="3" dir="s" state="o"/>

    <connection from=":C_0" to="CW" fromLane="0" toLane="0" dir="s" state="M"/>
    <connection from=":C_0" to="CW" fromLane="1" toLane="1" dir="s" state="M"/>
    <connection from=":C_2" to="CE" fromLane="0" toLane="0" dir="s" state="M"/>
    <connection from=":C_2" to="CE" fromLane="1" toLane="1" dir="s" state="M"/>

    <connection from=":C_c0" to=":C_w0" fromLane="0" toLane="0" dir="s" state="M"/>
    <connection from="NC" to=":C_w0" fromLane="0" toLane="0" dir="s" state="M"/>
    <connection from=":C_w1" to=":C_c0" fromLane="0" toLane="0" tl="C" linkIndex="4" dir="s" state="M"/>
    <connection from=":C_w1" to="CS" fromLane="0" toLane="0" dir="s" state="M"/>
</net>
