<?xml version="1.0" encoding="UTF-8"?>

<!-- generated on Mon Feb 17 15:30:46 2020 by Eclipse SUMO netconvert Version v1_5_0+0130-ceb0a01
This data file and the accompanying materials
are made available under the terms of the Eclipse Public License v2.0
which accompanies this distribution, and is available at
http://www.eclipse.org/legal/epl-v20.html
SPDX-License-Identifier: EPL-2.0
<configuration xmlns:xsi="http://www.w3.org/2001/XMLSchema-instance" xsi:noNamespaceSchemaLocation="http://sumo.dlr.de/xsd/netconvertConfiguration.xsd">

    <input>
        <node-files value="input_plain.nod.xml"/>
        <edge-files value="input_plain.edg.xml"/>
    </input>

    <output>
        <write-license value="true"/>
    </output>

    <report>
        <xml-validation value="never"/>
        <aggregate-warnings value="5"/>
    </report>

</configuration>
-->

<net version="1.6" junctionCornerDetail="5" limitTurnSpeed="5.50" xmlns:xsi="http://www.w3.org/2001/XMLSchema-instance" xsi:noNamespaceSchemaLocation="http://sumo.dlr.de/xsd/net_file.xsd">

    <location netOffset="1000.00,100.00" convBoundary="0.00,0.00,2000.00,200.00" origBoundary="-1000.00,-100.00,1000.00,100.00" projParameter="!"/>

    <edge id=":C_0" function="internal">
        <lane id=":C_0_0" index="0" disallow="rail" speed="13.89" length="9.40" shape="998.40,104.70 998.40,95.30"/>
    </edge>
    <edge id=":C_1" function="internal">
        <lane id=":C_1_0" index="0" allow="rail" speed="33.33" length="9.40" shape="1004.70,101.60 995.30,101.60"/>
    </edge>
    <edge id=":C_2" function="internal">
        <lane id=":C_2_0" index="0" disallow="rail" speed="13.89" length="9.40" shape="1001.60,95.30 1001.60,104.70"/>
    </edge>
    <edge id=":C_3" function="internal">
        <lane id=":C_3_0" index="0" allow="rail" speed="33.33" length="9.40" shape="995.30,98.40 1004.70,98.40"/>
    </edge>
    <edge id=":N_0" function="internal">
        <lane id=":N_0_0" index="0" disallow="rail" speed="3.65" length="4.67" shape="1001.60,200.00 1000.80,201.20 1000.00,201.60 999.20,201.20 998.40,200.00"/>
    </edge>
    <edge id=":S_0" function="internal">
        <lane id=":S_0_0" index="0" disallow="rail" speed="3.65" length="4.67" shape="998.40,0.00 999.20,-1.20 1000.00,-1.60 1000.80,-1.20 1001.60,0.00"/>
    </edge>

    <edge id="CE" from="C" to="E" priority="2">
        <lane id="CE_0" index="0" allow="rail" speed="33.33" length="995.30" shape="1004.70,98.40 2000.00,98.40"/>
    </edge>
    <edge id="CN" from="C" to="N" priority="3">
        <lane id="CN_0" index="0" disallow="rail" speed="13.89" length="95.30" shape="1001.60,104.70 1001.60,200.00"/>
    </edge>
    <edge id="CS" from="C" to="S" priority="3">
        <lane id="CS_0" index="0" disallow="rail" speed="13.89" length="95.30" shape="998.40,95.30 998.40,0.00"/>
    </edge>
    <edge id="CW" from="C" to="W" priority="2">
        <lane id="CW_0" index="0" allow="rail" speed="33.33" length="995.30" shape="995.30,101.60 0.00,101.60"/>
    </edge>
    <edge id="EC" from="E" to="C" priority="2">
        <lane id="EC_0" index="0" allow="rail" speed="33.33" length="995.30" shape="2000.00,101.60 1004.70,101.60"/>
    </edge>
    <edge id="NC" from="N" to="C" priority="3">
        <lane id="NC_0" index="0" disallow="rail" speed="13.89" length="95.30" shape="998.40,200.00 998.40,104.70"/>
    </edge>
    <edge id="SC" from="S" to="C" priority="3">
        <lane id="SC_0" index="0" disallow="rail" speed="13.89" length="95.30" shape="1001.60,0.00 1001.60,95.30"/>
    </edge>
    <edge id="WC" from="W" to="C" priority="2">
        <lane id="WC_0" index="0" allow="rail" speed="33.33" length="995.30" shape="0.00,98.40 995.30,98.40"/>
    </edge>

    <junction id="C" type="rail_crossing" x="1000.00" y="100.00" incLanes="NC_0 EC_0 SC_0 WC_0" intLanes=":C_0_0 :C_1_0 :C_2_0 :C_3_0" shape="996.80,104.70 1003.20,104.70 1003.37,103.87 1003.58,103.57 1003.87,103.37 1004.24,103.24 1004.70,103.20 1004.70,96.80 1003.87,96.63 1003.58,96.43 1003.37,96.13 1003.24,95.76 1003.20,95.30 996.80,95.30 996.63,96.13 996.42,96.43 996.13,96.63 995.76,96.76 995.30,96.80 995.30,103.20 996.13,103.37 996.42,103.57 996.63,103.87 996.76,104.24">
        <request index="0" response="0000" foes="1010" cont="0"/>
        <request index="1" response="0101" foes="0101" cont="0"/>
        <request index="2" response="0000" foes="1010" cont="0"/>
        <request index="3" response="0101" foes="0101" cont="0"/>
    </junction>
    <junction id="E" type="dead_end" x="2000.00" y="100.00" incLanes="CE_0" intLanes="" shape="2000.00,100.00 2000.00,96.80 2000.00,100.00"/>
    <junction id="N" type="priority" x="1000.00" y="200.00" incLanes="CN_0" intLanes=":N_0_0" shape="1000.00,200.00 1003.20,200.00 1000.00,200.00">
        <request index="0" response="0" foes="0" cont="0"/>
    </junction>
    <junction id="S" type="priority" x="1000.00" y="0.00" incLanes="CS_0" intLanes=":S_0_0" shape="1000.00,0.00 996.80,0.00 1000.00,0.00">
        <request index="0" response="0" foes="0" cont="0"/>
    </junction>
    <junction id="W" type="dead_end" x="0.00" y="100.00" incLanes="CW_0" intLanes="" shape="0.00,100.00 0.00,103.20 0.00,100.00"/>

    <connection from="CN" to="NC" fromLane="0" toLane="0" via=":N_0_0" dir="t" state="M"/>
    <connection from="CS" to="SC" fromLane="0" toLane="0" via=":S_0_0" dir="t" state="M"/>
    <connection from="EC" to="CW" fromLane="0" toLane="0" via=":C_1_0" tl="C" linkIndex="-1" dir="s" state="M"/>
    <connection from="NC" to="CS" fromLane="0" toLane="0" via=":C_0_0" tl="C" linkIndex="0" dir="s" state="O"/>
    <connection from="SC" to="CN" fromLane="0" toLane="0" via=":C_2_0" tl="C" linkIndex="1" dir="s" state="O"/>
    <connection from="WC" to="CE" fromLane="0" toLane="0" via=":C_3_0" tl="C" linkIndex="-1" dir="s" state="M"/>

    <connection from=":C_0" to="CS" fromLane="0" toLane="0" dir="s" state="M"/>
    <connection from=":C_1" to="CW" fromLane="0" toLane="0" dir="s" state="M"/>
    <connection from=":C_2" to="CN" fromLane="0" toLane="0" dir="s" state="M"/>
    <connection from=":C_3" to="CE" fromLane="0" toLane="0" dir="s" state="M"/>
    <connection from=":N_0" to="NC" fromLane="0" toLane="0" dir="t" state="M"/>
    <connection from=":S_0" to="SC" fromLane="0" toLane="0" dir="t" state="M"/>

</net>
