<?xml version="1.0" encoding="UTF-8"?>

<!-- generated on 2024-06-20 11:20:34 by Eclipse SUMO sumo Version v1_20_0+0677-f584fda3caa
This data file and the accompanying materials
are made available under the terms of the Eclipse Public License v2.0
which accompanies this distribution, and is available at
http://www.eclipse.org/legal/epl-v20.html
This file may also be made available under the following Secondary
Licenses when the conditions for such availability set forth in the Eclipse
Public License 2.0 are satisfied: GNU General Public License, version 2
or later which is available at
https://www.gnu.org/licenses/old-licenses/gpl-2.0-standalone.html
SPDX-License-Identifier: EPL-2.0 OR GPL-2.0-or-later
<sumoConfiguration xmlns:xsi="http://www.w3.org/2001/XMLSchema-instance" xsi:noNamespaceSchemaLocation="http://sumo.dlr.de/xsd/sumoConfiguration.xsd">

    <input>
        <net-file value="net.net.xml"/>
        <route-files value="input_routes.rou.xml"/>
    </input>

    <output>
        <write-license value="true"/>
        <lanechange-output value="lanechanges.xml"/>
    </output>

    <time>
        <step-length value="0.2"/>
    </time>

    <processing>
        <lanechange.duration value="5"/>
        <default.speeddev value="0"/>
    </processing>

    <report>
        <xml-validation value="never"/>
        <duration-log.statistics value="true"/>
        <no-step-log value="true"/>
    </report>

</sumoConfiguration>
-->

<lanechanges>
    <change id="type1.0" type="foe" time="11.20" from="13_0" to="13_1" dir="1" speed="22.05" pos="132.08" reason="speedGain" leaderGap="261.36" leaderSecureGap="49.41" leaderSpeed="0.00" followerGap="None" followerSecureGap="None" followerSpeed="None" origLeaderGap="261.36" origLeaderSecureGap="49.41" origLeaderSpeed="0.00"/>
    <change id="type1.0" type="foe" time="18.80" from="13_1" to="13_2" dir="1" speed="14.17" pos="310.00" reason="speedGain" leaderGap="79.48" leaderSecureGap="64.84" leaderSpeed="0.00" followerGap="None" followerSecureGap="None" followerSpeed="None" origLeaderGap="79.48" origLeaderSecureGap="64.84" origLeaderSpeed="0.00"/>
    <change id="type1.1" type="foe" time="19.80" from="13_0" to="13_1" dir="1" speed="27.82" pos="202.21" reason="speedGain" leaderGap="142.56" leaderSecureGap="40.11" leaderSpeed="19.43" followerGap="None" followerSecureGap="None" followerSpeed="None" origLeaderGap="205.06" origLeaderSecureGap="80.14" origLeaderSpeed="0.00"/>
    <change id="type1.1" type="foe" time="24.80" from="13_1" to="13_2" dir="1" speed="12.11" pos="310.80" reason="strategic|urgent" leaderGap="63.92" leaderSecureGap="55.41" leaderSpeed="3.49" followerGap="None" followerSecureGap="None" followerSpeed="None" origLeaderGap="74.29" origLeaderSecureGap="56.42" origLeaderSpeed="0.00"/>
    <change id="type1.2" type="foe" time="25.80" from="13_0" to="13_1" dir="1" speed="26.29" pos="193.80" reason="speedGain" leaderGap="151.31" leaderSecureGap="39.64" leaderSpeed="17.72" followerGap="None" followerSecureGap="None" followerSpeed="None" origLeaderGap="210.07" origLeaderSecureGap="72.79" origLeaderSpeed="0.00"/>
    <change id="type1.2" type="foe" time="31.00" from="13_1" to="13_2" dir="1" speed="11.53" pos="307.54" reason="strategic|urgent" leaderGap="62.64" leaderSecureGap="55.01" leaderSpeed="2.10" followerGap="None" followerSecureGap="None" followerSpeed="None" origLeaderGap="77.66" origLeaderSecureGap="55.31" origLeaderSpeed="0.00"/>
    <change id="type1.3" type="foe" time="31.80" from="13_0" to="13_1" dir="1" speed="27.58" pos="203.27" reason="speedGain" leaderGap="138.39" leaderSecureGap="43.63" leaderSpeed="18.79" followerGap="None" followerSecureGap="None" followerSpeed="None" origLeaderGap="203.85" origLeaderSecureGap="80.99" origLeaderSpeed="0.00"/>
    <change id="type1.4" type="foe" time="37.80" from="13_0" to="13_1" dir="1" speed="26.81" pos="193.76" reason="speedGain" leaderGap="152.98" leaderSecureGap="42.07" leaderSpeed="17.85" followerGap="None" followerSecureGap="None" followerSpeed="None" origLeaderGap="211.53" origLeaderSecureGap="75.71" origLeaderSpeed="0.00"/>
    <change id="type1.4" type="foe" time="43.00" from="13_1" to="13_2" dir="1" speed="10.88" pos="302.28" reason="speedGain" leaderGap="60.59" leaderSecureGap="47.77" leaderSpeed="0.00" followerGap="None" followerSecureGap="None" followerSpeed="None" origLeaderGap="68.89" origLeaderSecureGap="47.77" origLeaderSpeed="0.00"/>
    <change id="type1.5" type="foe" time="43.80" from="13_0" to="13_1" dir="1" speed="26.48" pos="191.47" reason="speedGain" leaderGap="143.64" leaderSecureGap="41.00" leaderSpeed="17.55" followerGap="None" followerSecureGap="None" followerSpeed="None" origLeaderGap="212.62" origLeaderSecureGap="73.48" origLeaderSpeed="0.00"/>
    <change id="type1.5" type="foe" time="49.00" from="13_1" to="13_2" dir="1" speed="10.10" pos="300.03" reason="speedGain" leaderGap="54.19" leaderSecureGap="49.49" leaderSpeed="1.65" followerGap="None" followerSecureGap="None" followerSpeed="None" origLeaderGap="70.65" origLeaderSecureGap="49.64" origLeaderSpeed="0.00"/>
    <change id="type1.6" type="foe" time="49.80" from="13_0" to="13_1" dir="1" speed="27.56" pos="194.16" reason="speedGain" leaderGap="140.96" leaderSecureGap="43.51" leaderSpeed="17.44" followerGap="None" followerSecureGap="None" followerSpeed="None" origLeaderGap="211.65" origLeaderSecureGap="75.59" origLeaderSpeed="0.00"/>
    <change id="type1.7" type="foe" time="55.80" from="13_0" to="13_1" dir="1" speed="26.31" pos="188.43" reason="speedGain" leaderGap="145.89" leaderSecureGap="38.57" leaderSpeed="17.57" followerGap="None" followerSecureGap="None" followerSpeed="None" origLeaderGap="214.72" origLeaderSecureGap="71.15" origLeaderSpeed="0.00"/>
    <change id="type1.7" type="foe" time="61.00" from="13_1" to="13_2" dir="1" speed="9.67" pos="293.74" reason="speedGain" leaderGap="54.43" leaderSecureGap="45.82" leaderSpeed="0.00" followerGap="None" followerSecureGap="None" followerSpeed="None" origLeaderGap="66.55" origLeaderSecureGap="45.35" origLeaderSpeed="2.52"/>
    <change id="type1.8" type="foe" time="61.60" from="13_0" to="13_1" dir="1" speed="27.17" pos="195.39" reason="speedGain" leaderGap="132.03" leaderSecureGap="45.54" leaderSpeed="17.83" followerGap="None" followerSecureGap="None" followerSpeed="None" origLeaderGap="211.69" origLeaderSecureGap="79.10" origLeaderSpeed="0.00"/>
    <change id="type1.9" type="foe" time="67.60" from="13_0" to="13_1" dir="1" speed="25.70" pos="183.46" reason="speedGain" leaderGap="147.37" leaderSecureGap="40.58" leaderSpeed="16.74" followerGap="None" followerSecureGap="None" followerSpeed="None" origLeaderGap="218.92" origLeaderSecureGap="70.08" origLeaderSpeed="0.00"/>
    <change id="type1.9" type="foe" time="72.80" from="13_1" to="13_2" dir="1" speed="9.45" pos="287.61" reason="speedGain" leaderGap="53.52" leaderSecureGap="44.70" leaderSpeed="0.00" followerGap="None" followerSecureGap="None" followerSpeed="None" origLeaderGap="66.13" origLeaderSecureGap="44.36" origLeaderSpeed="2.21"/>
    <change id="type1.10" type="foe" time="73.40" from="13_0" to="13_1" dir="1" speed="26.75" pos="190.97" reason="speedGain" leaderGap="128.35" leaderSecureGap="41.74" leaderSpeed="17.60" followerGap="None" followerSecureGap="None" followerSpeed="None" origLeaderGap="213.74" origLeaderSecureGap="74.41" origLeaderSpeed="0.00"/>
    <change id="type1.11" type="foe" time="79.40" from="13_0" to="13_1" dir="1" speed="26.61" pos="184.60" reason="speedGain" leaderGap="142.73" leaderSecureGap="43.95" leaderSpeed="16.59" followerGap="None" followerSecureGap="None" followerSpeed="None" origLeaderGap="219.68" origLeaderSecureGap="72.90" origLeaderSpeed="0.00"/>
    <change id="type1.11" type="foe" time="84.60" from="13_1" to="13_2" dir="1" speed="8.44" pos="284.60" reason="speedGain" leaderGap="47.69" leaderSecureGap="41.12" leaderSpeed="0.00" followerGap="None" followerSecureGap="None" followerSpeed="None" origLeaderGap="60.46" origLeaderSecureGap="40.83" origLeaderSpeed="2.07"/>
    <change id="type1.12" type="foe" time="85.40" from="13_0" to="13_1" dir="1" speed="25.92" pos="181.35" reason="speedGain" leaderGap="137.67" leaderSecureGap="43.89" leaderSpeed="15.70" followerGap="None" followerSecureGap="None" followerSpeed="None" origLeaderGap="221.13" origLeaderSecureGap="69.74" origLeaderSpeed="0.00"/>
    <change id="type1.13" type="foe" time="91.20" from="13_0" to="13_1" dir="1" speed="26.56" pos="182.33" reason="speedGain" leaderGap="133.98" leaderSecureGap="39.21" leaderSpeed="17.64" followerGap="None" followerSecureGap="None" followerSpeed="None" origLeaderGap="221.98" origLeaderSecureGap="72.03" origLeaderSpeed="0.00"/>
    <change id="type1.13" type="foe" time="96.40" from="13_1" to="13_2" dir="1" speed="7.84" pos="279.19" reason="speedGain" leaderGap="45.11" leaderSecureGap="38.28" leaderSpeed="0.00" followerGap="None" followerSecureGap="None" followerSpeed="None" origLeaderGap="57.24" origLeaderSecureGap="37.87" origLeaderSpeed="2.37"/>
    <change id="type1.14" type="foe" time="96.80" from="13_0" to="13_1" dir="1" speed="25.74" pos="175.13" reason="speedGain" leaderGap="133.17" leaderSecureGap="38.68" leaderSpeed="17.00" followerGap="None" followerSecureGap="None" followerSpeed="None" origLeaderGap="227.29" origLeaderSecureGap="69.10" origLeaderSpeed="0.00"/>
    <change id="type1.15" type="foe" time="102.80" from="13_0" to="13_1" dir="1" speed="26.12" pos="179.38" reason="speedGain" leaderGap="132.02" leaderSecureGap="40.98" leaderSpeed="16.92" followerGap="None" followerSecureGap="None" followerSpeed="None" origLeaderGap="224.01" origLeaderSecureGap="71.10" origLeaderSpeed="0.00"/>
    <change id="type1.15" type="foe" time="108.20" from="13_1" to="13_2" dir="1" speed="6.47" pos="275.21" reason="speedGain" leaderGap="39.27" leaderSecureGap="32.57" leaderSpeed="0.00" followerGap="None" followerSecureGap="None" followerSpeed="None" origLeaderGap="52.20" origLeaderSecureGap="32.32" origLeaderSpeed="1.98"/>
    <change id="type1.16" type="foe" time="108.40" from="13_0" to="13_1" dir="1" speed="24.34" pos="160.11" reason="speedGain" leaderGap="139.89" leaderSecureGap="30.74" leaderSpeed="16.56" followerGap="None" followerSecureGap="None" followerSpeed="None" origLeaderGap="238.36" origLeaderSecureGap="59.59" origLeaderSpeed="0.00"/>
    <change id="type1.17" type="foe" time="114.60" from="13_0" to="13_1" dir="1" speed="24.97" pos="166.81" reason="speedGain" leaderGap="132.96" leaderSecureGap="34.07" leaderSpeed="17.26" followerGap="None" followerSecureGap="None" followerSpeed="None" origLeaderGap="233.65" origLeaderSecureGap="65.45" origLeaderSpeed="0.00"/>
    <change id="type1.17" type="foe" time="119.80" from="13_1" to="13_2" dir="1" speed="8.26" pos="264.77" reason="speedGain" leaderGap="47.49" leaderSecureGap="39.64" leaderSpeed="0.00" followerGap="None" followerSecureGap="None" followerSpeed="None" origLeaderGap="59.67" origLeaderSecureGap="39.23" origLeaderSpeed="2.36"/>
    <change id="type1.18" type="foe" time="120.40" from="13_0" to="13_1" dir="1" speed="24.58" pos="161.29" reason="speedGain" leaderGap="132.50" leaderSecureGap="35.63" leaderSpeed="16.41" followerGap="None" followerSecureGap="None" followerSpeed="None" origLeaderGap="238.59" origLeaderSecureGap="63.92" origLeaderSpeed="0.00"/>
    <change id="type1.19" type="foe" time="126.60" from="13_0" to="13_1" dir="1" speed="24.27" pos="162.10" reason="speedGain" leaderGap="134.95" leaderSecureGap="33.29" leaderSpeed="16.15" followerGap="None" followerSecureGap="None" followerSpeed="None" origLeaderGap="236.78" origLeaderSecureGap="60.65" origLeaderSpeed="0.00"/>
    <change id="type1.19" type="foe" time="131.80" from="13_1" to="13_2" dir="1" speed="8.16" pos="259.31" reason="speedGain" leaderGap="46.29" leaderSecureGap="40.01" leaderSpeed="0.00" followerGap="None" followerSecureGap="None" followerSpeed="None" origLeaderGap="59.24" origLeaderSecureGap="39.76" origLeaderSpeed="1.96"/>
    <change id="type1.20" type="foe" time="132.40" from="13_0" to="13_1" dir="1" speed="25.27" pos="164.25" reason="speedGain" leaderGap="125.12" leaderSecureGap="35.23" leaderSpeed="16.39" followerGap="None" followerSecureGap="None" followerSpeed="None" origLeaderGap="236.49" origLeaderSecureGap="63.45" origLeaderSpeed="0.00"/>
    <change id="type1.21" type="foe" time="138.20" from="13_0" to="13_1" dir="1" speed="24.76" pos="156.56" reason="speedGain" leaderGap="133.07" leaderSecureGap="32.77" leaderSpeed="16.58" followerGap="None" followerSecureGap="None" followerSpeed="None" origLeaderGap="242.61" origLeaderSecureGap="61.69" origLeaderSpeed="0.00"/>
    <change id="type1.21" type="foe" time="143.40" from="13_1" to="13_2" dir="1" speed="7.93" pos="253.11" reason="speedGain" leaderGap="45.40" leaderSecureGap="38.74" leaderSpeed="0.00" followerGap="None" followerSecureGap="None" followerSpeed="None" origLeaderGap="58.19" origLeaderSecureGap="38.49" origLeaderSpeed="1.98"/>
    <change id="type1.22" type="foe" time="144.20" from="13_0" to="13_1" dir="1" speed="23.19" pos="154.24" reason="speedGain" leaderGap="128.40" leaderSecureGap="33.22" leaderSpeed="15.17" followerGap="None" followerSecureGap="None" followerSpeed="None" origLeaderGap="242.51" origLeaderSecureGap="57.27" origLeaderSpeed="0.00"/>
    <change id="type1.23" type="foe" time="150.20" from="13_0" to="13_1" dir="1" speed="24.55" pos="158.05" reason="speedGain" leaderGap="125.64" leaderSecureGap="33.71" leaderSpeed="16.26" followerGap="None" followerSecureGap="None" followerSpeed="None" origLeaderGap="241.07" origLeaderSecureGap="61.46" origLeaderSpeed="0.00"/>
    <change id="type1.23" type="foe" time="155.60" from="13_1" to="13_2" dir="1" speed="5.93" pos="250.49" reason="speedGain" leaderGap="36.71" leaderSecureGap="30.80" leaderSpeed="0.00" followerGap="None" followerSecureGap="None" followerSpeed="None" origLeaderGap="49.89" origLeaderSecureGap="30.65" origLeaderSpeed="1.61"/>
    <change id="type1.24" type="foe" time="155.80" from="13_0" to="13_1" dir="1" speed="24.01" pos="149.07" reason="speedGain" leaderGap="126.34" leaderSecureGap="30.48" leaderSpeed="16.08" followerGap="None" followerSecureGap="None" followerSpeed="None" origLeaderGap="248.35" origLeaderSecureGap="57.61" origLeaderSpeed="0.00"/>
    <change id="type1.25" type="foe" time="162.20" from="13_0" to="13_1" dir="1" speed="23.57" pos="150.32" reason="speedGain" leaderGap="131.15" leaderSecureGap="29.66" leaderSpeed="15.80" followerGap="None" followerSecureGap="None" followerSpeed="None" origLeaderGap="246.32" origLeaderSecureGap="55.84" origLeaderSpeed="0.00"/>
    <change id="type1.25" type="foe" time="167.60" from="13_1" to="13_2" dir="1" speed="6.15" pos="243.61" reason="speedGain" leaderGap="37.61" leaderSecureGap="31.63" leaderSpeed="0.00" followerGap="None" followerSecureGap="None" followerSpeed="None" origLeaderGap="51.34" origLeaderSecureGap="31.57" origLeaderSpeed="1.16"/>
    <change id="type1.26" type="foe" time="168.20" from="13_0" to="13_1" dir="1" speed="23.31" pos="148.13" reason="speedGain" leaderGap="124.74" leaderSecureGap="33.47" leaderSpeed="14.32" followerGap="None" followerSecureGap="None" followerSpeed="None" origLeaderGap="248.19" origLeaderSecureGap="54.84" origLeaderSpeed="0.00"/>
    <change id="type1.27" type="foe" time="174.00" from="13_0" to="13_1" dir="1" speed="23.81" pos="152.44" reason="speedGain" leaderGap="117.93" leaderSecureGap="28.87" leaderSpeed="16.31" followerGap="None" followerSecureGap="None" followerSpeed="None" origLeaderGap="244.95" origLeaderSecureGap="56.80" origLeaderSpeed="0.00"/>
    <change id="type1.28" type="foe" time="179.60" from="13_0" to="13_1" dir="1" speed="23.37" pos="143.31" reason="speedGain" leaderGap="122.42" leaderSecureGap="28.07" leaderSpeed="15.99" followerGap="None" followerSecureGap="None" followerSpeed="None" origLeaderGap="252.79" origLeaderSecureGap="54.89" origLeaderSpeed="0.00"/>
    <change id="type1.29" type="foe" time="185.60" from="13_0" to="13_1" dir="1" speed="22.35" pos="137.95" reason="speedGain" leaderGap="123.68" leaderSecureGap="28.11" leaderSpeed="14.90" followerGap="None" followerSecureGap="None" followerSpeed="None" origLeaderGap="256.17" origLeaderSecureGap="51.30" origLeaderSpeed="0.00"/>
    <change id="type1.29" type="foe" time="190.80" from="13_1" to="13_2" dir="1" speed="9.23" pos="229.23" reason="speedGain" leaderGap="49.76" leaderSecureGap="43.59" leaderSpeed="0.00" followerGap="None" followerSecureGap="None" followerSpeed="None" origLeaderGap="50.41" origLeaderSecureGap="43.54" origLeaderSpeed="1.18"/>
    <change id="type1.30" type="foe" time="191.40" from="13_0" to="13_1" dir="1" speed="23.41" pos="141.46" reason="speedGain" leaderGap="113.31" leaderSecureGap="30.71" leaderSpeed="15.35" followerGap="None" followerSecureGap="None" followerSpeed="None" origLeaderGap="254.95" origLeaderSecureGap="55.37" origLeaderSpeed="0.00"/>
    <change id="type1.31" type="foe" time="197.20" from="13_0" to="13_1" dir="1" speed="22.11" pos="133.24" reason="speedGain" leaderGap="121.87" leaderSecureGap="27.16" leaderSpeed="14.96" followerGap="None" followerSecureGap="None" followerSpeed="None" origLeaderGap="260.41" origLeaderSecureGap="50.56" origLeaderSpeed="0.00"/>
    <change id="type1.31" type="foe" time="202.40" from="13_1" to="13_2" dir="1" speed="9.02" pos="223.34" reason="speedGain" leaderGap="48.67" leaderSecureGap="35.26" leaderSpeed="0.00" followerGap="None" followerSecureGap="None" followerSpeed="None" origLeaderGap="49.34" origLeaderSecureGap="35.18" origLeaderSpeed="1.28"/>
    <change id="type1.32" type="foe" time="203.40" from="13_0" to="13_1" dir="1" speed="22.65" pos="135.69" reason="speedGain" leaderGap="117.22" leaderSecureGap="31.09" leaderSpeed="13.71" followerGap="None" followerSecureGap="None" followerSpeed="None" origLeaderGap="258.74" origLeaderSecureGap="50.62" origLeaderSpeed="0.00"/>
    <change id="type1.33" type="foe" time="209.40" from="13_0" to="13_1" dir="1" speed="22.24" pos="134.24" reason="speedGain" leaderGap="117.36" leaderSecureGap="28.48" leaderSpeed="14.16" followerGap="None" followerSecureGap="None" followerSpeed="None" origLeaderGap="259.10" origLeaderSecureGap="49.38" origLeaderSpeed="0.00"/>
    <change id="type1.34" type="foe" time="215.00" from="13_0" to="13_1" dir="1" speed="21.95" pos="127.75" reason="speedGain" leaderGap="113.33" leaderSecureGap="25.40" leaderSpeed="15.03" followerGap="None" followerSecureGap="None" followerSpeed="None" origLeaderGap="265.11" origLeaderSecureGap="49.03" origLeaderSpeed="0.00"/>
    <change id="type1.34" type="foe" time="221.00" from="13_1" to="13_2" dir="1" speed="6.08" pos="219.10" reason="speedGain" leaderGap="38.35" leaderSecureGap="24.49" leaderSpeed="0.00" followerGap="None" followerSecureGap="None" followerSpeed="None" origLeaderGap="33.13" origLeaderSecureGap="24.49" origLeaderSpeed="0.64"/>
    <change id="type1.35" type="foe" time="221.00" from="13_0" to="13_1" dir="1" speed="22.58" pos="133.78" reason="speedGain" leaderGap="108.00" leaderSecureGap="31.97" leaderSpeed="13.61" followerGap="None" followerSecureGap="None" followerSpeed="None" origLeaderGap="260.87" origLeaderSecureGap="51.20" origLeaderSpeed="0.00"/>
    <change id="type1.36" type="foe" time="227.40" from="13_0" to="13_1" dir="1" speed="22.23" pos="132.60" reason="speedGain" leaderGap="116.27" leaderSecureGap="36.73" leaderSpeed="11.45" followerGap="None" followerSecureGap="None" followerSpeed="None" origLeaderGap="261.21" origLeaderSecureGap="50.17" origLeaderSpeed="0.00"/>
    <change id="type1.37" type="foe" time="233.20" from="13_0" to="13_1" dir="1" speed="22.01" pos="131.99" reason="speedGain" leaderGap="105.99" leaderSecureGap="34.46" leaderSpeed="12.69" followerGap="None" followerSecureGap="None" followerSpeed="None" origLeaderGap="261.45" origLeaderSecureGap="51.10" origLeaderSpeed="0.00"/>
    <change id="type1.36" type="foe" time="234.40" from="13_1" to="13_2" dir="1" speed="2.52" pos="218.59" reason="speedGain" leaderGap="22.10" leaderSecureGap="16.45" leaderSpeed="0.00" followerGap="None" followerSecureGap="None" followerSpeed="None" origLeaderGap="17.34" origLeaderSecureGap="16.45" origLeaderSpeed="0.07"/>
    <change id="type1.38" type="foe" time="239.40" from="13_0" to="13_1" dir="1" speed="22.57" pos="134.27" reason="speedGain" leaderGap="107.48" leaderSecureGap="35.74" leaderSpeed="11.93" followerGap="None" followerSecureGap="None" followerSpeed="None" origLeaderGap="260.22" origLeaderSecureGap="50.39" origLeaderSpeed="0.00"/>
    <change id="type1.39" type="foe" time="245.60" from="13_0" to="13_1" dir="1" speed="22.15" pos="134.30" reason="speedGain" leaderGap="105.11" leaderSecureGap="38.54" leaderSpeed="10.18" followerGap="None" followerSecureGap="None" followerSpeed="None" origLeaderGap="258.83" origLeaderSecureGap="49.06" origLeaderSpeed="0.00"/>
    <change id="type1.40" type="foe" time="251.40" from="13_0" to="13_1" dir="1" speed="20.45" pos="136.59" reason="speedGain" leaderGap="95.78" leaderSecureGap="40.47" leaderSpeed="10.36" followerGap="None" followerSecureGap="None" followerSpeed="None" origLeaderGap="256.98" origLeaderSecureGap="51.40" origLeaderSpeed="0.00"/>
    <change id="type1.1" type="foe" time="253.40" from="13_2" to="13_3" dir="1" speed="4.12" pos="342.11" reason="speedGain" leaderGap="10.33" leaderSecureGap="0.00" leaderSpeed="2.26" followerGap="None" followerSecureGap="None" followerSpeed="None" origLeaderGap="2.82" origLeaderSecureGap="0.15" origLeaderSpeed="0.89"/>
    <change id="type1.16" type="foe" time="256.00" from="13_1" to="13_0" dir="-1" speed="2.61" pos="302.63" reason="speedGain" leaderGap="58.54" leaderSecureGap="0.00" leaderSpeed="6.67" followerGap="236.32" followerSecureGap="35.12" followerSpeed="14.18" origLeaderGap="2.66" origLeaderSecureGap="0.10" origLeaderSpeed="0.37"/>
    <change id="type1.9" type="foe" time="256.60" from="13_2" to="13_3" dir="1" speed="3.07" pos="307.93" reason="speedGain" leaderGap="35.94" leaderSecureGap="0.00" leaderSpeed="4.94" followerGap="None" followerSecureGap="None" followerSpeed="None" origLeaderGap="2.70" origLeaderSecureGap="0.12" origLeaderSpeed="0.46"/>
    <change id="type1.18" type="foe" time="256.80" from="13_1" to="13_0" dir="-1" speed="2.74" pos="296.31" reason="speedGain" leaderGap="2.70" leaderSecureGap="0.14" leaderSpeed="0.44" followerGap="217.66" followerSecureGap="42.54" followerSpeed="15.93" origLeaderGap="2.70" origLeaderSecureGap="0.14" origLeaderSpeed="0.44"/>
    <change id="type1.20" type="foe" time="257.40" from="13_1" to="13_0" dir="-1" speed="2.52" pos="289.40" reason="speedGain" leaderGap="2.67" leaderSecureGap="0.11" leaderSpeed="0.37" followerGap="201.02" followerSecureGap="49.15" followerSpeed="17.36" origLeaderGap="2.67" origLeaderSecureGap="0.11" origLeaderSpeed="0.37"/>
    <change id="type1.41" type="foe" time="257.40" from="13_0" to="13_1" dir="1" speed="19.37" pos="136.37" reason="speedGain" leaderGap="94.76" leaderSecureGap="45.02" leaderSpeed="8.39" followerGap="None" followerSecureGap="None" followerSpeed="None" origLeaderGap="193.96" origLeaderSecureGap="52.01" origLeaderSpeed="0.21"/>
    <change id="type1.13" type="foe" time="258.00" from="13_2" to="13_3" dir="1" speed="2.76" pos="294.61" reason="speedGain" leaderGap="9.78" leaderSecureGap="0.11" leaderSpeed="1.08" followerGap="None" followerSecureGap="None" followerSpeed="None" origLeaderGap="2.71" origLeaderSecureGap="0.15" origLeaderSpeed="0.43"/>
    <change id="type1.22" type="foe" time="258.20" from="13_1" to="13_0" dir="-1" speed="2.39" pos="283.04" reason="speedGain" leaderGap="2.70" leaderSecureGap="0.13" leaderSpeed="0.42" followerGap="180.00" followerSecureGap="55.90" followerSpeed="18.74" origLeaderGap="2.70" origLeaderSecureGap="0.13" origLeaderSpeed="0.42"/>
    <change id="type1.24" type="foe" time="258.80" from="13_1" to="13_0" dir="-1" speed="2.32" pos="276.16" reason="speedGain" leaderGap="2.67" leaderSecureGap="0.11" leaderSpeed="0.36" followerGap="161.76" followerSecureGap="62.56" followerSpeed="20.02" origLeaderGap="2.67" origLeaderSecureGap="0.11" origLeaderSpeed="0.36"/>
    <change id="type1.17" type="foe" time="259.20" from="13_2" to="13_3" dir="1" speed="2.48" pos="280.87" reason="speedGain" leaderGap="9.58" leaderSecureGap="0.11" leaderSpeed="0.84" followerGap="None" followerSecureGap="None" followerSpeed="None" origLeaderGap="2.65" origLeaderSecureGap="0.11" origLeaderSpeed="0.30"/>
    <change id="type1.26" type="foe" time="259.60" from="13_1" to="13_0" dir="-1" speed="2.27" pos="269.72" reason="speedGain" leaderGap="2.69" leaderSecureGap="0.14" leaderSpeed="0.39" followerGap="138.56" followerSecureGap="70.70" followerSpeed="21.50" origLeaderGap="2.69" origLeaderSecureGap="0.14" origLeaderSpeed="0.39"/>
    <change id="type1.27" type="foe" time="260.20" from="13_1" to="13_0" dir="-1" speed="2.16" pos="262.92" reason="speedGain" leaderGap="2.66" leaderSecureGap="0.11" leaderSpeed="0.30" followerGap="120.00" followerSecureGap="53.55" followerSpeed="19.37" origLeaderGap="2.66" origLeaderSecureGap="0.11" origLeaderSpeed="0.30"/>
    <change id="type1.21" type="foe" time="260.60" from="13_2" to="13_3" dir="1" speed="2.27" pos="267.74" reason="speedGain" leaderGap="9.55" leaderSecureGap="0.10" leaderSpeed="0.72" followerGap="None" followerSecureGap="None" followerSpeed="None" origLeaderGap="2.65" origLeaderSecureGap="0.10" origLeaderSpeed="0.30"/>
    <change id="type1.28" type="foe" time="261.00" from="13_1" to="13_0" dir="-1" speed="2.12" pos="256.48" reason="speedGain" leaderGap="2.67" leaderSecureGap="0.12" leaderSpeed="0.33" followerGap="99.31" followerSecureGap="40.39" followerSpeed="16.67" origLeaderGap="2.67" origLeaderSecureGap="0.12" origLeaderSpeed="0.33"/>
    <change id="type1.12" type="foe" time="261.20" from="13_1" to="13_0" dir="-1" speed="13.92" pos="371.15" reason="speedGain" leaderGap="84.61" leaderSecureGap="0.00" leaderSpeed="17.45" followerGap="21.34" followerSecureGap="4.13" followerSpeed="7.82" origLeaderGap="10.69" origLeaderSecureGap="7.12" origLeaderSpeed="11.03"/>
    <change id="type1.30" type="foe" time="261.80" from="13_1" to="13_0" dir="-1" speed="2.19" pos="250.09" reason="speedGain" leaderGap="2.69" leaderSecureGap="0.13" leaderSpeed="0.35" followerGap="None" followerSecureGap="None" followerSpeed="None" origLeaderGap="2.69" origLeaderSecureGap="0.13" origLeaderSpeed="0.35"/>
    <change id="type1.10" type="foe" time="262.00" from="13_1" to="13_0" dir="-1" speed="16.43" pos="401.90" reason="speedGain" leaderGap="75.26" leaderSecureGap="0.00" leaderSpeed="19.01" followerGap="11.77" followerSecureGap="7.38" followerSpeed="10.88" origLeaderGap="13.24" origLeaderSecureGap="8.28" origLeaderSpeed="13.72"/>
    <change id="type1.25" type="foe" time="262.20" from="13_2" to="13_3" dir="1" speed="2.60" pos="255.12" reason="speedGain" leaderGap="9.65" leaderSecureGap="0.13" leaderSpeed="0.85" followerGap="None" followerSecureGap="None" followerSpeed="None" origLeaderGap="2.68" origLeaderSecureGap="0.13" origLeaderSpeed="0.35"/>
    <change id="type1.32" type="foe" time="262.40" from="13_1" to="13_0" dir="-1" speed="1.98" pos="243.26" reason="speedGain" leaderGap="2.66" leaderSecureGap="0.11" leaderSpeed="0.29" followerGap="None" followerSecureGap="None" followerSpeed="None" origLeaderGap="2.66" origLeaderSecureGap="0.11" origLeaderSpeed="0.29"/>
    <change id="type1.18" type="foe" time="262.80" from="13_0" to="13_1" dir="1" speed="13.46" pos="345.95" reason="speedGain" leaderGap="22.17" leaderSecureGap="5.95" leaderSpeed="10.84" followerGap="42.10" followerSecureGap="0.00" followerSpeed="3.55" origLeaderGap="10.22" origLeaderSecureGap="6.44" origLeaderSpeed="10.62"/>
    <change id="type1.8" type="foe" time="263.00" from="13_1" to="13_0" dir="-1" speed="20.25" pos="441.94" reason="speedGain" leaderGap="63.41" leaderSecureGap="0.00" leaderSpeed="20.78" followerGap="14.56" followerSecureGap="10.31" followerSpeed="14.19" origLeaderGap="15.95" origLeaderSecureGap="8.62" origLeaderSpeed="17.32"/>
    <change id="type1.33" type="foe" time="263.20" from="13_1" to="13_0" dir="-1" speed="1.98" pos="236.80" reason="speedGain" leaderGap="2.67" leaderSecureGap="0.13" leaderSpeed="0.30" followerGap="None" followerSecureGap="None" followerSpeed="None" origLeaderGap="2.67" origLeaderSecureGap="0.13" origLeaderSpeed="0.30"/>
    <change id="type1.31" type="foe" time="263.60" from="13_2" to="13_3" dir="1" speed="2.34" pos="241.89" reason="speedGain" leaderGap="9.61" leaderSecureGap="0.13" leaderSpeed="0.84" followerGap="None" followerSecureGap="None" followerSpeed="None" origLeaderGap="2.67" origLeaderSecureGap="0.13" origLeaderSpeed="0.31"/>
    <change id="type1.35" type="foe" time="264.00" from="13_1" to="13_0" dir="-1" speed="1.99" pos="230.41" reason="speedGain" leaderGap="2.64" leaderSecureGap="0.10" leaderSpeed="0.25" followerGap="None" followerSecureGap="None" followerSpeed="None" origLeaderGap="2.64" origLeaderSecureGap="0.10" origLeaderSpeed="0.25"/>
    <change id="type1.22" type="foe" time="264.20" from="13_0" to="13_1" dir="1" speed="13.00" pos="330.69" reason="speedGain" leaderGap="25.13" leaderSecureGap="3.19" leaderSpeed="11.64" followerGap="41.42" followerSecureGap="0.00" followerSpeed="3.15" origLeaderGap="10.11" origLeaderSecureGap="6.52" origLeaderSpeed="10.20"/>
    <change id="type1.37" type="foe" time="264.60" from="13_1" to="13_0" dir="-1" speed="1.84" pos="223.55" reason="speedGain" leaderGap="2.65" leaderSecureGap="0.12" leaderSpeed="0.28" followerGap="None" followerSecureGap="None" followerSpeed="None" origLeaderGap="2.65" origLeaderSecureGap="0.12" origLeaderSpeed="0.28"/>