<routes xmlns:xsi="http://www.w3.org/2001/XMLSchema-instance" xsi:noNamespaceSchemaLocation="http://sumo.dlr.de/xsd/routes_file.xsd">
   <flow id="WE" route="WE" begin="0" end="100" vehsPerHour="900" departSpeed="max"/>
</routes>
