<?xml version="1.0" encoding="UTF-8"?>

<!-- generated on 2023-04-17 10:11:13 by Eclipse SUMO netedit Version v1_16_0+2120-e9fed2373cf
-->

<additional xmlns:xsi="http://www.w3.org/2001/XMLSchema-instance" xsi:noNamespaceSchemaLocation="http://sumo.dlr.de/xsd/additional_file.xsd">
    <!-- Detectors -->
    <entryExitDetector id="E3_1" pos="17.50,3.00" period="100.00" file="fileB.txt">
        <detExit lane="center1_1" pos="20.00" friendlyPos="1"/>
        <detEntry lane="center1_1" pos="25.00"/>
        <detExit lane="center0_1" pos="10.00"/>
    </entryExitDetector>
</additional>
