<routes>

	<vehicle id="1" depart="0" route="1" departLane="best"/>
	<vehicle id="2" depart="0" route="1" departLane="best"/>
	<vehicle id="3" depart="0" route="1" departLane="best"/>

</routes>
