<?xml version="1.0" encoding="UTF-8"?>

<!-- generated on 02.05.2018 11:21:09 by Eclipse SUMO netedit Version UNKNOWN
<configuration xmlns:xsi="http://www.w3.org/2001/XMLSchema-instance" xsi:noNamespaceSchemaLocation="http://sumo.dlr.de/xsd/netconvertConfiguration.xsd">

    <input>
        <sumo-net-file value="C:/Users/alva_pa/.texttest/tmp/netedit.gui.02May112056.6756/netedit.gui/basic/save_configuration\input_net.net.xml"/>
    </input>

    <output>
        <additionals-output value="C:/Users/alva_pa/.texttest/tmp/netedit.gui.02May112056.6756/netedit.gui/basic/save_configuration\additionals.xml"/>
        <shapes-output value="C:/Users/alva_pa/.texttest/tmp/netedit.gui.02May112056.6756/netedit.gui/basic/save_configuration\shapes.xml"/>
        <output-file value="C:/Users/alva_pa/.texttest/tmp/netedit.gui.02May112056.6756/netedit.gui/basic/save_configuration\net.net.xml"/>
        <plain-output-prefix value="C:\Users\alva_pa\.texttest\tmp\netedit.gui.02May112056.6756\netedit.gui\basic\save_configuration\net"/>
    </output>

    <processing>
        <no-internal-links value="false"/>
        <no-turnarounds value="true"/>
        <offset.disable-normalization value="true"/>
        <lefthand value="false"/>
        <junctions.corner-detail value="0"/>
        <rectangular-lane-cut value="false"/>
        <walkingareas value="false"/>
    </processing>

    <visualisation>
        <gui-settings-file value="C:/Users/alva_pa/.texttest/tmp/netedit.gui.02May112056.6756/netedit.gui/basic/save_configuration\gui-settings.xml"/>
        <window-size value="700,500"/>
        <window-pos value="50,50"/>
        <gui-testing value="true"/>
        <gui-testing-debug value="true"/>
    </visualisation>

    <report>
        <no-warnings value="true"/>
        <error-log value="C:/Users/alva_pa/.texttest/tmp/netedit.gui.02May112056.6756/netedit.gui/basic/save_configuration\log.txt"/>
    </report>

</configuration>
-->

<tlLogics version="0.27" xmlns:xsi="http://www.w3.org/2001/XMLSchema-instance" xsi:noNamespaceSchemaLocation="http://sumo.dlr.de/xsd/tllogic_file.xsd">
    <tlLogic id="Center" type="static" programID="0" offset="0">
        <phase duration="28" state="gGGggrrrrrgGGggrrrrrGG"/>
        <phase duration="5"  state="gGGggrrrrrgGGggrrrrrrr"/>
        <phase duration="3"  state="yyyggrrrrryyyggrrrrrrr"/>
        <phase duration="6"  state="rrrGGrrrrrrrrGGrrrrrrr"/>
        <phase duration="3"  state="rrryyrrrrrrrryyrrrrrrr"/>
        <phase duration="33" state="rrrrrGGGggrrrrrGGGggrr"/>
        <phase duration="3"  state="rrrrryyyggrrrrryyyggrr"/>
        <phase duration="6"  state="rrrrrrrrGGrrrrrrrrGGrr"/>
        <phase duration="3"  state="rrrrrrrryyrrrrrrrryyrr"/>
    </tlLogic>

    <connection from="5" to="4" fromLane="0" toLane="0" tl="Center" linkIndex="10"/>
    <connection from="5" to="2" fromLane="0" toLane="0" tl="Center" linkIndex="11"/>
    <connection from="5" to="2" fromLane="1" toLane="1" tl="Center" linkIndex="12"/>
    <connection from="5" to="3" fromLane="1" toLane="1" tl="Center" linkIndex="13"/>
    <connection from="5" to="1" fromLane="1" toLane="1" tl="Center" linkIndex="14"/>
    <connection from="6" to="3" fromLane="0" toLane="0" tl="Center" linkIndex="0"/>
    <connection from="6" to="1" fromLane="0" toLane="0" tl="Center" linkIndex="1"/>
    <connection from="6" to="1" fromLane="1" toLane="1" tl="Center" linkIndex="2"/>
    <connection from="6" to="4" fromLane="1" toLane="1" tl="Center" linkIndex="3"/>
    <connection from="6" to="2" fromLane="1" toLane="1" tl="Center" linkIndex="4"/>
    <connection from="7" to="1" fromLane="0" toLane="0" tl="Center" linkIndex="15"/>
    <connection from="7" to="4" fromLane="0" toLane="0" tl="Center" linkIndex="16"/>
    <connection from="7" to="4" fromLane="1" toLane="1" tl="Center" linkIndex="17"/>
    <connection from="7" to="2" fromLane="1" toLane="1" tl="Center" linkIndex="18"/>
    <connection from="7" to="3" fromLane="1" toLane="1" tl="Center" linkIndex="19"/>
    <connection from="8" to="2" fromLane="0" toLane="0" tl="Center" linkIndex="5"/>
    <connection from="8" to="3" fromLane="0" toLane="0" tl="Center" linkIndex="6"/>
    <connection from="8" to="3" fromLane="1" toLane="1" tl="Center" linkIndex="7"/>
    <connection from="8" to="1" fromLane="1" toLane="1" tl="Center" linkIndex="8"/>
    <connection from="8" to="4" fromLane="1" toLane="1" tl="Center" linkIndex="9"/>
</tlLogics>
