<?xml version="1.0"?>

<!-- generated on 03/18/10 14:23:48 by SUMO duarouter Version dev-SVN-r8460
<configuration>

    <input>
        <net-file value="input_net.net.xml"/>
        <sumo-input value="input_routes.rou.xml"/>
    </input>

    <output>
        <output-file value="routes.rou.xml"/>
    </output>

</configuration>
-->

<route-alternatives>
    <vehicle id="0" type="0" depart="0.00">
        <routeDistribution last="0">
            <route cost="125.11" probability="1.00" edges="beg middle end rend"/>
        </routeDistribution>
    </vehicle>
    <vehicle id="1" type="0" depart="0.00">
        <routeDistribution last="0">
            <route cost="125.11" probability="1.00" edges="beg middle end rend"/>
        </routeDistribution>
    </vehicle>
    <vehicle id="2" type="0" depart="0.00">
        <routeDistribution last="0">
            <route cost="125.11" probability="1.00" edges="beg middle end rend"/>
        </routeDistribution>
    </vehicle>
    <vehicle id="3" type="0" depart="0.00">
        <routeDistribution last="0">
            <route cost="125.11" probability="1.00" edges="beg middle end rend"/>
        </routeDistribution>
    </vehicle>
    <vehicle id="4" type="0" depart="0.00">
        <routeDistribution last="0">
            <route cost="125.11" probability="1.00" edges="beg middle end rend"/>
        </routeDistribution>
    </vehicle>
    <vehicle id="5" type="0" depart="0.00">
        <routeDistribution last="0">
            <route cost="125.11" probability="1.00" edges="beg middle end rend"/>
        </routeDistribution>
    </vehicle>
    <vehicle id="6" type="0" depart="0.00">
        <routeDistribution last="0">
            <route cost="125.11" probability="1.00" edges="beg middle end rend"/>
        </routeDistribution>
    </vehicle>
    <vehicle id="7" type="0" depart="0.00">
        <routeDistribution last="0">
            <route cost="125.11" probability="1.00" edges="beg middle end rend"/>
        </routeDistribution>
    </vehicle>
    <vehicle id="8" type="0" depart="0.00">
        <routeDistribution last="0">
            <route cost="125.11" probability="1.00" edges="beg middle end rend"/>
        </routeDistribution>
    </vehicle>
    <vehicle id="9" type="0" depart="0.00">
        <routeDistribution last="0">
            <route cost="125.11" probability="1.00" edges="beg middle end rend"/>
        </routeDistribution>
    </vehicle>
</route-alternatives>
