<routes xmlns:xsi="http://www.w3.org/2001/XMLSchema-instance" xsi:noNamespaceSchemaLocation="http://sumo-sim.org/xsd/routes_file.xsd">
   <vehicle id="0" type="0" depart="0">
      <route edges="beg middle end rend"/>
   </vehicle>

   <vehicle id="1" type="0" depart="0">
      <route edges="beg middle end rend"/>
   </vehicle>

   <vehicle id="2" type="0" depart="0">
      <route edges="beg middle end rend"/>
   </vehicle>

   <vehicle id="3" type="0" depart="0">
      <route edges="beg middle end rend"/>
   </vehicle>

   <vehicle id="4" type="0" depart="0">
      <route edges="beg middle end rend"/>
   </vehicle>

   <vehicle id="5" type="0" depart="0">
      <route edges="beg middle end rend"/>
   </vehicle>

   <vehicle id="6" type="0" depart="0">
      <route edges="beg middle end rend"/>
   </vehicle>

   <vehicle id="7" type="0" depart="0">
      <route edges="beg middle end rend"/>
   </vehicle>

   <vehicle id="8" type="0" depart="0">
      <route edges="beg middle end rend"/>
   </vehicle>

   <vehicle id="9" type="0" depart="0">
      <route edges="beg middle end rend"/>
   </vehicle>

</routes>
