<?xml version="1.0" encoding="UTF-8"?>

<!-- generated on 2023-08-03 11:58:12 by Eclipse SUMO netedit Version v1_18_0+0717-95f64992128
-->

<additional xmlns:xsi="http://www.w3.org/2001/XMLSchema-instance" xsi:noNamespaceSchemaLocation="http://sumo.dlr.de/xsd/additional_file.xsd">
    <!-- JuPedSim elements -->
    <poi id="jps.waypoint_0" type="jupedsim.waypoint" color="cyan" layer="4.00" name="customName" x="-4.00" y="10.00" width="0.00" height="0.00">
        <param key="keyA1" value="valueA1"/>
        <param key="keyA2" value="valueA2"/>
        <param key="keyA3" value="valueA3"/>
    </poi>
    <poi id="jps.waypoint_1" type="jupedsim.waypoint" color="cyan" layer="4.00" name="customName" x="4.00" y="10.00" width="0.00" height="0.00">
        <param key="keyB1" value="valueB1"/>
        <param key="keyB2" value="valueB2"/>
        <param key="keyB3" value="valueB3"/>
    </poi>
</additional>
