<routes>
    <vType id="DEFAULT_VEHTYPE" speedFactor="normc(2.5,0.5,1,3)"/>
    <route id="r0" edges="beg middle end"/>
    <flow id="right" color="red" route="r0" begin="0" end="1000" period="exp(0.3)" departLane="0" departSpeed="avg"/>
    <flow id="left" color="blue" route="r0" begin="0" end="1000" period="exp(0.3)" departLane="1" departSpeed="avg"/>
</routes>
