<?xml version="1.0" encoding="UTF-8"?>

<!-- generated on 2023-03-02 08:13:22 by Eclipse SUMO netedit Version v1_16_0+0877-a4743b5
-->

<additional xmlns:xsi="http://www.w3.org/2001/XMLSchema-instance" xsi:noNamespaceSchemaLocation="http://sumo.dlr.de/xsd/additional_file.xsd">
</additional>
