<routes>
    <vType id="loaded" vClass="trailer" sigma="0" containerCapacity="1" length="13.5"/>

    <trip id="veh0" depart="0" type="orig">
        <stop containerStop="ct_0" triggered="container"/>
        <stop containerStop="ct_1" duration="1"/>
    </trip>

    <container id="c0" depart="0">
        <stop containerStop="ct_0" duration="0"/>
        <transport containerStop="ct_1"/>
        <param key="has.fcd.device" value="false"/>
    </container>

</routes>
