<routes xmlns:xsi="http://www.w3.org/2001/XMLSchema-instance" xsi:noNamespaceSchemaLocation="http://sumo.dlr.de/xsd/routes_file.xsd">
	<vType id="DEFAULT_VEHTYPE" accel="2.6" decel="4.5" sigma="0" length="3" minGap="2" maxSpeed="70"/>

    <route id="r0" edges="beg beg2left left left2end end rend"/>
    <vehicle id="veh0" depart="0" route="r0"/>

</routes>
