<routes xmlns:xsi="http://www.w3.org/2001/XMLSchema-instance" xsi:noNamespaceSchemaLocation="http://sumo.dlr.de/xsd/routes_file.xsd">
	<vType id="bike_bicycle" vClass="bicycle"
        carFollowModel="IDM"
        speedDev="0.1"
		speedFactor="1.2"
	    latAlignment="right" 
	    lcStrategic="0.5" 
        jmCrossingGap="5"
        jmSigmaMinor="0.0" 
	    jmStoplineGap="0.5" 
        lcOvertakeRight="0.5"
	    lcOvertakeDeltaSpeedFactor="0.2"/> 
    <vType id="ped_pedestrian" vClass="pedestrian"
        speedDev="0.1"
		speedFactor="1.2"/>
    <vehicle id="bike11" type="bike_bicycle" depart="133.10" departLane="0" departPos="31.15" departPosLat="-0.67" departSpeed="4.35">
        <route edges="a b"/>
    </vehicle>		
    <person id="ped13" type="ped_pedestrian" depart="134.00" departPos="40.97">
        <walk edges="a b"/>
    </person>
</routes>