<?xml version="1.0" encoding="UTF-8"?>

<!-- generated on 2024-08-26 14:28:53 by Eclipse SUMO sumo Version v1_20_0+1714-5abd9d647c6
<sumoConfiguration xmlns:xsi="http://www.w3.org/2001/XMLSchema-instance" xsi:noNamespaceSchemaLocation="http://sumo.dlr.de/xsd/sumoConfiguration.xsd">

    <input>
        <net-file value="net.net.xml"/>
        <additional-files value="input_routes.rou.xml"/>
    </input>

    <output>
        <save-state.times value="25"/>
        <save-state.files value="state.xml"/>
    </output>

    <processing>
        <default.speeddev value="0"/>
    </processing>

    <report>
        <verbose value="true"/>
        <duration-log.disable value="true"/>
        <no-step-log value="true"/>
    </report>

    <mesoscopic>
        <mesosim value="true"/>
    </mesoscopic>

</sumoConfiguration>
-->

<snapshot xmlns:xsi="http://www.w3.org/2001/XMLSchema-instance" xsi:noNamespaceSchemaLocation="http://sumo.dlr.de/xsd/state_file.xsd" version="v1_20_0+1714-5abd9d647c6" time="25.00" type="meso">
    <route id="!v0!var#1" state="0" edges="beg middle end"/>
    <delay number="1" begin="1" end="0" depart="0.00" time="0.00"/>
    <vType id="t0" sigma="0"/>
    <vehicle id="v0" type="t0" depart="0.00" route="!v0!var#1" distance="207 1" speedFactor="1.0000" reroute="1" state="262146 0 2 0 0 0 28597 21398 9223372036854774807">
        <device id="routing_v0" state="0"/>
    </vehicle>
    <segment id="beg:0">
        <vehicles time="15630" value=""/>
    </segment>
    <segment id="end:0">
        <vehicles time="-1" value="v0"/>
    </segment>
    <segment id="middle:0">
        <vehicles time="15868" value=""/>
    </segment>
    <segment id="middle:1">
        <vehicles time="23067" value=""/>
    </segment>
</snapshot>
