<?xml version="1.0" encoding="UTF-8"?>

<!-- generated on 2022-03-29 15:43:04 by Eclipse SUMO sumo Version v1_12_0+1743-2adbd7c
<configuration xmlns:xsi="http://www.w3.org/2001/XMLSchema-instance" xsi:noNamespaceSchemaLocation="http://sumo.dlr.de/xsd/sumoConfiguration.xsd">

    <input>
        <net-file value="net.net.xml"/>
        <additional-files value="input_routes.rou.xml"/>
    </input>

    <output>
        <save-state.times value="25"/>
        <save-state.files value="state.xml"/>
    </output>

    <processing>
        <default.speeddev value="0"/>
    </processing>

    <report>
        <verbose value="true"/>
        <duration-log.disable value="true"/>
        <no-step-log value="true"/>
    </report>

</configuration>
-->

<snapshot xmlns:xsi="http://www.w3.org/2001/XMLSchema-instance" xsi:noNamespaceSchemaLocation="http://sumo.dlr.de/xsd/state_file.xsd" version="v1_12_0+1743-2adbd7c" time="25.00" type="micro">
    <route id="!v0!var#1" state="0" edges="beg middle end"/>
    <delay number="1" begin="1" end="0" depart="0.00" time="0.00"/>
    <vType id="t0" sigma="0"/>
    <vehicle id="v0" type="t0" depart="0.00" route="!v0!var#1" distance="207 1" speedFactor="1.0000" reroute="1" state="262146 0 2 5.10 0 2.77 24000 0 0" pos="80.12 75.12 13.89" speed="13.89 13.89" angle="90.00" posLat="0.00" waitingTime="100000 0">
        <device id="routing_v0" state="0"/>
    </vehicle>
    <lane id="end_0">
        <vehicles value="v0"/>
    </lane>
</snapshot>
