<?xml version="1.0" encoding="UTF-8"?>

<!-- generated on 2022-03-04 10:26:44 by Eclipse SUMO netedit Version v1_12_0+1137-e9106068858
-->

<additional xmlns:xsi="http://www.w3.org/2001/XMLSchema-instance" xsi:noNamespaceSchemaLocation="http://sumo.dlr.de/xsd/additional_file.xsd">
    <!-- StoppingPlaces -->
    <parkingArea id="pa_0" lane="gneE2_0" startPos="15.00" endPos="25.00">
        <space x="15.00" y="5.00">
            <param key="keyFinal1" value="value1"/>
            <param key="keyFinal2" value="value2"/>
            <param key="keyFinal3" value="value3"/>
        </space>
    </parkingArea>
</additional>
