<?xml version="1.0" encoding="UTF-8"?>

<!-- generated on 08/05/2017 16:51:19 by Netedit Version dev-SVN-r22880
This data file and the accompanying materials
are made available under the terms of the Eclipse Public License v2.0
which accompanies this distribution, and is available at
http://www.eclipse.org/legal/epl-v20.html
SPDX-License-Identifier: EPL-2.0
<configuration xmlns:xsi="http://www.w3.org/2001/XMLSchema-instance" xsi:noNamespaceSchemaLocation="http://sumo.dlr.de/xsd/netconvertConfiguration.xsd">

    <input>
        <sumo-net-file value="C:\Proyectos\Sumo_Trunk\tests\netedit\netElements\crossings\load_big\input_net.net.xml"/>
    </input>

    <output>
        <output-file value="C:\Proyectos\Sumo_Trunk\tests\netedit\netElements\crossings\load_big\input_net.net.xml"/>
        <plain-output-prefix value="C:\Proyectos\Sumo_Trunk\tests\netedit\netElements\crossings\load_big\input_net"/>
        <output.street-names value="true"/>
    </output>

    <processing>
        <no-internal-links value="false"/>
        <no-turnarounds value="true"/>
        <offset.disable-normalization value="true"/>
        <lefthand value="false"/>
        <junctions.corner-detail value="0"/>
        <rectangular-lane-cut value="false"/>
    </processing>

</configuration>
-->

<edges version="0.27" xmlns:xsi="http://www.w3.org/2001/XMLSchema-instance" xsi:noNamespaceSchemaLocation="http://sumo.dlr.de/xsd/edges_file.xsd">
    <edge id="-100944802#0" from="1166137172" to="1166137168" name="Alexanderstraße" priority="2" type="highway.service" numLanes="1" speed="8.33" shape="3952.93,2519.47 4087.13,2416.63 4062.24,2385.42" allow="delivery bicycle pedestrian"/>
    <edge id="-100944802#1" from="1273546310" to="1166137172" name="Alexanderstraße" priority="2" type="highway.service" numLanes="1" speed="8.33" allow="delivery bicycle pedestrian"/>
    <edge id="-102408133#0" from="1182601208" to="1182601207" priority="2" type="highway.service" numLanes="1" speed="5.56" shape="3918.43,1727.16 3906.38,1723.96 3890.74,1730.35 3879.07,1734.12 3861.91,1733.52" allow="delivery bicycle pedestrian"/>
    <edge id="-102408133#1" from="538591159" to="1182601208" priority="2" type="highway.service" numLanes="1" speed="5.56" shape="3911.32,1779.74 3917.77,1769.04 3924.31,1759.69 3929.95,1750.85 3928.72,1743.04 3918.43,1727.16" allow="delivery bicycle pedestrian"/>
    <edge id="-104567844" from="1206481791" to="1206481808" priority="2" type="highway.service" numLanes="1" speed="5.56" shape="2251.73,1631.50 2242.49,1638.95 2217.41,1636.92 2208.22,1627.67" allow="delivery bicycle pedestrian"/>
    <edge id="-104991251" from="1210473819" to="1210473765" priority="2" type="highway.service" numLanes="1" speed="5.56" shape="2541.89,2527.02 2537.57,2514.81 2533.36,2504.09" allow="delivery bicycle pedestrian"/>
    <edge id="-105742454" from="1474045672" to="1217651538" priority="2" type="highway.service" numLanes="1" speed="5.56" shape="2793.87,2293.16 2701.50,2218.74 2685.15,2239.21 2661.98,2221.70 2654.51,2216.09" allow="delivery bicycle pedestrian"/>
    <edge id="-109819106#0" from="196746683" to="98978100" name="Rosa-Luxemburg-Straße" priority="6" type="highway.tertiary" numLanes="2" speed="8.33" shape="3751.44,2946.10 3737.63,2987.69 3722.21,3030.68 3720.60,3041.59">
        <lane index="0" allow="pedestrian" width="3.00"/>
        <lane index="1" disallow="tram rail_urban rail rail_electric pedestrian ship"/>
    </edge>
    <edge id="-109819106#1" from="29221535" to="196746683" name="Rosa-Luxemburg-Straße" priority="6" type="highway.tertiary" numLanes="2" speed="8.33" shape="3802.71,2757.01 3780.58,2839.66 3766.68,2890.47 3759.67,2915.70 3751.44,2946.10">
        <lane index="0" allow="pedestrian" width="3.00"/>
        <lane index="1" disallow="tram rail_urban rail rail_electric pedestrian ship"/>
    </edge>
    <edge id="-109819106#2" from="29221562" to="29221535" name="Rosa-Luxemburg-Straße" priority="6" type="highway.tertiary" numLanes="2" speed="8.33">
        <lane index="0" allow="pedestrian" width="3.00"/>
        <lane index="1" disallow="tram rail_urban rail rail_electric pedestrian ship"/>
    </edge>
    <edge id="-109819340" from="1256247780" to="3129452762" name="Bernhard-Weiß-Straße" priority="4" type="highway.residential" numLanes="2" speed="8.33">
        <lane index="0" allow="pedestrian" width="2.00"/>
        <lane index="1" disallow="tram rail_urban rail rail_electric pedestrian ship"/>
    </edge>
    <edge id="-109902441#0" from="262480689" to="25661963" name="Mauerstraße" priority="4" type="highway.residential" numLanes="2" speed="8.33">
        <lane index="0" allow="pedestrian" width="2.00"/>
        <lane index="1" disallow="tram rail_urban rail rail_electric pedestrian ship"/>
    </edge>
    <edge id="-109902441#1" from="545110995" to="262480689" name="Mauerstraße" priority="4" type="highway.residential" numLanes="2" speed="8.33" shape="2048.57,1239.68 2035.19,1268.96 2019.98,1313.85 1993.69,1408.82">
        <lane index="0" allow="pedestrian" width="2.00"/>
        <lane index="1" disallow="tram rail_urban rail rail_electric pedestrian ship"/>
    </edge>
    <edge id="-110464118#0" from="29221592" to="1261425424" name="Keibelstraße" priority="4" type="highway.residential" numLanes="2" speed="8.33">
        <lane index="0" allow="pedestrian" width="2.00"/>
        <lane index="1" disallow="tram rail_urban rail rail_electric pedestrian ship"/>
    </edge>
    <edge id="-110464118#1" from="2812934357" to="29221592" name="Keibelstraße" priority="4" type="highway.residential" numLanes="2" speed="8.33" shape="4133.20,2511.21 4099.48,2465.95 4032.68,2515.48">
        <lane index="0" allow="pedestrian" width="2.00"/>
        <lane index="1" disallow="tram rail_urban rail rail_electric pedestrian ship"/>
    </edge>
    <edge id="-110464119" from="cluster_266540882_614483613" to="1261425423" name="Alex-Wedding-Straße" priority="4" type="highway.residential" numLanes="2" speed="8.33" shape="3957.02,2646.04 4022.05,2597.26 4089.72,2687.05">
        <lane index="0" allow="pedestrian" width="2.00"/>
        <lane index="1" disallow="tram rail_urban rail rail_electric pedestrian ship"/>
    </edge>
    <edge id="-110676319" from="29207420" to="1263312256" name="Unter den Linden" priority="9" type="highway.primary" numLanes="3" speed="13.89">
        <lane index="0" allow="pedestrian" width="3.00"/>
        <lane index="1" disallow="tram rail_urban rail rail_electric pedestrian ship"/>
        <lane index="2" disallow="tram rail_urban rail rail_electric pedestrian ship"/>
    </edge>
    <edge id="-111251382#0" from="303436603" to="cluster_21487161_51965322" name="Reinhardtstraße" priority="6" type="highway.tertiary" numLanes="2" speed="13.89" shape="2172.25,2544.66 2193.12,2549.69">
        <lane index="0" allow="pedestrian" width="3.00"/>
        <lane index="1" disallow="tram rail_urban rail rail_electric pedestrian ship"/>
    </edge>
    <edge id="-111251382#1" from="1447185681" to="303436603" name="Reinhardtstraße" priority="6" type="highway.tertiary" numLanes="2" speed="13.89">
        <lane index="0" allow="pedestrian" width="3.00"/>
        <lane index="1" disallow="tram rail_urban rail rail_electric pedestrian ship"/>
    </edge>
    <edge id="-111833186#0" from="3343070503" to="2959830775" name="Mittelstraße" priority="4" type="highway.residential" numLanes="2" speed="8.33">
        <lane index="0" allow="pedestrian" width="2.00"/>
        <lane index="1" disallow="tram rail_urban rail rail_electric pedestrian ship"/>
    </edge>
    <edge id="-111833186#1" from="1702616130" to="3343070503" name="Mittelstraße" priority="4" type="highway.residential" numLanes="2" speed="8.33" shape="1919.64,1869.65 1975.37,1874.37 2025.92,1878.29">
        <lane index="0" allow="pedestrian" width="2.00"/>
        <lane index="1" disallow="tram rail_urban rail rail_electric pedestrian ship"/>
    </edge>
    <edge id="-112128825#0" from="29221565" to="1275477851" name="Kleine Alexanderstraße" priority="4" type="highway.residential" numLanes="2" speed="8.33">
        <lane index="0" allow="pedestrian" width="2.00"/>
        <lane index="1" disallow="tram rail_urban rail rail_electric pedestrian ship"/>
    </edge>
    <edge id="-112128825#1" from="29221605" to="29221565" name="Kleine Alexanderstraße" priority="4" type="highway.residential" numLanes="2" speed="8.33">
        <lane index="0" allow="pedestrian" width="2.00"/>
        <lane index="1" disallow="tram rail_urban rail rail_electric pedestrian ship"/>
    </edge>
    <edge id="-11483007" from="25664649" to="cluster_25664680_577258918" name="Friedrichstraße" priority="7" type="highway.secondary" numLanes="3" speed="13.89" shape="2248.76,1897.86 2245.00,1969.85">
        <lane index="0" allow="pedestrian" width="3.00"/>
        <lane index="1" disallow="tram rail_urban rail rail_electric pedestrian ship"/>
        <lane index="2" disallow="tram rail_urban rail rail_electric pedestrian ship"/>
    </edge>
    <edge id="-120675240#0" from="31156706" to="262479941" name="Schloßplatz" priority="6" type="cycleway.lane|highway.tertiary" numLanes="7" speed="8.33" shape="3019.37,1645.87 3057.41,1672.32 3063.57,1675.02 3068.86,1675.34 3076.36,1672.93 3092.69,1650.45 3099.33,1648.75 3106.53,1649.97 3179.49,1699.01">
        <lane index="0" allow="pedestrian" width="3.00"/>
        <lane index="1" allow="bicycle" width="1.00"/>
        <lane index="2" disallow="all" width="3.00"/>
        <lane index="3" disallow="all" width="1.00"/>
        <lane index="4" disallow="all" width="3.00"/>
        <lane index="5" disallow="all" width="1.00"/>
        <lane index="6" disallow="tram rail_urban rail rail_electric bicycle pedestrian ship"/>
    </edge>
    <edge id="-120675240#1" from="29207424" to="31156706" name="Schloßplatz" priority="6" type="cycleway.lane|highway.tertiary" numLanes="7" speed="8.33">
        <lane index="0" allow="pedestrian" width="3.00"/>
        <lane index="1" allow="bicycle" width="1.00"/>
        <lane index="2" disallow="all" width="3.00"/>
        <lane index="3" disallow="all" width="1.00"/>
        <lane index="4" disallow="all" width="3.00"/>
        <lane index="5" disallow="all" width="1.00"/>
        <lane index="6" disallow="tram rail_urban rail rail_electric bicycle pedestrian ship"/>
    </edge>
    <edge id="-122820534#0" from="2057354702" to="538718617" name="Hegelplatz" priority="4" type="highway.residential" numLanes="2" speed="8.33" shape="2591.99,2050.89 2589.69,2079.45 2591.99,2082.14">
        <lane index="0" allow="pedestrian" width="2.00"/>
        <lane index="1" disallow="tram rail_urban rail rail_electric pedestrian ship"/>
    </edge>
    <edge id="-122820534#1" from="29192958" to="2057354702" name="Hegelplatz" priority="4" type="highway.residential" numLanes="2" speed="8.33" shape="2593.87,2022.62 2592.60,2043.62 2591.99,2050.89">
        <lane index="0" allow="pedestrian" width="2.00"/>
        <lane index="1" disallow="tram rail_urban rail rail_electric pedestrian ship"/>
    </edge>
    <edge id="-123264594" from="1375229139" to="1375229151" priority="2" type="highway.service" numLanes="1" speed="5.56" shape="1903.54,2567.14 1909.37,2569.23 1947.51,2582.98 1949.92,2583.85" allow="delivery bicycle pedestrian"/>
    <edge id="-128396189#0" from="266540970" to="cluster_1419121876_3148263650_3157319029" name="Gustav-Böß-Straße" priority="4" type="highway.residential" numLanes="2" speed="8.33" shape="3660.58,1877.72 3677.90,1891.15">
        <lane index="0" allow="pedestrian" width="2.00"/>
        <lane index="1" disallow="tram rail_urban rail rail_electric pedestrian ship"/>
    </edge>
    <edge id="-128396189#1" from="266540986" to="266540970" name="Gustav-Böß-Straße" priority="4" type="highway.residential" numLanes="2" speed="8.33">
        <lane index="0" allow="pedestrian" width="2.00"/>
        <lane index="1" disallow="tram rail_urban rail rail_electric pedestrian ship"/>
    </edge>
    <edge id="-128396189#2" from="31154724" to="266540986" name="Gustav-Böß-Straße" priority="4" type="highway.residential" numLanes="2" speed="8.33">
        <lane index="0" allow="pedestrian" width="2.00"/>
        <lane index="1" disallow="tram rail_urban rail rail_electric pedestrian ship"/>
    </edge>
    <edge id="-128396190#1" from="cluster_1419121876_3148263650_3157319029" to="cluster_21582728_3183994307" name="Jüdenstraße" priority="4" type="highway.residential" numLanes="2" speed="8.33" shape="3679.38,1889.20 3694.09,1869.78">
        <lane index="0" allow="pedestrian" width="2.00"/>
        <lane index="1" disallow="tram rail_urban rail rail_electric pedestrian ship"/>
    </edge>
    <edge id="-128396190#4" from="196761871" to="cluster_1419121876_3148263650_3157319029" name="Jüdenstraße" priority="4" type="highway.residential" numLanes="2" speed="8.33" shape="3618.82,1967.63 3620.99,1964.77 3675.77,1893.92">
        <lane index="0" allow="pedestrian" width="2.00"/>
        <lane index="1" disallow="tram rail_urban rail rail_electric pedestrian ship"/>
    </edge>
    <edge id="-128488713" from="1419864018" to="1419863760" priority="2" type="highway.service" numLanes="1" speed="5.56" shape="1822.21,2673.70 1826.40,2655.79 1824.98,2652.68 1788.93,2630.02 1701.46,2609.67 1666.69,2589.10 1654.93,2588.25" allow="delivery bicycle pedestrian"/>
    <edge id="-131330590" from="1445622308" to="1445622300" priority="2" type="highway.service" numLanes="1" speed="5.56" shape="1928.31,2583.69 1906.84,2576.18 1901.05,2574.14" allow="delivery bicycle pedestrian"/>
    <edge id="-131420077#0" from="303436848" to="303436603" priority="2" type="highway.service" numLanes="1" speed="5.56" shape="2054.00,2629.34 2067.97,2620.05 2146.79,2567.64 2153.74,2562.42 2162.83,2553.70 2172.25,2544.66" allow="delivery bicycle pedestrian"/>
    <edge id="-131505631#0" from="3139370875" to="1447185662" name="Am Zirkus" priority="4" type="highway.residential" numLanes="2" speed="8.33">
        <lane index="0" allow="pedestrian" width="2.00"/>
        <lane index="1" disallow="tram rail_urban rail rail_electric pedestrian ship"/>
    </edge>
    <edge id="-131505631#1" from="1447185663" to="3139370875" name="Am Zirkus" priority="4" type="highway.residential" numLanes="2" speed="8.33">
        <lane index="0" allow="pedestrian" width="2.00"/>
        <lane index="1" disallow="tram rail_urban rail rail_electric pedestrian ship"/>
    </edge>
    <edge id="-131945940" from="540698418" to="540698417" name="Am Krögel" priority="2" type="highway.service" numLanes="1" speed="8.33" shape="3717.70,1547.72 3665.11,1557.73 3656.01,1559.38" allow="delivery bicycle pedestrian"/>
    <edge id="-132460631#0" from="1457124739" to="1449754450" priority="2" type="highway.service" numLanes="1" speed="5.56" allow="delivery bicycle pedestrian"/>
    <edge id="-132460631#1" from="1457124706" to="1457124739" priority="2" type="highway.service" numLanes="1" speed="5.56" allow="delivery bicycle pedestrian"/>
    <edge id="-132460632#0" from="1449754450" to="538717882" priority="2" type="highway.service" numLanes="1" speed="5.56" shape="2740.03,2012.56 2731.46,2042.19 2729.52,2049.84" allow="delivery bicycle pedestrian"/>
    <edge id="-132460632#1" from="1457124764" to="1449754450" priority="2" type="highway.service" numLanes="1" speed="5.56" allow="delivery bicycle pedestrian"/>
    <edge id="-132600840#0" from="450169259" to="25664713" name="Schadowstraße" priority="4" type="highway.residential" numLanes="2" speed="13.89">
        <lane index="0" allow="pedestrian" width="2.00"/>
        <lane index="1" disallow="tram rail_urban rail rail_electric pedestrian ship"/>
    </edge>
    <edge id="-132600840#1" from="25664742" to="450169259" name="Schadowstraße" priority="4" type="highway.residential" numLanes="2" speed="13.89">
        <lane index="0" allow="pedestrian" width="2.00"/>
        <lane index="1" disallow="tram rail_urban rail rail_electric pedestrian ship"/>
    </edge>
    <edge id="-133885742" from="1473258656" to="1473258660" priority="2" type="highway.service" numLanes="1" speed="5.56" shape="2938.08,2085.90 2932.49,2093.19 2930.26,2096.17" allow="delivery bicycle pedestrian"/>
    <edge id="-133885743#0" from="2385462329" to="cluster_1473258747_1474045662" priority="2" type="highway.service" numLanes="1" speed="5.56" shape="2939.17,2156.65 2959.41,2172.47" allow="delivery bicycle pedestrian"/>
    <edge id="-133885743#1" from="cluster_1473258683_1474045661" to="2385462329" priority="2" type="highway.service" numLanes="1" speed="5.56" shape="2922.54,2144.10 2939.17,2156.65" allow="delivery bicycle pedestrian"/>
    <edge id="-133885744#0" from="1473258678" to="1473258664" priority="2" type="highway.service" numLanes="1" speed="5.56" shape="2988.34,2134.31 2990.53,2131.42 2991.39,2130.29 2997.15,2122.75" allow="delivery bicycle pedestrian"/>
    <edge id="-133885745#0" from="1473258660" to="cluster_1473258683_1474045661" priority="2" type="highway.service" numLanes="1" speed="5.56" shape="2930.26,2096.17 2927.92,2099.29 2927.23,2100.21 2904.53,2130.25 2919.09,2141.45" allow="delivery bicycle pedestrian"/>
    <edge id="-133885749#0" from="cluster_1473258747_1474045662" to="1473258678" priority="2" type="highway.service" numLanes="1" speed="5.56" shape="2959.41,2172.47 2985.46,2138.12 2986.15,2137.21 2988.34,2134.31" allow="delivery bicycle pedestrian"/>
    <edge id="-133885749#2" from="1473258763" to="cluster_1473258747_1474045662" priority="2" type="highway.service" numLanes="1" speed="5.56" shape="2917.53,2227.74 2953.24,2180.61" allow="delivery bicycle pedestrian"/>
    <edge id="-134021303" from="1474316004" to="1474316003" priority="2" type="highway.service" numLanes="1" speed="5.56" allow="delivery bicycle pedestrian"/>
    <edge id="-137085410#1" from="1503717684" to="cluster_1503717917_1503717940_1503717955" priority="2" type="highway.service" numLanes="1" speed="5.56" shape="2875.81,2762.85 2875.19,2766.92 2873.01,2769.63" allow="delivery bicycle pedestrian"/>
    <edge id="-137085410#2" from="1503717659" to="1503717684" priority="2" type="highway.service" numLanes="1" speed="5.56" shape="2861.58,2761.68 2863.34,2758.73 2867.04,2756.68 2870.97,2756.92 2874.23,2759.21 2875.81,2762.85" allow="delivery bicycle pedestrian"/>
    <edge id="-137085410#3" from="cluster_1503717917_1503717940_1503717955" to="1503717659" priority="2" type="highway.service" numLanes="1" speed="5.56" shape="2865.94,2770.66 2863.27,2768.87 2861.38,2765.14 2861.58,2761.68" allow="delivery bicycle pedestrian"/>
    <edge id="-137085411#0" from="1503717567" to="1503717573" priority="2" type="highway.service" numLanes="1" speed="5.56" allow="delivery bicycle pedestrian"/>
    <edge id="-137085411#1" from="1503718086" to="1503717567" priority="2" type="highway.service" numLanes="1" speed="5.56" shape="2822.09,2787.09 2757.08,2771.24 2754.30,2769.39 2753.67,2766.06 2768.10,2707.04 2771.39,2704.17 2775.26,2703.71 2789.17,2706.96" allow="delivery bicycle pedestrian"/>
    <edge id="-137085411#2" from="1503718141" to="1503718086" priority="2" type="highway.service" numLanes="1" speed="5.56" shape="2860.01,2796.23 2844.11,2792.45 2822.09,2787.09" allow="delivery bicycle pedestrian"/>
    <edge id="-137085411#3" from="1503718197" to="1503718141" priority="2" type="highway.service" numLanes="1" speed="5.56" shape="2889.24,2808.45 2868.01,2803.16 2860.01,2796.23" allow="delivery bicycle pedestrian"/>
    <edge id="-137085411#4" from="1503718202" to="1503718197" priority="2" type="highway.service" numLanes="1" speed="5.56" allow="delivery bicycle pedestrian"/>
    <edge id="-137085411#5" from="1503718207" to="1503718202" priority="2" type="highway.service" numLanes="1" speed="5.56" allow="delivery bicycle pedestrian"/>
    <edge id="-137085413" from="cluster_1503717917_1503717940_1503717955" to="1503718141" priority="2" type="highway.service" numLanes="1" speed="5.56" shape="2865.94,2770.66 2860.01,2796.23" allow="delivery bicycle pedestrian"/>
    <edge id="-137085417" from="1503718194" to="1503718086" priority="2" type="highway.service" numLanes="1" speed="5.56" allow="delivery bicycle pedestrian"/>
    <edge id="-137085426" from="1503717543" to="1503717567" priority="2" type="highway.service" numLanes="1" speed="5.56" shape="2798.11,2670.87 2797.17,2674.67 2796.36,2677.97 2792.28,2694.40 2789.17,2706.96" allow="delivery bicycle pedestrian"/>
    <edge id="-137085434#0" from="1503718045" to="1503718202" priority="2" type="highway.service" numLanes="1" speed="5.56" allow="delivery bicycle pedestrian"/>
    <edge id="-137085434#1" from="1503717969" to="1503718045" priority="2" type="highway.service" numLanes="1" speed="5.56" allow="delivery bicycle pedestrian"/>
    <edge id="-137085434#2" from="1503717699" to="1503717969" priority="2" type="highway.service" numLanes="1" speed="5.56" allow="delivery bicycle pedestrian"/>
    <edge id="-137085434#3" from="1503717684" to="1503717699" priority="2" type="highway.service" numLanes="1" speed="5.56" shape="2875.81,2762.85 2886.66,2763.22 2904.73,2760.01 2912.69,2762.16" allow="delivery bicycle pedestrian"/>
    <edge id="-137630045" from="27412113" to="29192951" name="Am Kupfergraben" priority="4" type="highway.residential" numLanes="2" speed="8.33" shape="2461.58,2346.17 2499.95,2339.13 2525.47,2334.49 2550.32,2325.22 2570.49,2315.47 2581.16,2306.55">
        <lane index="0" allow="pedestrian" width="2.00"/>
        <lane index="1" disallow="tram rail_urban rail rail_electric pedestrian ship"/>
    </edge>
    <edge id="-138142366#0" from="2680763558" to="1514362188" priority="2" type="highway.service" numLanes="1" speed="5.56" allow="delivery bicycle pedestrian"/>
    <edge id="-138142366#1" from="1514362154" to="2680763558" priority="2" type="highway.service" numLanes="1" speed="5.56" shape="2044.39,2825.05 2028.41,2825.09 2014.59,2836.69 2013.77,2839.87 2013.35,2841.49 2007.64,2846.70" allow="delivery bicycle pedestrian"/>
    <edge id="-138142366#2" from="1514362153" to="1514362154" priority="2" type="highway.service" numLanes="1" speed="5.56" allow="delivery bicycle pedestrian"/>
    <edge id="-143201752" from="1566942141" to="1566942143" priority="2" type="highway.service" numLanes="1" speed="5.56" shape="4194.00,2665.33 4253.52,2620.89 4271.71,2644.33 4211.30,2689.30" allow="delivery bicycle pedestrian"/>
    <edge id="-143201755#0" from="1566942181" to="1566942175" priority="2" type="highway.service" numLanes="1" speed="5.56" allow="delivery bicycle pedestrian"/>
    <edge id="-143201755#1" from="1566942141" to="1566942181" priority="2" type="highway.service" numLanes="1" speed="5.56" allow="delivery bicycle pedestrian"/>
    <edge id="-143201755#2" from="1566942143" to="1566942141" priority="2" type="highway.service" numLanes="1" speed="5.56" allow="delivery bicycle pedestrian"/>
    <edge id="-143201757" from="1566942204" to="967017835" priority="1" type="highway.cycleway" numLanes="1" speed="5.56" shape="4077.46,2372.89 4140.56,2452.35 4142.44,2458.47" width="1.00" allow="bicycle"/>
    <edge id="-143201759" from="1566942138" to="1566942199" priority="2" type="highway.service" numLanes="1" speed="5.56" shape="4233.83,2151.41 4208.14,2098.74 4188.71,2109.33 4215.44,2159.94" allow="delivery bicycle pedestrian"/>
    <edge id="-143201761" from="29221599" to="1566942181" priority="2" type="highway.service" numLanes="1" speed="5.56" shape="4233.54,2579.20 4242.28,2592.66 4175.41,2639.87" allow="delivery bicycle pedestrian"/>
    <edge id="-145279489#0" from="1587113803" to="1203301221" priority="2" type="highway.service" numLanes="1" speed="5.56" allow="delivery bicycle pedestrian"/>
    <edge id="-145662520" from="1130114782" to="1130114721" name="Kupfergraben" priority="13" type="waterway.canal" numLanes="1" speed="1.67" shape="2553.28,2376.08 2598.03,2320.24 2618.19,2295.58 2672.56,2230.40 2682.32,2218.30 2729.05,2162.42 2782.81,2097.20 2829.68,2058.46 2849.96,2032.32 2868.07,1993.32 2894.04,1933.95" width="5.00" allow="ship"/>
    <edge id="-147066248" from="545036879" to="3213618590" name="Caroline-von-Humboldt-Weg" priority="3" type="highway.living_street" numLanes="1" speed="2.78" disallow="tram rail_urban rail rail_electric ship"/>
    <edge id="-153692976#0" from="1448679340" to="26871463" name="Linienstraße" priority="4" type="highway.residential" numLanes="2" speed="8.33" shape="2561.57,2941.02 2416.67,2881.43 2294.02,2831.85 2254.91,2816.03 2249.75,2800.33">
        <lane index="0" allow="pedestrian" width="2.00"/>
        <lane index="1" disallow="tram rail_urban rail rail_electric pedestrian ship"/>
    </edge>
    <edge id="-153692976#1" from="1448679341" to="1448679340" name="Linienstraße" priority="4" type="highway.residential" numLanes="2" speed="8.33" shape="2862.82,3066.91 2699.58,2998.43 2628.26,2968.77 2561.57,2941.02">
        <lane index="0" allow="pedestrian" width="2.00"/>
        <lane index="1" disallow="tram rail_urban rail rail_electric pedestrian ship"/>
    </edge>
    <edge id="-153698380" from="2959830775" to="25662562" name="Neustädtische Kirchstraße" priority="4" type="highway.residential" numLanes="2" speed="8.33" shape="2043.37,1879.64 2045.17,1852.31 2049.00,1801.83 2050.19,1785.82">
        <lane index="0" allow="pedestrian" width="2.00"/>
        <lane index="1" disallow="tram rail_urban rail rail_electric pedestrian ship"/>
    </edge>
    <edge id="-153698390" from="1447185655" to="1769589073" name="Schiffbauerdamm" priority="4" type="highway.residential" numLanes="2" speed="13.89">
        <lane index="0" allow="pedestrian" width="2.00"/>
        <lane index="1" disallow="tram rail_urban rail rail_electric pedestrian ship"/>
    </edge>
    <edge id="-155186522#0" from="746780594" to="25662562" name="Glinkastraße" priority="9" type="highway.primary" numLanes="3" speed="13.89">
        <lane index="0" allow="pedestrian" width="3.00"/>
        <lane index="1" disallow="tram rail_urban rail rail_electric pedestrian ship"/>
        <lane index="2" disallow="tram rail_urban rail rail_electric pedestrian ship"/>
    </edge>
    <edge id="-155186522#1" from="25661397" to="746780594" name="Glinkastraße" priority="9" type="highway.primary" numLanes="3" speed="13.89">
        <lane index="0" allow="pedestrian" width="3.00"/>
        <lane index="1" disallow="tram rail_urban rail rail_electric pedestrian ship"/>
        <lane index="2" disallow="tram rail_urban rail rail_electric pedestrian ship"/>
    </edge>
    <edge id="-156364570#0" from="275525455" to="614674365" name="Anna-Louisa-Karsch-Straße" priority="6" type="cycleway.lane|highway.tertiary" numLanes="7" speed="13.89">
        <lane index="0" allow="pedestrian" width="3.00"/>
        <lane index="1" allow="bicycle" width="1.00"/>
        <lane index="2" disallow="all" width="3.00"/>
        <lane index="3" disallow="all" width="1.00"/>
        <lane index="4" disallow="all" width="3.00"/>
        <lane index="5" disallow="all" width="1.00"/>
        <lane index="6" disallow="tram rail_urban rail rail_electric bicycle pedestrian ship"/>
    </edge>
    <edge id="-156364570#1" from="cluster_160503146_2314394457_27411250" to="275525455" name="Anna-Louisa-Karsch-Straße" priority="6" type="cycleway.lane|highway.tertiary" numLanes="7" speed="13.89" shape="3249.01,2261.68 3272.19,2273.66 3317.28,2296.21">
        <lane index="0" allow="pedestrian" width="3.00"/>
        <lane index="1" allow="bicycle" width="1.00"/>
        <lane index="2" disallow="all" width="3.00"/>
        <lane index="3" disallow="all" width="1.00"/>
        <lane index="4" disallow="all" width="3.00"/>
        <lane index="5" disallow="all" width="1.00"/>
        <lane index="6" disallow="tram rail_urban rail rail_electric bicycle pedestrian ship"/>
    </edge>
    <edge id="-158023913#0" from="1206624326" to="cluster_2959830776_3343070515_3343070517_3343070518" name="Dorotheenstraße" priority="4" type="highway.residential" numLanes="2" speed="8.33" shape="2134.32,1961.00 2127.75,1960.48 2037.61,1953.32">
        <lane index="0" allow="pedestrian" width="2.00"/>
        <lane index="1" disallow="tram rail_urban rail rail_electric pedestrian ship"/>
    </edge>
    <edge id="-158023913#1" from="1206624322" to="1206624326" name="Dorotheenstraße" priority="4" type="highway.residential" numLanes="2" speed="8.33">
        <lane index="0" allow="pedestrian" width="2.00"/>
        <lane index="1" disallow="tram rail_urban rail rail_electric pedestrian ship"/>
    </edge>
    <edge id="-158023913#2" from="cluster_25664680_577258918" to="1206624322" name="Dorotheenstraße" priority="4" type="highway.residential" numLanes="2" speed="8.33" shape="2245.00,1969.85 2221.04,1967.93 2163.14,1963.31">
        <lane index="0" allow="pedestrian" width="2.00"/>
        <lane index="1" disallow="tram rail_urban rail rail_electric pedestrian ship"/>
    </edge>
    <edge id="-159534657" from="196721246" to="740379739" name="Spree" priority="13" type="waterway.river" numLanes="1" speed="2.78" shape="3541.68,1533.03 3603.89,1527.96 3636.93,1525.13 3782.05,1501.60 3816.61,1495.35 3881.48,1479.51" width="7.00" allow="ship"/>
    <edge id="-159534658#0" from="196721246" to="740379739" name="Spree" priority="13" type="waterway.river" numLanes="1" speed="2.78" shape="3541.68,1533.03 3599.93,1508.91 3632.39,1504.28 3779.67,1480.37 3814.17,1474.92 3881.48,1479.51" width="7.00" allow="ship"/>
    <edge id="-159534658#1" from="3091127668" to="196721246" name="Spree" priority="13" type="waterway.river" numLanes="1" speed="2.78" shape="3361.68,1666.03 3398.43,1624.95 3436.40,1586.12 3489.70,1547.59 3541.68,1533.03" width="7.00" allow="ship"/>