<?xml version="1.0" encoding="UTF-8"?>

<!-- generated on 2022-11-10 16:48:08.271650 by generateTurnRatios.py v1_15_0+0141-fdbec12
  options: -r input_routes.rou.xml -o turns.xml -v -i 10
-->

<data xmlns:xsi="http://www.w3.org/2001/XMLSchema-instance" xsi:noNamespaceSchemaLocation="http://sumo.dlr.de/xsd/datamode_file.xsd">
    <interval id="generated" begin="0.0" end="10.0">
        <edgeRelation from="-109" to="-109.80.00" count="1"/>
        <edgeRelation from="-109.80.00" to="-11" count="1"/>
        <edgeRelation from="-109.80.00" to="23" count="1"/>
        <edgeRelation from="-11" to="-11.80.00" count="3"/>
        <edgeRelation from="-11.80.00" to="3" count="4"/>
        <edgeRelation from="-131" to="-131.180.00" count="1"/>
        <edgeRelation from="-131.180.00" to="-109" count="1"/>
        <edgeRelation from="-152.80.00" to="-131" count="1"/>
        <edgeRelation from="-23" to="-23.80.00" count="2"/>
        <edgeRelation from="-23.80.00" to="-11" count="2"/>
        <edgeRelation from="-27" to="-27.80.00" count="4"/>
        <edgeRelation from="-27.80.00" to="-3" count="1"/>
        <edgeRelation from="-27.80.00" to="-71" count="2"/>
        <edgeRelation from="-3" to="-3.180.00" count="2"/>
        <edgeRelation from="-3.180.00" to="11" count="1"/>
        <edgeRelation from="-31" to="-31.80.00" count="2"/>
        <edgeRelation from="-31.80.00" to="-23" count="2"/>
        <edgeRelation from="-43" to="-43.80.00" count="1"/>
        <edgeRelation from="-43.80.00" to="-27" count="2"/>
        <edgeRelation from="-45" to="-45.80.00" count="1"/>
        <edgeRelation from="-45.80.00" to="-27" count="1"/>
        <edgeRelation from="-55" to="-55.80.00" count="1"/>
        <edgeRelation from="-60" to="-60.80.00" count="1"/>
        <edgeRelation from="-60.80.00" to="-31" count="1"/>
        <edgeRelation from="-64.80.00" to="-31" count="1"/>
        <edgeRelation from="-68" to="-43" count="1"/>
        <edgeRelation from="-71" to="-55" count="2"/>
        <edgeRelation from="-79" to="-79.80.00" count="1"/>
        <edgeRelation from="-79.80.00" to="-60" count="1"/>
        <edgeRelation from="109" to="109.80.00" count="1"/>
        <edgeRelation from="109.80.00" to="123" count="1"/>
        <edgeRelation from="11" to="11.80.00" count="1"/>
        <edgeRelation from="11.80.00" to="109" count="1"/>
        <edgeRelation from="120" to="120.180.00" count="1"/>
        <edgeRelation from="120.180.00" to="131" count="1"/>
        <edgeRelation from="123" to="123.121.42" count="1"/>
        <edgeRelation from="131" to="131.180.00" count="1"/>
        <edgeRelation from="131.180.00" to="-131" count="1"/>
        <edgeRelation from="23" to="23.80.00" count="1"/>
        <edgeRelation from="23.80.00" to="31" count="1"/>
        <edgeRelation from="27" to="27.80.00" count="2"/>
        <edgeRelation from="27.80.00" to="-27" count="1"/>
        <edgeRelation from="27.80.00" to="55" count="1"/>
        <edgeRelation from="3" to="3.180.00" count="4"/>
        <edgeRelation from="3.180.00" to="-3" count="2"/>
        <edgeRelation from="3.180.00" to="27" count="2"/>
        <edgeRelation from="31" to="31.80.00" count="1"/>
        <edgeRelation from="31.80.00" to="64" count="1"/>
        <edgeRelation from="45" to="-68" count="1"/>
        <edgeRelation from="55" to="71" count="1"/>
        <edgeRelation from="60.80.00" to="75" count="1"/>
        <edgeRelation from="64" to="64.80.00" count="1"/>
        <edgeRelation from="64.80.00" to="120" count="1"/>
        <edgeRelation from="68" to="-45" count="1"/>
        <edgeRelation from="75" to="75.121.42" count="1"/>
        <edgeRelation from="75.121.42" to="-75" count="1"/>
    </interval>
    <interval id="generated" begin="10.0" end="20.0">
        <edgeRelation from="-109" to="-109.80.00" count="1"/>
        <edgeRelation from="-109.80.00" to="-11" count="1"/>
        <edgeRelation from="-109.80.00" to="23" count="1"/>
        <edgeRelation from="-11" to="-11.80.00" count="2"/>
        <edgeRelation from="-11.80.00" to="15" count="1"/>
        <edgeRelation from="-11.80.00" to="3" count="1"/>
        <edgeRelation from="-120" to="-120.180.00" count="1"/>
        <edgeRelation from="-123" to="-123.121.42" count="1"/>
        <edgeRelation from="-123.121.42" to="-120" count="1"/>
        <edgeRelation from="-123.121.42" to="131" count="1"/>
        <edgeRelation from="-144" to="-144.121.42" count="1"/>
        <edgeRelation from="-144.121.42" to="144" count="1"/>
        <edgeRelation from="-15" to="-15.180.00" count="1"/>
        <edgeRelation from="-15.180.00" to="11" count="1"/>
        <edgeRelation from="-15.180.00" to="3" count="1"/>
        <edgeRelation from="-23" to="-23.80.00" count="1"/>
        <edgeRelation from="-23.80.00" to="23" count="1"/>
        <edgeRelation from="-27" to="-27.80.00" count="3"/>
        <edgeRelation from="-27.80.00" to="-3" count="3"/>
        <edgeRelation from="-3" to="-3.180.00" count="3"/>
        <edgeRelation from="-3.180.00" to="11" count="2"/>
        <edgeRelation from="-3.180.00" to="15" count="1"/>
        <edgeRelation from="-31" to="-31.80.00" count="2"/>
        <edgeRelation from="-31.80.00" to="-23" count="1"/>
        <edgeRelation from="-45.80.00" to="-27" count="2"/>
        <edgeRelation from="-60" to="-60.80.00" count="1"/>
        <edgeRelation from="-60.80.00" to="-31" count="1"/>
        <edgeRelation from="-75.121.42" to="-60" count="1"/>
        <edgeRelation from="109" to="109.80.00" count="1"/>
        <edgeRelation from="109.80.00" to="-109" count="1"/>
        <edgeRelation from="11" to="11.80.00" count="3"/>
        <edgeRelation from="11.80.00" to="23" count="3"/>
        <edgeRelation from="131" to="131.180.00" count="1"/>
        <edgeRelation from="131.180.00" to="144" count="1"/>
        <edgeRelation from="144" to="144.121.42" count="2"/>
        <edgeRelation from="144.121.42" to="-15" count="1"/>
        <edgeRelation from="15" to="15.180.00" count="2"/>
        <edgeRelation from="15.180.00" to="-123" count="1"/>
        <edgeRelation from="15.180.00" to="-144" count="1"/>
        <edgeRelation from="23" to="23.80.00" count="4"/>
        <edgeRelation from="23.80.00" to="31" count="3"/>
        <edgeRelation from="23.80.00" to="37" count="1"/>
        <edgeRelation from="27" to="27.80.00" count="2"/>
        <edgeRelation from="27.80.00" to="43" count="1"/>
        <edgeRelation from="27.80.00" to="55" count="1"/>
        <edgeRelation from="3" to="3.180.00" count="2"/>
        <edgeRelation from="3.180.00" to="27" count="2"/>
        <edgeRelation from="31" to="31.80.00" count="3"/>
        <edgeRelation from="31.80.00" to="-31" count="1"/>
        <edgeRelation from="31.80.00" to="60" count="1"/>
        <edgeRelation from="31.80.00" to="64" count="1"/>
        <edgeRelation from="37" to="-58" count="1"/>
        <edgeRelation from="43" to="68" count="1"/>
        <edgeRelation from="55" to="71" count="1"/>
        <edgeRelation from="60" to="60.80.00" count="1"/>
        <edgeRelation from="60.80.00" to="92" count="1"/>
        <edgeRelation from="64" to="64.80.00" count="1"/>
        <edgeRelation from="64.80.00" to="120" count="1"/>
        <edgeRelation from="68" to="-45" count="1"/>
    </interval>
    <interval id="generated" begin="20.0" end="30.0">
        <edgeRelation from="-109" to="-109.80.00" count="2"/>
        <edgeRelation from="-109.80.00" to="-11" count="3"/>
        <edgeRelation from="-11" to="-11.80.00" count="4"/>
        <edgeRelation from="-11.80.00" to="3" count="4"/>
        <edgeRelation from="-131" to="-131.180.00" count="1"/>
        <edgeRelation from="-144" to="-144.121.42" count="1"/>
        <edgeRelation from="-144.121.42" to="144" count="1"/>
        <edgeRelation from="-144.121.42" to="152" count="1"/>
        <edgeRelation from="-15" to="-15.180.00" count="1"/>
        <edgeRelation from="-15.180.00" to="5" count="1"/>
        <edgeRelation from="-23" to="-23.80.00" count="1"/>
        <edgeRelation from="-23.80.00" to="-11" count="1"/>
        <edgeRelation from="-27" to="-27.80.00" count="3"/>
        <edgeRelation from="-27.80.00" to="-3" count="3"/>
        <edgeRelation from="-3" to="-3.180.00" count="4"/>
        <edgeRelation from="-3.180.00" to="11" count="2"/>
        <edgeRelation from="-3.180.00" to="15" count="2"/>
        <edgeRelation from="-37" to="-37.80.00" count="2"/>
        <edgeRelation from="-37.80.00" to="-23" count="1"/>
        <edgeRelation from="-43.80.00" to="-27" count="1"/>
        <edgeRelation from="-55" to="-55.80.00" count="2"/>
        <edgeRelation from="-55.80.00" to="-27" count="1"/>
        <edgeRelation from="-71" to="-55" count="1"/>
        <edgeRelation from="-79" to="-79.80.00" count="1"/>
        <edgeRelation from="-79.80.00" to="75" count="1"/>
        <edgeRelation from="11" to="11.80.00" count="2"/>
        <edgeRelation from="11.80.00" to="23" count="2"/>
        <edgeRelation from="120" to="120.180.00" count="3"/>
        <edgeRelation from="120.180.00" to="-109" count="2"/>
        <edgeRelation from="120.180.00" to="131" count="1"/>
        <edgeRelation from="131" to="131.180.00" count="1"/>
        <edgeRelation from="131.180.00" to="-131" count="1"/>
        <edgeRelation from="144" to="144.121.42" count="1"/>
        <edgeRelation from="144.121.42" to="-15" count="1"/>
        <edgeRelation from="15" to="15.180.00" count="2"/>
        <edgeRelation from="15.180.00" to="-144" count="1"/>
        <edgeRelation from="23" to="23.80.00" count="2"/>
        <edgeRelation from="23.80.00" to="31" count="2"/>
        <edgeRelation from="27" to="27.80.00" count="2"/>
        <edgeRelation from="27.80.00" to="-27" count="2"/>
        <edgeRelation from="27.80.00" to="43" count="1"/>
        <edgeRelation from="3" to="3.180.00" count="4"/>
        <edgeRelation from="3.180.00" to="-71" count="1"/>
        <edgeRelation from="3.180.00" to="27" count="2"/>
        <edgeRelation from="31" to="31.80.00" count="2"/>
        <edgeRelation from="31.80.00" to="58" count="1"/>
        <edgeRelation from="31.80.00" to="60" count="1"/>
        <edgeRelation from="43" to="68" count="1"/>
        <edgeRelation from="58" to="-37" count="2"/>
        <edgeRelation from="60" to="60.80.00" count="1"/>
        <edgeRelation from="60.80.00" to="75" count="1"/>
        <edgeRelation from="68" to="-45" count="1"/>
        <edgeRelation from="71.121.42" to="-3" count="1"/>
        <edgeRelation from="75" to="75.121.42" count="2"/>
        <edgeRelation from="75.121.42" to="120" count="1"/>
    </interval>
    <interval id="generated" begin="30.0" end="40.0">
        <edgeRelation from="-109" to="-109.80.00" count="1"/>
        <edgeRelation from="-109.80.00" to="-11" count="1"/>
        <edgeRelation from="-11" to="-11.80.00" count="4"/>
        <edgeRelation from="-11.80.00" to="3" count="4"/>
        <edgeRelation from="-120" to="-120.180.00" count="2"/>
        <edgeRelation from="-120.180.00" to="-64" count="1"/>
        <edgeRelation from="-120.180.00" to="-75" count="1"/>
        <edgeRelation from="-144" to="-144.121.42" count="1"/>
        <edgeRelation from="-144.121.42" to="-131" count="1"/>
        <edgeRelation from="-15" to="-15.180.00" count="1"/>
        <edgeRelation from="-15.180.00" to="11" count="1"/>
        <edgeRelation from="-23" to="-23.80.00" count="3"/>
        <edgeRelation from="-23.80.00" to="-11" count="3"/>
        <edgeRelation from="-27" to="-27.80.00" count="2"/>
        <edgeRelation from="-27.80.00" to="-3" count="2"/>
        <edgeRelation from="-3" to="-3.180.00" count="2"/>
        <edgeRelation from="-3.180.00" to="11" count="1"/>
        <edgeRelation from="-3.180.00" to="15" count="1"/>
        <edgeRelation from="-31" to="-31.80.00" count="3"/>
        <edgeRelation from="-31.80.00" to="-23" count="3"/>
        <edgeRelation from="-45" to="-45.80.00" count="1"/>
        <edgeRelation from="-55" to="-55.80.00" count="2"/>
        <edgeRelation from="-55.80.00" to="-27" count="1"/>
        <edgeRelation from="-60" to="-60.80.00" count="3"/>
        <edgeRelation from="-60.80.00" to="-31" count="2"/>
        <edgeRelation from="-60.80.00" to="64" count="1"/>
        <edgeRelation from="-64" to="-64.80.00" count="1"/>
        <edgeRelation from="-64.80.00" to="-31" count="1"/>
        <edgeRelation from="-71" to="-55" count="1"/>
        <edgeRelation from="-75" to="-75.121.42" count="1"/>
        <edgeRelation from="-75.121.42" to="-60" count="1"/>
        <edgeRelation from="-79" to="-79.80.00" count="1"/>
        <edgeRelation from="-79.80.00" to="-60" count="2"/>
        <edgeRelation from="109" to="109.80.00" count="1"/>
        <edgeRelation from="109.80.00" to="131" count="1"/>
        <edgeRelation from="11" to="11.80.00" count="3"/>
        <edgeRelation from="11.80.00" to="109" count="1"/>
        <edgeRelation from="11.80.00" to="23" count="2"/>
        <edgeRelation from="120" to="120.180.00" count="2"/>
        <edgeRelation from="120.180.00" to="-109" count="1"/>
        <edgeRelation from="120.180.00" to="-120" count="1"/>
        <edgeRelation from="131" to="131.180.00" count="1"/>
        <edgeRelation from="15" to="15.180.00" count="1"/>
        <edgeRelation from="15.180.00" to="-144" count="1"/>
        <edgeRelation from="15.180.00" to="-15" count="1"/>
        <edgeRelation from="23" to="23.80.00" count="2"/>
        <edgeRelation from="23.80.00" to="31" count="2"/>
        <edgeRelation from="27" to="27.80.00" count="4"/>
        <edgeRelation from="27.80.00" to="-27" count="1"/>
        <edgeRelation from="27.80.00" to="43" count="1"/>
        <edgeRelation from="27.80.00" to="45" count="1"/>
        <edgeRelation from="3" to="3.180.00" count="4"/>
        <edgeRelation from="3.180.00" to="-71" count="1"/>
        <edgeRelation from="3.180.00" to="27" count="3"/>
        <edgeRelation from="31" to="31.80.00" count="2"/>
        <edgeRelation from="31.80.00" to="64" count="1"/>
        <edgeRelation from="43" to="68" count="1"/>
        <edgeRelation from="64" to="64.80.00" count="2"/>
        <edgeRelation from="68" to="-45" count="1"/>
    </interval>
    <interval id="generated" begin="40.0" end="50.0">
        <edgeRelation from="-120" to="-120.180.00" count="1"/>
        <edgeRelation from="-120.180.00" to="-64" count="1"/>
        <edgeRelation from="-123" to="-123.121.42" count="1"/>
        <edgeRelation from="-123.121.42" to="-120" count="1"/>
        <edgeRelation from="-131" to="-131.180.00" count="1"/>
        <edgeRelation from="-131.180.00" to="131" count="1"/>
        <edgeRelation from="-144" to="-144.121.42" count="1"/>
        <edgeRelation from="-144.121.42" to="-131" count="1"/>
        <edgeRelation from="-23" to="-23.80.00" count="1"/>
        <edgeRelation from="-23.80.00" to="109" count="1"/>
        <edgeRelation from="-27" to="-27.80.00" count="3"/>
        <edgeRelation from="-27.80.00" to="-3" count="3"/>
        <edgeRelation from="-3" to="-3.180.00" count="3"/>
        <edgeRelation from="-3.180.00" to="11" count="3"/>
        <edgeRelation from="-31" to="-31.80.00" count="2"/>
        <edgeRelation from="-31.80.00" to="31" count="1"/>
        <edgeRelation from="-31.80.00" to="37" count="1"/>
        <edgeRelation from="-37" to="-37.80.00" count="1"/>
        <edgeRelation from="-37.80.00" to="-23" count="1"/>
        <edgeRelation from="-43" to="-43.80.00" count="2"/>
        <edgeRelation from="-43.80.00" to="-27" count="1"/>
        <edgeRelation from="-43.80.00" to="43" count="1"/>
        <edgeRelation from="-55" to="-55.80.00" count="1"/>
        <edgeRelation from="-55.80.00" to="-27" count="1"/>
        <edgeRelation from="-58" to="-58.121.42" count="1"/>
        <edgeRelation from="-60" to="-60.80.00" count="1"/>
        <edgeRelation from="-60.80.00" to="-31" count="1"/>
        <edgeRelation from="-64" to="-64.80.00" count="2"/>
        <edgeRelation from="-64.80.00" to="-31" count="1"/>
        <edgeRelation from="-64.80.00" to="58" count="1"/>
        <edgeRelation from="-68" to="-43" count="1"/>
        <edgeRelation from="-71" to="-55" count="1"/>
        <edgeRelation from="-92.180.00" to="-60" count="1"/>
        <edgeRelation from="109" to="109.80.00" count="1"/>
        <edgeRelation from="11" to="11.80.00" count="3"/>
        <edgeRelation from="11.80.00" to="109" count="1"/>
        <edgeRelation from="11.80.00" to="23" count="2"/>
        <edgeRelation from="131" to="131.180.00" count="1"/>
        <edgeRelation from="144.121.42" to="-123" count="1"/>
        <edgeRelation from="23" to="23.80.00" count="3"/>
        <edgeRelation from="23.80.00" to="-23" count="1"/>
        <edgeRelation from="23.80.00" to="31" count="2"/>
        <edgeRelation from="27" to="27.80.00" count="1"/>
        <edgeRelation from="27.80.00" to="-27" count="1"/>
        <edgeRelation from="31" to="31.80.00" count="2"/>
        <edgeRelation from="31.80.00" to="64" count="2"/>
        <edgeRelation from="37" to="-58" count="1"/>
        <edgeRelation from="45" to="-68" count="1"/>
        <edgeRelation from="58" to="-37" count="1"/>
        <edgeRelation from="64" to="64.80.00" count="2"/>
        <edgeRelation from="64.80.00" to="-64" count="2"/>
        <edgeRelation from="64.80.00" to="-75" count="1"/>
    </interval>
    <interval id="generated" begin="50.0" end="60.0">
        <edgeRelation from="-11" to="-11.80.00" count="1"/>
        <edgeRelation from="-11.80.00" to="15" count="1"/>
        <edgeRelation from="-131" to="-131.180.00" count="1"/>
        <edgeRelation from="-131.180.00" to="131" count="1"/>
        <edgeRelation from="-148" to="-148.80.00" count="1"/>
        <edgeRelation from="-148.80.00" to="144" count="1"/>
        <edgeRelation from="-15" to="-15.180.00" count="3"/>
        <edgeRelation from="-15.180.00" to="3" count="3"/>
        <edgeRelation from="-152.80.00" to="-131" count="1"/>
        <edgeRelation from="-23" to="-23.80.00" count="3"/>
        <edgeRelation from="-23.80.00" to="-11" count="1"/>
        <edgeRelation from="-23.80.00" to="109" count="2"/>
        <edgeRelation from="-3" to="-3.180.00" count="1"/>
        <edgeRelation from="-3.180.00" to="11" count="2"/>
        <edgeRelation from="-37.80.00" to="-23" count="3"/>
        <edgeRelation from="-79.80.00" to="75" count="1"/>
        <edgeRelation from="109" to="109.80.00" count="2"/>
        <edgeRelation from="109.80.00" to="-109" count="1"/>
        <edgeRelation from="109.80.00" to="131" count="1"/>
        <edgeRelation from="11" to="11.80.00" count="2"/>
        <edgeRelation from="11.80.00" to="23" count="2"/>
        <edgeRelation from="120" to="120.180.00" count="1"/>
        <edgeRelation from="120.180.00" to="131" count="1"/>
        <edgeRelation from="123" to="123.121.42" count="1"/>
        <edgeRelation from="123.121.42" to="-15" count="1"/>
        <edgeRelation from="131" to="131.180.00" count="1"/>
        <edgeRelation from="131.180.00" to="144" count="1"/>
        <edgeRelation from="144" to="144.121.42" count="3"/>
        <edgeRelation from="144.121.42" to="-15" count="2"/>
        <edgeRelation from="15" to="15.180.00" count="1"/>
        <edgeRelation from="23" to="23.80.00" count="2"/>
        <edgeRelation from="23.80.00" to="31" count="1"/>
        <edgeRelation from="27" to="27.80.00" count="2"/>
        <edgeRelation from="27.80.00" to="43" count="1"/>
        <edgeRelation from="3" to="3.180.00" count="4"/>
        <edgeRelation from="3.180.00" to="-3" count="2"/>
        <edgeRelation from="3.180.00" to="27" count="2"/>
        <edgeRelation from="31" to="31.80.00" count="1"/>
        <edgeRelation from="31.80.00" to="64" count="1"/>
        <edgeRelation from="43" to="68" count="1"/>
        <edgeRelation from="64" to="64.80.00" count="1"/>
        <edgeRelation from="75" to="75.121.42" count="1"/>
        <edgeRelation from="75.121.42" to="120" count="1"/>
    </interval>
    <interval id="generated" begin="60.0" end="70.0">
        <edgeRelation from="-11" to="-11.80.00" count="2"/>
        <edgeRelation from="-11.80.00" to="3" count="1"/>
        <edgeRelation from="-120" to="-120.180.00" count="1"/>
        <edgeRelation from="-120.180.00" to="-64" count="1"/>
        <edgeRelation from="-123" to="-123.121.42" count="1"/>
        <edgeRelation from="-123.121.42" to="-120" count="1"/>
        <edgeRelation from="-23" to="-23.80.00" count="2"/>
        <edgeRelation from="-23.80.00" to="-11" count="2"/>
        <edgeRelation from="-27" to="-27.80.00" count="2"/>
        <edgeRelation from="-27.80.00" to="-3" count="2"/>
        <edgeRelation from="-3" to="-3.180.00" count="3"/>
        <edgeRelation from="-3.180.00" to="11" count="3"/>
        <edgeRelation from="-31" to="-31.80.00" count="2"/>
        <edgeRelation from="-31.80.00" to="-23" count="2"/>
        <edgeRelation from="-45" to="-45.80.00" count="1"/>
        <edgeRelation from="-45.80.00" to="-27" count="1"/>
        <edgeRelation from="-55" to="-55.80.00" count="1"/>
        <edgeRelation from="-55.80.00" to="-27" count="1"/>
        <edgeRelation from="-58" to="-58.121.42" count="1"/>
        <edgeRelation from="-58.121.42" to="-31" count="1"/>
        <edgeRelation from="-60" to="-60.80.00" count="1"/>
        <edgeRelation from="-60.80.00" to="-31" count="1"/>
        <edgeRelation from="-64" to="-64.80.00" count="1"/>
        <edgeRelation from="-64.80.00" to="58" count="1"/>
        <edgeRelation from="-71" to="-55" count="1"/>
        <edgeRelation from="-75" to="-75.121.42" count="1"/>
        <edgeRelation from="-75.121.42" to="-60" count="1"/>
        <edgeRelation from="109" to="109.80.00" count="1"/>
        <edgeRelation from="109.80.00" to="-120" count="1"/>
        <edgeRelation from="11" to="11.80.00" count="3"/>
        <edgeRelation from="11.80.00" to="109" count="1"/>
        <edgeRelation from="11.80.00" to="23" count="1"/>
        <edgeRelation from="123" to="123.121.42" count="1"/>
        <edgeRelation from="123.121.42" to="-123" count="1"/>
        <edgeRelation from="144" to="144.121.42" count="1"/>
        <edgeRelation from="144.121.42" to="-123" count="1"/>
        <edgeRelation from="23" to="23.80.00" count="1"/>
        <edgeRelation from="23.80.00" to="31" count="1"/>
        <edgeRelation from="3" to="3.180.00" count="1"/>
        <edgeRelation from="3.180.00" to="-71" count="1"/>
        <edgeRelation from="31" to="31.80.00" count="1"/>
        <edgeRelation from="31.80.00" to="58" count="2"/>
        <edgeRelation from="37" to="-58" count="1"/>
        <edgeRelation from="43" to="68" count="1"/>
        <edgeRelation from="68" to="-45" count="1"/>
        <edgeRelation from="71" to="71.121.42" count="1"/>
        <edgeRelation from="71.121.42" to="-3" count="1"/>
    </interval>
    <interval id="generated" begin="70.0" end="80.0">
        <edgeRelation from="-109" to="-109.80.00" count="1"/>
        <edgeRelation from="-109.80.00" to="-11" count="1"/>
        <edgeRelation from="-11" to="-11.80.00" count="2"/>
        <edgeRelation from="-11.80.00" to="3" count="1"/>
        <edgeRelation from="-11.80.00" to="5" count="1"/>
        <edgeRelation from="-131" to="-131.180.00" count="1"/>
        <edgeRelation from="-23" to="-23.80.00" count="2"/>
        <edgeRelation from="-23.80.00" to="-11" count="1"/>
        <edgeRelation from="-23.80.00" to="109" count="1"/>
        <edgeRelation from="-27" to="-27.80.00" count="3"/>
        <edgeRelation from="-27.80.00" to="-3" count="2"/>
        <edgeRelation from="-3" to="-3.180.00" count="2"/>
        <edgeRelation from="-3.180.00" to="11" count="2"/>
        <edgeRelation from="-3.180.00" to="3" count="1"/>
        <edgeRelation from="-31" to="-31.80.00" count="2"/>
        <edgeRelation from="-31.80.00" to="-23" count="2"/>
        <edgeRelation from="-43" to="-43.80.00" count="1"/>
        <edgeRelation from="-43.80.00" to="-27" count="1"/>
        <edgeRelation from="-45" to="-45.80.00" count="1"/>
        <edgeRelation from="-45.80.00" to="-27" count="1"/>
        <edgeRelation from="-55" to="-55.80.00" count="1"/>
        <edgeRelation from="-58" to="-58.121.42" count="2"/>
        <edgeRelation from="-58.121.42" to="-31" count="2"/>
        <edgeRelation from="-64" to="-64.80.00" count="1"/>
        <edgeRelation from="-64.80.00" to="64" count="1"/>
        <edgeRelation from="-71" to="-55" count="1"/>
        <edgeRelation from="109" to="109.80.00" count="2"/>
        <edgeRelation from="109.80.00" to="-109" count="1"/>
        <edgeRelation from="109.80.00" to="131" count="1"/>
        <edgeRelation from="11" to="11.80.00" count="2"/>
        <edgeRelation from="11.80.00" to="-11" count="1"/>
        <edgeRelation from="11.80.00" to="23" count="2"/>
        <edgeRelation from="120" to="120.180.00" count="1"/>
        <edgeRelation from="120.180.00" to="123" count="1"/>
        <edgeRelation from="123" to="123.121.42" count="1"/>
        <edgeRelation from="131" to="131.180.00" count="1"/>
        <edgeRelation from="131.180.00" to="-131" count="1"/>
        <edgeRelation from="23" to="23.80.00" count="2"/>
        <edgeRelation from="23.80.00" to="31" count="1"/>
        <edgeRelation from="23.80.00" to="37" count="1"/>
        <edgeRelation from="27" to="27.80.00" count="2"/>
        <edgeRelation from="27.80.00" to="-27" count="1"/>
        <edgeRelation from="27.80.00" to="55" count="1"/>
        <edgeRelation from="3" to="3.180.00" count="2"/>
        <edgeRelation from="3.180.00" to="-3" count="1"/>
        <edgeRelation from="3.180.00" to="-71" count="1"/>
        <edgeRelation from="3.180.00" to="27" count="1"/>
        <edgeRelation from="37" to="-58" count="2"/>
        <edgeRelation from="55" to="71" count="1"/>
        <edgeRelation from="64" to="64.80.00" count="1"/>
        <edgeRelation from="64.80.00" to="120" count="1"/>
        <edgeRelation from="68" to="-45" count="1"/>
    </interval>
    <interval id="generated" begin="80.0" end="90.0">
        <edgeRelation from="-109" to="-109.80.00" count="3"/>
        <edgeRelation from="-109.80.00" to="-11" count="1"/>
        <edgeRelation from="-109.80.00" to="23" count="2"/>
        <edgeRelation from="-11" to="-11.80.00" count="2"/>
        <edgeRelation from="-11.80.00" to="3" count="2"/>
        <edgeRelation from="-120" to="-120.180.00" count="1"/>
        <edgeRelation from="-131" to="-131.180.00" count="1"/>
        <edgeRelation from="-131.180.00" to="-109" count="2"/>
        <edgeRelation from="-144" to="-144.121.42" count="1"/>
        <edgeRelation from="-144.121.42" to="152" count="1"/>
        <edgeRelation from="-148" to="-148.80.00" count="1"/>
        <edgeRelation from="-148.80.00" to="-131" count="1"/>
        <edgeRelation from="-23" to="-23.80.00" count="3"/>
        <edgeRelation from="-23.80.00" to="-11" count="1"/>
        <edgeRelation from="-23.80.00" to="109" count="2"/>
        <edgeRelation from="-27" to="-27.80.00" count="1"/>
        <edgeRelation from="-27.80.00" to="27" count="1"/>
        <edgeRelation from="-31" to="-31.80.00" count="1"/>
        <edgeRelation from="-31.80.00" to="-23" count="2"/>
        <edgeRelation from="-37" to="-37.80.00" count="1"/>
        <edgeRelation from="-37.80.00" to="-23" count="1"/>
        <edgeRelation from="-43.80.00" to="-27" count="1"/>
        <edgeRelation from="-55" to="-55.80.00" count="1"/>
        <edgeRelation from="-58" to="-58.121.42" count="1"/>
        <edgeRelation from="-64" to="-64.80.00" count="1"/>
        <edgeRelation from="-64.80.00" to="64" count="1"/>
        <edgeRelation from="-71" to="-55" count="1"/>
        <edgeRelation from="-79.80.00" to="75" count="1"/>
        <edgeRelation from="109" to="109.80.00" count="2"/>
        <edgeRelation from="109.80.00" to="123" count="1"/>
        <edgeRelation from="109.80.00" to="131" count="1"/>
        <edgeRelation from="120" to="120.180.00" count="2"/>
        <edgeRelation from="120.180.00" to="-109" count="1"/>
        <edgeRelation from="120.180.00" to="-120" count="1"/>
        <edgeRelation from="131" to="131.180.00" count="1"/>
        <edgeRelation from="131.180.00" to="144" count="1"/>
        <edgeRelation from="23" to="23.80.00" count="2"/>
        <edgeRelation from="23.80.00" to="37" count="1"/>
        <edgeRelation from="27" to="27.80.00" count="2"/>
        <edgeRelation from="27.80.00" to="-27" count="1"/>
        <edgeRelation from="3" to="3.180.00" count="2"/>
        <edgeRelation from="3.180.00" to="-71" count="1"/>
        <edgeRelation from="3.180.00" to="27" count="1"/>
        <edgeRelation from="31" to="31.80.00" count="1"/>
        <edgeRelation from="31.80.00" to="-31" count="1"/>
        <edgeRelation from="37" to="-58" count="1"/>
        <edgeRelation from="64" to="64.80.00" count="1"/>
        <edgeRelation from="64.80.00" to="120" count="1"/>
        <edgeRelation from="75" to="75.121.42" count="2"/>
        <edgeRelation from="75.121.42" to="120" count="1"/>
    </interval>
    <interval id="generated" begin="90.0" end="100.0">
        <edgeRelation from="-109" to="-109.80.00" count="1"/>
        <edgeRelation from="-109.80.00" to="-11" count="1"/>
        <edgeRelation from="-11" to="-11.80.00" count="1"/>
        <edgeRelation from="-11.80.00" to="5" count="1"/>
        <edgeRelation from="-120" to="-120.180.00" count="1"/>
        <edgeRelation from="-120.180.00" to="-75" count="1"/>
        <edgeRelation from="-123" to="-123.121.42" count="3"/>
        <edgeRelation from="-123.121.42" to="-109" count="1"/>
        <edgeRelation from="-123.121.42" to="-120" count="1"/>
        <edgeRelation from="-123.121.42" to="131" count="1"/>
        <edgeRelation from="-15" to="-15.180.00" count="1"/>
        <edgeRelation from="-15.180.00" to="15" count="1"/>
        <edgeRelation from="-23" to="-23.80.00" count="1"/>
        <edgeRelation from="-23.80.00" to="-11" count="1"/>
        <edgeRelation from="-27" to="-27.80.00" count="1"/>