<?xml version="1.0" encoding="UTF-8"?>

<!-- generated on 05/02/13 14:03:26 by SUMO duarouter Version 0.17.0
<?xml version="1.0" encoding="UTF-8"?>

<configuration xmlns:xsi="http://www.w3.org/2001/XMLSchema-instance" xsi:noNamespaceSchemaLocation="http://sumo-sim.org/xsd/duarouterConfiguration.xsd">

    <input>
        <net-file value="input_net.net.xml"/>
        <trip-files value="input_trips.trips.xml"/>
    </input>

    <output>
        <output-file value="routes.rou.xml"/>
    </output>

    <processing>
        <ignore-errors value="true"/>
        <remove-loops value="true"/>
    </processing>

    <time>
        <begin value="0"/>
        <end value="90000"/>
    </time>

    <report>
        <no-warnings value="true"/>
        <no-step-log value="true"/>
    </report>

</configuration>
-->

<routes xmlns:xsi="http://www.w3.org/2001/XMLSchema-instance" xsi:noNamespaceSchemaLocation="http://sumo-sim.org/xsd/routes_file.xsd">
    <vehicle id="862" depart="7.00">
        <routeDistribution last="0">
            <route cost="269.96" probability="1.00000000" edges="D2 L3 L5 L7 L6 L10 L13 L15 L16 D3"/>
        </routeDistribution>
    </vehicle>
    <vehicle id="285" depart="91.00">
        <routeDistribution last="0">
            <route cost="270.18" probability="1.00000000" edges="D1 L2 L5 L7 L6 L10 L13 L15 L16 D3"/>
        </routeDistribution>
    </vehicle>
    <vehicle id="444" depart="230.00">
        <routeDistribution last="0">
            <route cost="270.18" probability="1.00000000" edges="D1 L2 L5 L7 L6 L10 L13 L15 L16 D3"/>
        </routeDistribution>
    </vehicle>
    <vehicle id="825" depart="256.00">
        <routeDistribution last="0">
            <route cost="269.96" probability="1.00000000" edges="D2 L3 L5 L7 L6 L10 L13 L15 L16 D3"/>
        </routeDistribution>
    </vehicle>
    <vehicle id="283" depart="349.00">
        <routeDistribution last="0">
            <route cost="270.18" probability="1.00000000" edges="D1 L2 L5 L7 L6 L10 L13 L15 L16 D3"/>
        </routeDistribution>
    </vehicle>
    <vehicle id="361" depart="513.00">
        <routeDistribution last="0">
            <route cost="270.18" probability="1.00000000" edges="D1 L2 L5 L7 L6 L10 L13 L15 L16 D3"/>
        </routeDistribution>
    </vehicle>
    <vehicle id="438" depart="522.00">
        <routeDistribution last="0">
            <route cost="270.18" probability="1.00000000" edges="D1 L2 L5 L7 L6 L10 L13 L15 L16 D3"/>
        </routeDistribution>
    </vehicle>
    <vehicle id="197" depart="537.00">
        <routeDistribution last="0">
            <route cost="270.18" probability="1.00000000" edges="D1 L2 L5 L7 L6 L10 L13 L15 L16 D3"/>
        </routeDistribution>
    </vehicle>
    <vehicle id="421" depart="617.00">
        <routeDistribution last="0">
            <route cost="270.18" probability="1.00000000" edges="D1 L2 L5 L7 L6 L10 L13 L15 L16 D3"/>
        </routeDistribution>
    </vehicle>
    <vehicle id="97" depart="645.00">
        <routeDistribution last="0">
            <route cost="270.18" probability="1.00000000" edges="D1 L2 L5 L7 L6 L10 L13 L15 L16 D3"/>
        </routeDistribution>
    </vehicle>
    <vehicle id="384" depart="791.00">
        <routeDistribution last="0">
            <route cost="270.18" probability="1.00000000" edges="D1 L2 L5 L7 L6 L10 L13 L15 L16 D3"/>
        </routeDistribution>
    </vehicle>
    <vehicle id="171" depart="807.00">
        <routeDistribution last="0">
            <route cost="270.18" probability="1.00000000" edges="D1 L2 L5 L7 L6 L10 L13 L15 L16 D3"/>
        </routeDistribution>
    </vehicle>
    <vehicle id="95" depart="822.00">
        <routeDistribution last="0">
            <route cost="270.18" probability="1.00000000" edges="D1 L2 L5 L7 L6 L10 L13 L15 L16 D3"/>
        </routeDistribution>
    </vehicle>
    <vehicle id="661" depart="964.00">
        <routeDistribution last="0">
            <route cost="270.18" probability="1.00000000" edges="D1 L2 L5 L7 L6 L10 L13 L15 L16 D3"/>
        </routeDistribution>
    </vehicle>
    <vehicle id="710" depart="1067.00">
        <routeDistribution last="0">
            <route cost="270.18" probability="1.00000000" edges="D1 L2 L5 L7 L6 L10 L13 L15 L16 D3"/>
        </routeDistribution>
    </vehicle>
    <vehicle id="638" depart="1082.00">
        <routeDistribution last="0">
            <route cost="270.18" probability="1.00000000" edges="D1 L2 L5 L7 L6 L10 L13 L15 L16 D3"/>
        </routeDistribution>
    </vehicle>
    <vehicle id="708" depart="1255.00">
        <routeDistribution last="0">
            <route cost="270.18" probability="1.00000000" edges="D1 L2 L5 L7 L6 L10 L13 L15 L16 D3"/>
        </routeDistribution>
    </vehicle>
    <vehicle id="165" depart="1267.00">
        <routeDistribution last="0">
            <route cost="270.18" probability="1.00000000" edges="D1 L2 L5 L7 L6 L10 L13 L15 L16 D3"/>
        </routeDistribution>
    </vehicle>
    <vehicle id="508" depart="1267.00">
        <routeDistribution last="0">
            <route cost="270.18" probability="1.00000000" edges="D1 L2 L5 L7 L6 L10 L13 L15 L16 D3"/>
        </routeDistribution>
    </vehicle>
    <vehicle id="880" depart="1377.00">
        <routeDistribution last="0">
            <route cost="269.96" probability="1.00000000" edges="D2 L3 L5 L7 L6 L10 L13 L15 L16 D3"/>
        </routeDistribution>
    </vehicle>
    <vehicle id="555" depart="1614.00">
        <routeDistribution last="0">
            <route cost="270.18" probability="1.00000000" edges="D1 L2 L5 L7 L6 L10 L13 L15 L16 D3"/>
        </routeDistribution>
    </vehicle>
    <vehicle id="327" depart="1819.00">
        <routeDistribution last="0">
            <route cost="270.18" probability="1.00000000" edges="D1 L2 L5 L7 L6 L10 L13 L15 L16 D3"/>
        </routeDistribution>
    </vehicle>
    <vehicle id="744" depart="1826.00">
        <routeDistribution last="0">
            <route cost="270.18" probability="1.00000000" edges="D1 L2 L5 L7 L6 L10 L13 L15 L16 D3"/>
        </routeDistribution>
    </vehicle>
    <vehicle id="306" depart="1874.00">
        <routeDistribution last="0">
            <route cost="270.18" probability="1.00000000" edges="D1 L2 L5 L7 L6 L10 L13 L15 L16 D3"/>
        </routeDistribution>
    </vehicle>
    <vehicle id="619" depart="2013.00">
        <routeDistribution last="0">
            <route cost="270.18" probability="1.00000000" edges="D1 L2 L5 L7 L6 L10 L13 L15 L16 D3"/>
        </routeDistribution>
    </vehicle>
    <vehicle id="788" depart="2255.00">
        <routeDistribution last="0">
            <route cost="270.18" probability="1.00000000" edges="D1 L2 L5 L7 L6 L10 L13 L15 L16 D3"/>
        </routeDistribution>
    </vehicle>
    <vehicle id="53" depart="2593.00">
        <routeDistribution last="0">
            <route cost="270.18" probability="1.00000000" edges="D1 L2 L5 L7 L6 L10 L13 L15 L16 D3"/>
        </routeDistribution>
    </vehicle>
    <vehicle id="422" depart="2642.00">
        <routeDistribution last="0">
            <route cost="270.18" probability="1.00000000" edges="D1 L2 L5 L7 L6 L10 L13 L15 L16 D3"/>
        </routeDistribution>
    </vehicle>
    <vehicle id="443" depart="2728.00">
        <routeDistribution last="0">
            <route cost="270.18" probability="1.00000000" edges="D1 L2 L5 L7 L6 L10 L13 L15 L16 D3"/>
        </routeDistribution>
    </vehicle>
    <vehicle id="254" depart="2826.00">
        <routeDistribution last="0">
            <route cost="270.18" probability="1.00000000" edges="D1 L2 L5 L7 L6 L10 L13 L15 L16 D3"/>
        </routeDistribution>
    </vehicle>
    <vehicle id="614" depart="2973.00">
        <routeDistribution last="0">
            <route cost="270.18" probability="1.00000000" edges="D1 L2 L5 L7 L6 L10 L13 L15 L16 D3"/>
        </routeDistribution>
    </vehicle>
    <vehicle id="523" depart="2974.00">
        <routeDistribution last="0">
            <route cost="270.18" probability="1.00000000" edges="D1 L2 L5 L7 L6 L10 L13 L15 L16 D3"/>
        </routeDistribution>
    </vehicle>
    <vehicle id="228" depart="3072.00">
        <routeDistribution last="0">
            <route cost="270.18" probability="1.00000000" edges="D1 L2 L5 L7 L6 L10 L13 L15 L16 D3"/>
        </routeDistribution>
    </vehicle>
    <vehicle id="722" depart="3082.00">
        <routeDistribution last="0">
            <route cost="270.18" probability="1.00000000" edges="D1 L2 L5 L7 L6 L10 L13 L15 L16 D3"/>
        </routeDistribution>
    </vehicle>
    <vehicle id="107" depart="3109.00">
        <routeDistribution last="0">
            <route cost="270.18" probability="1.00000000" edges="D1 L2 L5 L7 L6 L10 L13 L15 L16 D3"/>
        </routeDistribution>
    </vehicle>
    <vehicle id="563" depart="3113.00">
        <routeDistribution last="0">
            <route cost="270.18" probability="1.00000000" edges="D1 L2 L5 L7 L6 L10 L13 L15 L16 D3"/>
        </routeDistribution>
    </vehicle>
    <vehicle id="831" depart="3127.00">
        <routeDistribution last="0">
            <route cost="269.96" probability="1.00000000" edges="D2 L3 L5 L7 L6 L10 L13 L15 L16 D3"/>
        </routeDistribution>
    </vehicle>
    <vehicle id="305" depart="3133.00">
        <routeDistribution last="0">
            <route cost="270.18" probability="1.00000000" edges="D1 L2 L5 L7 L6 L10 L13 L15 L16 D3"/>
        </routeDistribution>
    </vehicle>
    <vehicle id="372" depart="3190.00">
        <routeDistribution last="0">
            <route cost="270.18" probability="1.00000000" edges="D1 L2 L5 L7 L6 L10 L13 L15 L16 D3"/>
        </routeDistribution>
    </vehicle>
    <vehicle id="721" depart="3269.00">
        <routeDistribution last="0">
            <route cost="270.18" probability="1.00000000" edges="D1 L2 L5 L7 L6 L10 L13 L15 L16 D3"/>
        </routeDistribution>
    </vehicle>
    <vehicle id="581" depart="3542.00">
        <routeDistribution last="0">
            <route cost="270.18" probability="1.00000000" edges="D1 L2 L5 L7 L6 L10 L13 L15 L16 D3"/>
        </routeDistribution>
    </vehicle>
    <vehicle id="552" depart="3613.00">
        <routeDistribution last="0">
            <route cost="270.18" probability="1.00000000" edges="D1 L2 L5 L7 L6 L10 L13 L15 L16 D3"/>
        </routeDistribution>
    </vehicle>
    <vehicle id="871" depart="3810.00">
        <routeDistribution last="0">
            <route cost="269.96" probability="1.00000000" edges="D2 L3 L5 L7 L6 L10 L13 L15 L16 D3"/>
        </routeDistribution>
    </vehicle>
    <vehicle id="589" depart="3906.00">
        <routeDistribution last="0">
            <route cost="270.18" probability="1.00000000" edges="D1 L2 L5 L7 L6 L10 L13 L15 L16 D3"/>
        </routeDistribution>
    </vehicle>
    <vehicle id="440" depart="4033.00">
        <routeDistribution last="0">
            <route cost="270.18" probability="1.00000000" edges="D1 L2 L5 L7 L6 L10 L13 L15 L16 D3"/>
        </routeDistribution>
    </vehicle>
    <vehicle id="38" depart="4073.00">
        <routeDistribution last="0">
            <route cost="270.18" probability="1.00000000" edges="D1 L2 L5 L7 L6 L10 L13 L15 L16 D3"/>
        </routeDistribution>
    </vehicle>
    <vehicle id="886" depart="4202.00">
        <routeDistribution last="0">
            <route cost="269.96" probability="1.00000000" edges="D2 L3 L5 L7 L6 L10 L13 L15 L16 D3"/>
        </routeDistribution>
    </vehicle>
    <vehicle id="643" depart="4285.00">
        <routeDistribution last="0">
            <route cost="270.18" probability="1.00000000" edges="D1 L2 L5 L7 L6 L10 L13 L15 L16 D3"/>
        </routeDistribution>
    </vehicle>
    <vehicle id="755" depart="4395.00">
        <routeDistribution last="0">
            <route cost="270.18" probability="1.00000000" edges="D1 L2 L5 L7 L6 L10 L13 L15 L16 D3"/>
        </routeDistribution>
    </vehicle>
    <vehicle id="868" depart="4408.00">
        <routeDistribution last="0">
            <route cost="269.96" probability="1.00000000" edges="D2 L3 L5 L7 L6 L10 L13 L15 L16 D3"/>
        </routeDistribution>
    </vehicle>
    <vehicle id="49" depart="4459.00">
        <routeDistribution last="0">
            <route cost="270.18" probability="1.00000000" edges="D1 L2 L5 L7 L6 L10 L13 L15 L16 D3"/>
        </routeDistribution>
    </vehicle>
    <vehicle id="780" depart="4573.00">
        <routeDistribution last="0">
            <route cost="270.18" probability="1.00000000" edges="D1 L2 L5 L7 L6 L10 L13 L15 L16 D3"/>
        </routeDistribution>
    </vehicle>
    <vehicle id="92" depart="4645.00">
        <routeDistribution last="0">
            <route cost="270.18" probability="1.00000000" edges="D1 L2 L5 L7 L6 L10 L13 L15 L16 D3"/>
        </routeDistribution>
    </vehicle>
    <vehicle id="86" depart="4736.00">
        <routeDistribution last="0">
            <route cost="270.18" probability="1.00000000" edges="D1 L2 L5 L7 L6 L10 L13 L15 L16 D3"/>
        </routeDistribution>
    </vehicle>
    <vehicle id="466" depart="4771.00">
        <routeDistribution last="0">
            <route cost="270.18" probability="1.00000000" edges="D1 L2 L5 L7 L6 L10 L13 L15 L16 D3"/>
        </routeDistribution>
    </vehicle>
    <vehicle id="601" depart="5038.00">
        <routeDistribution last="0">
            <route cost="270.18" probability="1.00000000" edges="D1 L2 L5 L7 L6 L10 L13 L15 L16 D3"/>
        </routeDistribution>
    </vehicle>
    <vehicle id="55" depart="5062.00">
        <routeDistribution last="0">
            <route cost="270.18" probability="1.00000000" edges="D1 L2 L5 L7 L6 L10 L13 L15 L16 D3"/>
        </routeDistribution>
    </vehicle>
    <vehicle id="702" depart="5109.00">
        <routeDistribution last="0">
            <route cost="270.18" probability="1.00000000" edges="D1 L2 L5 L7 L6 L10 L13 L15 L16 D3"/>
        </routeDistribution>
    </vehicle>
    <vehicle id="470" depart="5187.00">
        <routeDistribution last="0">
            <route cost="270.18" probability="1.00000000" edges="D1 L2 L5 L7 L6 L10 L13 L15 L16 D3"/>
        </routeDistribution>
    </vehicle>
    <vehicle id="98" depart="5267.00">
        <routeDistribution last="0">
            <route cost="270.18" probability="1.00000000" edges="D1 L2 L5 L7 L6 L10 L13 L15 L16 D3"/>
        </routeDistribution>
    </vehicle>
    <vehicle id="666" depart="5274.00">
        <routeDistribution last="0">
            <route cost="270.18" probability="1.00000000" edges="D1 L2 L5 L7 L6 L10 L13 L15 L16 D3"/>
        </routeDistribution>
    </vehicle>
    <vehicle id="436" depart="5277.00">
        <routeDistribution last="0">
            <route cost="270.18" probability="1.00000000" edges="D1 L2 L5 L7 L6 L10 L13 L15 L16 D3"/>
        </routeDistribution>
    </vehicle>
    <vehicle id="273" depart="5354.00">
        <routeDistribution last="0">
            <route cost="270.18" probability="1.00000000" edges="D1 L2 L5 L7 L6 L10 L13 L15 L16 D3"/>
        </routeDistribution>
    </vehicle>
    <vehicle id="711" depart="5367.00">
        <routeDistribution last="0">
            <route cost="270.18" probability="1.00000000" edges="D1 L2 L5 L7 L6 L10 L13 L15 L16 D3"/>
        </routeDistribution>
    </vehicle>
    <vehicle id="432" depart="5456.00">
        <routeDistribution last="0">
            <route cost="270.18" probability="1.00000000" edges="D1 L2 L5 L7 L6 L10 L13 L15 L16 D3"/>
        </routeDistribution>
    </vehicle>
    <vehicle id="175" depart="5592.00">
        <routeDistribution last="0">
            <route cost="270.18" probability="1.00000000" edges="D1 L2 L5 L7 L6 L10 L13 L15 L16 D3"/>
        </routeDistribution>
    </vehicle>
    <vehicle id="307" depart="5630.00">
        <routeDistribution last="0">
            <route cost="270.18" probability="1.00000000" edges="D1 L2 L5 L7 L6 L10 L13 L15 L16 D3"/>
        </routeDistribution>
    </vehicle>
    <vehicle id="749" depart="5829.00">
        <routeDistribution last="0">
            <route cost="270.18" probability="1.00000000" edges="D1 L2 L5 L7 L6 L10 L13 L15 L16 D3"/>
        </routeDistribution>
    </vehicle>
    <vehicle id="123" depart="5880.00">
        <routeDistribution last="0">
            <route cost="270.18" probability="1.00000000" edges="D1 L2 L5 L7 L6 L10 L13 L15 L16 D3"/>
        </routeDistribution>
    </vehicle>
    <vehicle id="181" depart="5971.00">
        <routeDistribution last="0">
            <route cost="270.18" probability="1.00000000" edges="D1 L2 L5 L7 L6 L10 L13 L15 L16 D3"/>
        </routeDistribution>
    </vehicle>
    <vehicle id="517" depart="6172.00">
        <routeDistribution last="0">
            <route cost="270.18" probability="1.00000000" edges="D1 L2 L5 L7 L6 L10 L13 L15 L16 D3"/>
        </routeDistribution>
    </vehicle>
    <vehicle id="587" depart="6193.00">
        <routeDistribution last="0">
            <route cost="270.18" probability="1.00000000" edges="D1 L2 L5 L7 L6 L10 L13 L15 L16 D3"/>
        </routeDistribution>
    </vehicle>
    <vehicle id="271" depart="6315.00">
        <routeDistribution last="0">
            <route cost="270.18" probability="1.00000000" edges="D1 L2 L5 L7 L6 L10 L13 L15 L16 D3"/>
        </routeDistribution>
    </vehicle>
    <vehicle id="766" depart="6365.00">
        <routeDistribution last="0">
            <route cost="270.18" probability="1.00000000" edges="D1 L2 L5 L7 L6 L10 L13 L15 L16 D3"/>
        </routeDistribution>
    </vehicle>
    <vehicle id="634" depart="6368.00">
        <routeDistribution last="0">
            <route cost="270.18" probability="1.00000000" edges="D1 L2 L5 L7 L6 L10 L13 L15 L16 D3"/>
        </routeDistribution>
    </vehicle>
    <vehicle id="280" depart="6463.00">
        <routeDistribution last="0">
            <route cost="270.18" probability="1.00000000" edges="D1 L2 L5 L7 L6 L10 L13 L15 L16 D3"/>
        </routeDistribution>
    </vehicle>
    <vehicle id="323" depart="6485.00">
        <routeDistribution last="0">
            <route cost="270.18" probability="1.00000000" edges="D1 L2 L5 L7 L6 L10 L13 L15 L16 D3"/>
        </routeDistribution>
    </vehicle>
    <vehicle id="293" depart="6551.00">
        <routeDistribution last="0">
            <route cost="270.18" probability="1.00000000" edges="D1 L2 L5 L7 L6 L10 L13 L15 L16 D3"/>
        </routeDistribution>
    </vehicle>
    <vehicle id="864" depart="6609.00">
        <routeDistribution last="0">
            <route cost="269.96" probability="1.00000000" edges="D2 L3 L5 L7 L6 L10 L13 L15 L16 D3"/>
        </routeDistribution>
    </vehicle>
    <vehicle id="39" depart="6626.00">
        <routeDistribution last="0">
            <route cost="270.18" probability="1.00000000" edges="D1 L2 L5 L7 L6 L10 L13 L15 L16 D3"/>
        </routeDistribution>
    </vehicle>
    <vehicle id="817" depart="6742.00">
        <routeDistribution last="0">
            <route cost="269.96" probability="1.00000000" edges="D2 L3 L5 L7 L6 L10 L13 L15 L16 D3"/>
        </routeDistribution>
    </vehicle>
    <vehicle id="829" depart="6949.00">
        <routeDistribution last="0">
            <route cost="269.96" probability="1.00000000" edges="D2 L3 L5 L7 L6 L10 L13 L15 L16 D3"/>
        </routeDistribution>
    </vehicle>
    <vehicle id="352" depart="7004.00">
        <routeDistribution last="0">
            <route cost="270.18" probability="1.00000000" edges="D1 L2 L5 L7 L6 L10 L13 L15 L16 D3"/>
        </routeDistribution>
    </vehicle>
    <vehicle id="109" depart="7014.00">
        <routeDistribution last="0">
            <route cost="270.18" probability="1.00000000" edges="D1 L2 L5 L7 L6 L10 L13 L15 L16 D3"/>
        </routeDistribution>
    </vehicle>
    <vehicle id="819" depart="7044.00">
        <routeDistribution last="0">
            <route cost="269.96" probability="1.00000000" edges="D2 L3 L5 L7 L6 L10 L13 L15 L16 D3"/>
        </routeDistribution>
    </vehicle>
    <vehicle id="207" depart="7165.00">
        <routeDistribution last="0">
            <route cost="270.18" probability="1.00000000" edges="D1 L2 L5 L7 L6 L10 L13 L15 L16 D3"/>
        </routeDistribution>
    </vehicle>
    <vehicle id="26" depart="7204.00">
        <routeDistribution last="0">
            <route cost="270.18" probability="1.00000000" edges="D1 L2 L5 L7 L6 L10 L13 L15 L16 D3"/>
        </routeDistribution>
    </vehicle>
    <vehicle id="41" depart="7384.00">
        <routeDistribution last="0">
            <route cost="270.18" probability="1.00000000" edges="D1 L2 L5 L7 L6 L10 L13 L15 L16 D3"/>
        </routeDistribution>
    </vehicle>
    <vehicle id="925" depart="7419.00">
        <routeDistribution last="0">
            <route cost="269.96" probability="1.00000000" edges="D2 L3 L5 L7 L6 L10 L13 L15 L16 D3"/>
        </routeDistribution>
    </vehicle>
    <vehicle id="670" depart="7840.00">
        <routeDistribution last="0">
            <route cost="270.18" probability="1.00000000" edges="D1 L2 L5 L7 L6 L10 L13 L15 L16 D3"/>
        </routeDistribution>
    </vehicle>
    <vehicle id="978" depart="7893.00">
        <routeDistribution last="0">
            <route cost="269.96" probability="1.00000000" edges="D2 L3 L5 L7 L6 L10 L13 L15 L16 D3"/>
        </routeDistribution>
    </vehicle>
    <vehicle id="112" depart="7895.00">
        <routeDistribution last="0">
            <route cost="270.18" probability="1.00000000" edges="D1 L2 L5 L7 L6 L10 L13 L15 L16 D3"/>
        </routeDistribution>
    </vehicle>
    <vehicle id="267" depart="8098.00">
        <routeDistribution last="0">
            <route cost="270.18" probability="1.00000000" edges="D1 L2 L5 L7 L6 L10 L13 L15 L16 D3"/>
        </routeDistribution>
    </vehicle>
    <vehicle id="475" depart="8135.00">
        <routeDistribution last="0">
            <route cost="270.18" probability="1.00000000" edges="D1 L2 L5 L7 L6 L10 L13 L15 L16 D3"/>
        </routeDistribution>
    </vehicle>
    <vehicle id="7" depart="8274.00">
        <routeDistribution last="0">
            <route cost="270.18" probability="1.00000000" edges="D1 L2 L5 L7 L6 L10 L13 L15 L16 D3"/>
        </routeDistribution>
    </vehicle>
    <vehicle id="615" depart="8325.00">
        <routeDistribution last="0">
            <route cost="270.18" probability="1.00000000" edges="D1 L2 L5 L7 L6 L10 L13 L15 L16 D3"/>
        </routeDistribution>
    </vehicle>
    <vehicle id="996" depart="8349.00">
        <routeDistribution last="0">
            <route cost="269.96" probability="1.00000000" edges="D2 L3 L5 L7 L6 L10 L13 L15 L16 D3"/>
        </routeDistribution>
    </vehicle>
    <vehicle id="850" depart="8426.00">
        <routeDistribution last="0">
            <route cost="269.96" probability="1.00000000" edges="D2 L3 L5 L7 L6 L10 L13 L15 L16 D3"/>
        </routeDistribution>
    </vehicle>
    <vehicle id="406" depart="8702.00">
        <routeDistribution last="0">
            <route cost="270.18" probability="1.00000000" edges="D1 L2 L5 L7 L6 L10 L13 L15 L16 D3"/>
        </routeDistribution>
    </vehicle>
    <vehicle id="412" depart="8722.00">
        <routeDistribution last="0">
            <route cost="270.18" probability="1.00000000" edges="D1 L2 L5 L7 L6 L10 L13 L15 L16 D3"/>
        </routeDistribution>
    </vehicle>
    <vehicle id="604" depart="8799.00">
        <routeDistribution last="0">
            <route cost="270.18" probability="1.00000000" edges="D1 L2 L5 L7 L6 L10 L13 L15 L16 D3"/>
        </routeDistribution>
    </vehicle>
    <vehicle id="488" depart="8912.00">
        <routeDistribution last="0">
            <route cost="270.18" probability="1.00000000" edges="D1 L2 L5 L7 L6 L10 L13 L15 L16 D3"/>
        </routeDistribution>
    </vehicle>
    <vehicle id="457" depart="9063.00">
        <routeDistribution last="0">
            <route cost="270.18" probability="1.00000000" edges="D1 L2 L5 L7 L6 L10 L13 L15 L16 D3"/>
        </routeDistribution>
    </vehicle>
    <vehicle id="173" depart="9219.00">
        <routeDistribution last="0">
            <route cost="270.18" probability="1.00000000" edges="D1 L2 L5 L7 L6 L10 L13 L15 L16 D3"/>
        </routeDistribution>
    </vehicle>
    <vehicle id="964" depart="9280.00">
        <routeDistribution last="0">
            <route cost="269.96" probability="1.00000000" edges="D2 L3 L5 L7 L6 L10 L13 L15 L16 D3"/>
        </routeDistribution>
    </vehicle>
    <vehicle id="954" depart="9336.00">
        <routeDistribution last="0">
            <route cost="269.96" probability="1.00000000" edges="D2 L3 L5 L7 L6 L10 L13 L15 L16 D3"/>
        </routeDistribution>
    </vehicle>
    <vehicle id="648" depart="9348.00">
        <routeDistribution last="0">
            <route cost="270.18" probability="1.00000000" edges="D1 L2 L5 L7 L6 L10 L13 L15 L16 D3"/>
        </routeDistribution>
    </vehicle>
    <vehicle id="1" depart="9514.00">
        <routeDistribution last="0">
            <route cost="270.18" probability="1.00000000" edges="D1 L2 L5 L7 L6 L10 L13 L15 L16 D3"/>
        </routeDistribution>
    </vehicle>
    <vehicle id="948" depart="9534.00">
        <routeDistribution last="0">
            <route cost="269.96" probability="1.00000000" edges="D2 L3 L5 L7 L6 L10 L13 L15 L16 D3"/>
        </routeDistribution>
    </vehicle>
    <vehicle id="838" depart="9565.00">
        <routeDistribution last="0">
            <route cost="269.96" probability="1.00000000" edges="D2 L3 L5 L7 L6 L10 L13 L15 L16 D3"/>
        </routeDistribution>
    </vehicle>
    <vehicle id="727" depart="9787.00">
        <routeDistribution last="0">
            <route cost="270.18" probability="1.00000000" edges="D1 L2 L5 L7 L6 L10 L13 L15 L16 D3"/>
        </routeDistribution>
    </vehicle>
    <vehicle id="510" depart="9814.00">
        <routeDistribution last="0">
            <route cost="270.18" probability="1.00000000" edges="D1 L2 L5 L7 L6 L10 L13 L15 L16 D3"/>
        </routeDistribution>
    </vehicle>
    <vehicle id="729" depart="9935.00">
        <routeDistribution last="0">
            <route cost="270.18" probability="1.00000000" edges="D1 L2 L5 L7 L6 L10 L13 L15 L16 D3"/>
        </routeDistribution>
    </vehicle>
    <vehicle id="642" depart="10182.00">
        <routeDistribution last="0">
            <route cost="270.18" probability="1.00000000" edges="D1 L2 L5 L7 L6 L10 L13 L15 L16 D3"/>
        </routeDistribution>
    </vehicle>
    <vehicle id="331" depart="10196.00">
        <routeDistribution last="0">
            <route cost="270.18" probability="1.00000000" edges="D1 L2 L5 L7 L6 L10 L13 L15 L16 D3"/>
        </routeDistribution>
    </vehicle>
    <vehicle id="540" depart="10237.00">
        <routeDistribution last="0">
            <route cost="270.18" probability="1.00000000" edges="D1 L2 L5 L7 L6 L10 L13 L15 L16 D3"/>
        </routeDistribution>
    </vehicle>
    <vehicle id="24" depart="10310.00">
        <routeDistribution last="0">
            <route cost="270.18" probability="1.00000000" edges="D1 L2 L5 L7 L6 L10 L13 L15 L16 D3"/>
        </routeDistribution>
    </vehicle>
    <vehicle id="405" depart="10370.00">
        <routeDistribution last="0">
            <route cost="270.18" probability="1.00000000" edges="D1 L2 L5 L7 L6 L10 L13 L15 L16 D3"/>
        </routeDistribution>
    </vehicle>
    <vehicle id="599" depart="10407.00">
        <routeDistribution last="0">
            <route cost="270.18" probability="1.00000000" edges="D1 L2 L5 L7 L6 L10 L13 L15 L16 D3"/>
        </routeDistribution>
    </vehicle>
    <vehicle id="845" depart="10511.00">
        <routeDistribution last="0">
            <route cost="269.96" probability="1.00000000" edges="D2 L3 L5 L7 L6 L10 L13 L15 L16 D3"/>
        </routeDistribution>
    </vehicle>
    <vehicle id="419" depart="10756.00">
        <routeDistribution last="0">
            <route cost="270.18" probability="1.00000000" edges="D1 L2 L5 L7 L6 L10 L13 L15 L16 D3"/>
        </routeDistribution>
    </vehicle>
    <vehicle id="238" depart="11012.00">
        <routeDistribution last="0">
            <route cost="270.18" probability="1.00000000" edges="D1 L2 L5 L7 L6 L10 L13 L15 L16 D3"/>
        </routeDistribution>
    </vehicle>
    <vehicle id="311" depart="11039.00">
        <routeDistribution last="0">
            <route cost="270.18" probability="1.00000000" edges="D1 L2 L5 L7 L6 L10 L13 L15 L16 D3"/>
        </routeDistribution>
    </vehicle>
    <vehicle id="387" depart="11045.00">
        <routeDistribution last="0">
            <route cost="270.18" probability="1.00000000" edges="D1 L2 L5 L7 L6 L10 L13 L15 L16 D3"/>
        </routeDistribution>
    </vehicle>
    <vehicle id="240" depart="11270.00">
        <routeDistribution last="0">
            <route cost="270.18" probability="1.00000000" edges="D1 L2 L5 L7 L6 L10 L13 L15 L16 D3"/>
        </routeDistribution>
    </vehicle>
    <vehicle id="903" depart="11297.00">
        <routeDistribution last="0">
            <route cost="269.96" probability="1.00000000" edges="D2 L3 L5 L7 L6 L10 L13 L15 L16 D3"/>
        </routeDistribution>
    </vehicle>
    <vehicle id="14" depart="11312.00">
        <routeDistribution last="0">
            <route cost="270.18" probability="1.00000000" edges="D1 L2 L5 L7 L6 L10 L13 L15 L16 D3"/>
        </routeDistribution>
    </vehicle>
    <vehicle id="19" depart="11319.00">
        <routeDistribution last="0">
            <route cost="270.18" probability="1.00000000" edges="D1 L2 L5 L7 L6 L10 L13 L15 L16 D3"/>
        </routeDistribution>
    </vehicle>
    <vehicle id="961" depart="11339.00">
        <routeDistribution last="0">
            <route cost="269.96" probability="1.00000000" edges="D2 L3 L5 L7 L6 L10 L13 L15 L16 D3"/>
        </routeDistribution>
    </vehicle>
    <vehicle id="980" depart="11358.00">
        <routeDistribution last="0">
            <route cost="269.96" probability="1.00000000" edges="D2 L3 L5 L7 L6 L10 L13 L15 L16 D3"/>
        </routeDistribution>
    </vehicle>
    <vehicle id="346" depart="11482.00">
        <routeDistribution last="0">