<?xml version="1.0" encoding="UTF-8"?>

<routes xmlns:xsi="http://www.w3.org/2001/XMLSchema-instance" xsi:noNamespaceSchemaLocation="http://sumo.dlr.de/xsd/routes_file.xsd">
    <vehicle id="ego" depart="0.00">
        <route edges="A0A1 A1B1 B1C1 C1C2 C2D2 D2D3"/>
    </vehicle>
</routes>
