<?xml version="1.0" encoding="UTF-8"?>

<!-- generated on 2021-11-18 17:21:22 by Eclipse SUMO netedit Version v1_10_0+2420-ebd20987dc0
<configuration xmlns:xsi="http://www.w3.org/2001/XMLSchema-instance" xsi:noNamespaceSchemaLocation="http://sumo.dlr.de/xsd/netconvertConfiguration.xsd">

    <input>
        <sumo-net-file value="C:\Users\alva_pa\.texttest\tmp\netedit.gui.18Nov171723.28616\netedit.gui\additionalElements\rerouterelements\parkingareareroute\load\visible\input_net.net.xml"/>
    </input>

    <output>
        <output-file value="C:\Users\alva_pa\.texttest\tmp\netedit.gui.18Nov171723.28616\netedit.gui\additionalElements\rerouterelements\parkingareareroute\load\visible\net.net.xml"/>
    </output>

    <processing>
        <geometry.min-radius.fix.railways value="false"/>
        <geometry.max-grade.fix value="false"/>
        <offset.disable-normalization value="true"/>
        <lefthand value="false"/>
    </processing>

    <junctions>
        <no-turnarounds value="true"/>
        <junctions.corner-detail value="5"/>
        <junctions.limit-turn-speed value="5.5"/>
        <rectangular-lane-cut value="false"/>
    </junctions>

    <pedestrian>
        <walkingareas value="false"/>
    </pedestrian>

    <netedit>
        <additional-files value="C:\Users\alva_pa\.texttest\tmp\netedit.gui.18Nov171723.28616\netedit.gui\additionalElements\rerouterelements\parkingareareroute\load\visible\additionals.xml"/>
        <additionals-output value="C:\Users\alva_pa\.texttest\tmp\netedit.gui.18Nov171723.28616\netedit.gui\additionalElements\rerouterelements\parkingareareroute\load\visible\additionals.xml"/>
        <route-files value="C:\Users\alva_pa\.texttest\tmp\netedit.gui.18Nov171723.28616\netedit.gui\additionalElements\rerouterelements\parkingareareroute\load\visible\routes.xml"/>
        <demandelements-output value="C:\Users\alva_pa\.texttest\tmp\netedit.gui.18Nov171723.28616\netedit.gui\additionalElements\rerouterelements\parkingareareroute\load\visible\routes.xml"/>
        <data-files value="C:\Users\alva_pa\.texttest\tmp\netedit.gui.18Nov171723.28616\netedit.gui\additionalElements\rerouterelements\parkingareareroute\load\visible\datas.xml"/>
        <dataelements-output value="C:\Users\alva_pa\.texttest\tmp\netedit.gui.18Nov171723.28616\netedit.gui\additionalElements\rerouterelements\parkingareareroute\load\visible\datas.xml"/>
    </netedit>

    <visualisation>
        <gui-settings-file value="C:\Users\alva_pa\.texttest\tmp\netedit.gui.18Nov171723.28616\netedit.gui\additionalElements\rerouterelements\parkingareareroute\load\visible\gui-settings.xml"/>
        <window-size value="936,697"/>
        <window-pos value="50,50"/>
        <gui-testing value="true"/>
        <gui-testing-debug value="true"/>
        <gui-testing-debug-gl value="true"/>
        <gui-testing.setting-output value="C:\Users\alva_pa\.texttest\tmp\netedit.gui.18Nov171723.28616\netedit.gui\additionalElements\rerouterelements\parkingareareroute\load\visible\guisettingsoutput.xml"/>
    </visualisation>

    <report>
        <no-warnings value="true"/>
        <aggregate-warnings value="5"/>
        <error-log value="C:\Users\alva_pa\.texttest\tmp\netedit.gui.18Nov171723.28616\netedit.gui\additionalElements\rerouterelements\parkingareareroute\load\visible\log.txt"/>
    </report>

</configuration>
-->

<additional xmlns:xsi="http://www.w3.org/2001/XMLSchema-instance" xsi:noNamespaceSchemaLocation="http://sumo.dlr.de/xsd/additional_file.xsd">
    <parkingArea id="parkingArea" lane="gneE1_0" startPos="25.00" endPos="35.00"/>
    <rerouter id="rerouter_0" edges="gneE0 gneE1" pos="0.00,10.00">
        <interval begin="0.00" end="3600.00">
            <parkingAreaReroute id="parkingArea"/>
            <parkingAreaReroute id="parkingArea"/>
            <parkingAreaReroute id="parkingArea" visible="1"/>
        </interval>
    </rerouter>
</additional>
