<?xml version="1.0" encoding="UTF-8"?>

<!-- generated on 2022-10-06 13:53:22 by Eclipse SUMO netedit Version v1_14_1+1476-a38e5c2ef32
-->

<routes xmlns:xsi="http://www.w3.org/2001/XMLSchema-instance" xsi:noNamespaceSchemaLocation="http://sumo.dlr.de/xsd/routes_file.xsd">
    <!-- Routes -->
    <route id="route_0" edges="gneE0 gneE1" color="yellow"/>
    <!-- Vehicles, persons and containers (sorted by depart) -->
    <flow id="routeFlow" begin="0.00" route="route_0" end="3600.00" number="18">
        <stop lane="gneE1_0" startPos="18.28" endPos="28.28" duration="60.00" friendlyPos="1"/>
        <stop lane="gneE1_0" startPos="18.15" endPos="28.15" duration="60.00" friendlyPos="1"/>
        <stop lane="gneE1_0" startPos="18.04" endPos="28.04" duration="60.00" friendlyPos="1"/>
        <stop lane="gneE1_0" startPos="17.95" endPos="27.95" duration="60.00" friendlyPos="1"/>
        <stop lane="gneE1_0" startPos="17.93" endPos="27.93" duration="60.00" friendlyPos="1"/>
        <stop lane="gneE1_0" startPos="17.89" endPos="27.89" duration="60.00" friendlyPos="1"/>
        <stop lane="gneE1_0" startPos="17.82" endPos="27.82" duration="60.00" friendlyPos="1"/>
        <stop lane="gneE1_0" startPos="17.78" endPos="27.78" duration="60.00" friendlyPos="1"/>
    </flow>
</routes>
