<?xml version="1.0" encoding="UTF-8"?>

<!-- generated on 2023-07-18 15:54:15 by Eclipse SUMO netedit Version v1_18_0+0375-b4934692cfe
-->

<routes xmlns:xsi="http://www.w3.org/2001/XMLSchema-instance" xsi:noNamespaceSchemaLocation="http://sumo.dlr.de/xsd/routes_file.xsd">
    <!-- Vehicles, persons and containers (sorted by depart) -->
    <flow id="flow_0" begin="0.00" from="Edge0" to="Edge2" end="36.00" number="18"/>
    <flow id="flow_1" begin="0.00" from="Edge0" to="Edge2" end="36.00" number="18"/>
    <flow id="flow_2" begin="0.00" from="Edge0" to="Edge2" end="36.00" number="18">
        <stop chargingStation="chargingStationA" speed="10.00"/>
    </flow>
    <flow id="flow_3" begin="0.00" from="Edge0" to="Edge2" end="36.00" number="18">
        <stop chargingStation="chargingStationA" until="0.00" speed="10.00"/>
    </flow>
    <flow id="flow_4" begin="0.00" from="Edge0" to="Edge2" end="36.00" number="18">
        <stop chargingStation="chargingStationA" until="2.30" speed="10.00"/>
    </flow>
</routes>
