<trips>
	<trip id="0" depart="0" from="beg" to="rend"/>
	<trip id="1" depart="10" from="beg" to="rend"/>
	<trip id="2" depart="20" from="beg" to="rend"/>
	<trip id="3" depart="30" from="beg" to="rend"/>
	<trip id="4" depart="40" from="beg" to="rend"/>
	<trip id="5" depart="50" from="beg" to="rend"/>
	<trip id="6" depart="60" from="beg" to="rend"/>
	<trip id="7" depart="70" from="beg" to="rend"/>
	<trip id="8" depart="80" from="beg" to="rend"/>
	<trip id="9" depart="90" from="beg" to="rend"/>
	<trip id="10" depart="100" from="beg" to="rend"/>
	<trip id="11" depart="110" from="beg" to="rend"/>
	<trip id="12" depart="120" from="beg" to="rend"/>
	<trip id="13" depart="130" from="beg" to="rend"/>
	<trip id="14" depart="140" from="beg" to="rend"/>
	<trip id="15" depart="150" from="beg" to="rend"/>
	<trip id="16" depart="160" from="beg" to="rend"/>
	<trip id="17" depart="170" from="beg" to="rend"/>
	<trip id="18" depart="180" from="beg" to="rend"/>
	<trip id="19" depart="190" from="beg" to="rend"/>
</trips>
