<?xml version="1.0" encoding="UTF-8"?>

<!-- generated on 2023-08-02 09:22:14 by Eclipse SUMO netedit Version v1_18_0+0677-13ce7251e4f
-->

<additional xmlns:xsi="http://www.w3.org/2001/XMLSchema-instance" xsi:noNamespaceSchemaLocation="http://sumo.dlr.de/xsd/additional_file.xsd">
    <!-- JuPedSim elements -->
    <poly id="jps.walkable_area_2" type="jupedsim.walkable_area" color="179,217,255" fill="1" layer="1.00" shape="10.000000,-40.000000 20.000000,-40.000000 20.000000,-50.000000 20.000000,-50.000000 10.000000,-50.000000 10.000000,-50.000000 10.000000,-40.000000"/>
    <poly id="jps.walkable_area_3" type="jupedsim.walkable_area" color="179,217,255" fill="1" layer="1.00" shape="40.000000,-40.000000"/>
    <poly id="jps.walkable_area_4" type="jupedsim.walkable_area" color="179,217,255" fill="1" layer="1.00" shape="-70.000000,40.000000 -60.000000,40.000000 -70.000000,40.000000 -60.000000,40.000000"/>
    <poly id="jps.walkable_area_5" type="jupedsim.walkable_area" color="179,217,255" fill="1" layer="1.00" shape="-70.000000,20.000000 -60.000000,20.000000"/>
    <poly id="jps.walkable_area_6" type="jupedsim.walkable_area" color="179,217,255" fill="1" layer="1.00" shape="-50.000000,40.000000 -40.000000,40.000000 -40.000000,30.000000 -50.000000,30.000000 -50.000000,40.000000"/>
</additional>
