<?xml version="1.0" encoding="UTF-8"?>

<!-- generated on Thu Apr 23 10:49:04 2020 by Eclipse SUMO marouter Version v1_5_0+1258-f829081fbf
This data file and the accompanying materials
are made available under the terms of the Eclipse Public License v2.0
which accompanies this distribution, and is available at
http://www.eclipse.org/legal/epl-v20.html
SPDX-License-Identifier: EPL-2.0
<configuration xmlns:xsi="http://www.w3.org/2001/XMLSchema-instance" xsi:noNamespaceSchemaLocation="http://sumo.dlr.de/xsd/marouterConfiguration.xsd">

    <input>
        <net-file value="input_net.net.xml"/>
        <additional-files value="input_taz.taz.xml"/>
        <route-files value="input_trips.trips.xml"/>
    </input>

    <output>
        <write-license value="true"/>
        <output-file value="routes.rou.xml"/>
    </output>

    <processing>
        <routing-algorithm value="CH"/>
        <routing-threads value="1"/>
    </processing>

    <report>
        <xml-validation value="never"/>
    </report>

</configuration>
