<?xml version="1.0" encoding="UTF-8"?>

<!-- generated on 19.10.2017 14:22:02 by Netedit Version dev-SVN-r22737
<?xml version="1.0" encoding="UTF-8"?>

<configuration xmlns:xsi="http://www.w3.org/2001/XMLSchema-instance" xsi:noNamespaceSchemaLocation="http://sumo.dlr.de/xsd/netconvertConfiguration.xsd">

    <input>
        <sumo-shapes-file value="C:/Users/alva_pa/.texttest/tmp/netedit.gui.19Oct133808.4976/netedit.gui/shapeElements/poi/volatileRecomputing\input_shapes.add.xml"/>
        <sumo-net-file value="C:/Users/alva_pa/.texttest/tmp/netedit.gui.19Oct133808.4976/netedit.gui/shapeElements/poi/volatileRecomputing\input_net.net.xml"/>
    </input>

    <output>
        <additionals-output value="C:/Users/alva_pa/.texttest/tmp/netedit.gui.19Oct133808.4976/netedit.gui/shapeElements/poi/volatileRecomputing\additionals.xml"/>
        <shapes-output value="C:/Users/alva_pa/.texttest/tmp/netedit.gui.19Oct133808.4976/netedit.gui/shapeElements/poi/volatileRecomputing\shapes.xml"/>
        <output-file value="C:/Users/alva_pa/.texttest/tmp/netedit.gui.19Oct133808.4976/netedit.gui/shapeElements/poi/volatileRecomputing\net.net.xml"/>
    </output>

    <processing>
        <no-turnarounds value="true"/>
        <offset.disable-normalization value="true"/>
        <lefthand value="false"/>
        <junctions.corner-detail value="0"/>
        <rectangular-lane-cut value="false"/>
        <sidewalks.guess value="true"/>
        <crossings.guess value="true"/>
        <walkingareas value="false"/>
    </processing>

    <visualisation>
        <window-size value="700,500"/>
        <window-pos value="50,50"/>
        <gui-testing value="true"/>
        <gui-testing-debug value="true"/>
    </visualisation>

    <report>
        <no-warnings value="true"/>
        <error-log value="C:/Users/alva_pa/.texttest/tmp/netedit.gui.19Oct133808.4976/netedit.gui/shapeElements/poi/volatileRecomputing\log.txt"/>
    </report>

</configuration>
-->

<net version="0.27" walkingareas="true" xmlns:xsi="http://www.w3.org/2001/XMLSchema-instance" xsi:noNamespaceSchemaLocation="http://sumo.dlr.de/xsd/net_file.xsd">

    <location netOffset="25.00,0.00" convBoundary="0.00,0.00,50.00,0.00" origBoundary="-10000000000.00,-10000000000.00,10000000000.00,10000000000.00" projParameter="!"/>

    <edge id=":gneJ0_0" function="internal">
        <lane id=":gneJ0_0_0" index="0" disallow="pedestrian" speed="13.89" length="4.82" shape="0.00,1.65 -1.24,0.83 -1.65,0.00 -1.24,-0.83 0.00,-1.65"/>
    </edge>
    <edge id=":gneJ0_w0" function="walkingarea">
        <lane id=":gneJ0_w0_0" index="0" allow="pedestrian" speed="1.00" length="8.70" width="2.00" shape="0.00,-3.35 0.00,-5.35 0.00,5.35 0.00,3.35"/>
    </edge>
    <edge id=":gneJ1_0" function="internal">
        <lane id=":gneJ1_0_0" index="0" disallow="pedestrian" speed="13.89" length="4.82" shape="50.00,-1.65 51.24,-0.83 51.65,0.00 51.24,0.83 50.00,1.65"/>
    </edge>
    <edge id=":gneJ1_w0" function="walkingarea">
        <lane id=":gneJ1_w0_0" index="0" allow="pedestrian" speed="1.00" length="8.70" width="2.00" shape="50.00,3.35 50.00,5.35 50.00,-5.35 50.00,-3.35"/>
    </edge>

    <edge id="gneE0" from="gneJ0" to="gneJ1" priority="1">
        <lane id="gneE0_0" index="0" allow="pedestrian" speed="13.89" length="50.00" width="2.00" shape="0.00,-4.35 50.00,-4.35"/>
        <lane id="gneE0_1" index="1" disallow="pedestrian" speed="13.89" length="50.00" shape="0.00,-1.65 50.00,-1.65"/>
    </edge>
    <edge id="gneE1" from="gneJ1" to="gneJ0" priority="1">
        <lane id="gneE1_0" index="0" allow="pedestrian" speed="13.89" length="50.00" width="2.00" shape="50.00,4.35 0.00,4.35"/>
        <lane id="gneE1_1" index="1" disallow="pedestrian" speed="13.89" length="50.00" shape="50.00,1.65 0.00,1.65"/>
    </edge>

    <tlLogic id="gneJ0" type="static" programID="0" offset="0">
        <phase duration="87" state="G"/>
        <phase duration="3" state="y"/>
    </tlLogic>
    <tlLogic id="gneJ1" type="static" programID="0" offset="0">
        <phase duration="87" state="G"/>
        <phase duration="3" state="y"/>
    </tlLogic>

    <junction id="gneJ0" type="traffic_light" x="0.00" y="0.00" incLanes="gneE1_0 gneE1_1" intLanes=":gneJ0_0_0" shape="0.00,-0.05 0.00,5.35 0.00,0.05">
        <request index="0" response="0" foes="0" cont="0"/>
    </junction>
    <junction id="gneJ1" type="traffic_light" x="50.00" y="0.00" incLanes="gneE0_0 gneE0_1" intLanes=":gneJ1_0_0" shape="50.00,0.05 50.00,-5.35 50.00,-0.05">
        <request index="0" response="0" foes="0" cont="0"/>
    </junction>

    <connection from="gneE0" to="gneE1" fromLane="1" toLane="1" via=":gneJ1_0_0" tl="gneJ1" linkIndex="0" dir="t" state="o"/>
    <connection from="gneE1" to="gneE0" fromLane="1" toLane="1" via=":gneJ0_0_0" tl="gneJ0" linkIndex="0" dir="t" state="o"/>

    <connection from=":gneJ0_0" to="gneE0" fromLane="0" toLane="1" dir="t" state="M"/>
    <connection from=":gneJ1_0" to="gneE1" fromLane="0" toLane="1" dir="t" state="M"/>

    <connection from=":gneJ0_w0" to="gneE0" fromLane="0" toLane="0" dir="s" state="M"/>
    <connection from="gneE1" to=":gneJ0_w0" fromLane="0" toLane="0" dir="s" state="M"/>
    <connection from=":gneJ1_w0" to="gneE1" fromLane="0" toLane="0" dir="s" state="M"/>
    <connection from="gneE0" to=":gneJ1_w0" fromLane="0" toLane="0" dir="s" state="M"/>
</net>
