<?xml version="1.0" encoding="UTF-8"?>

<!-- generated on 11/23/14 15:47:53 by SUMO Version dev-SVN-r17367
<?xml version="1.0" encoding="UTF-8"?>

<configuration xmlns:xsi="http://www.w3.org/2001/XMLSchema-instance" xsi:noNamespaceSchemaLocation="http://sumo.dlr.de/xsd/sumoConfiguration.xsd">

    <input>
        <net-file value="net.net.xml"/>
        <route-files value="input_routes.rou.xml"/>
        <additional-files value="input_additional.add.xml"/>
    </input>

    <time>
        <begin value="0"/>
        <end value="1000"/>
    </time>

    <report>
        <xml-validation value="never"/>
        <no-duration-log value="true"/>
        <no-step-log value="true"/>
    </report>

    <mesoscopic>
        <mesosim value="true"/>
    </mesoscopic>

</configuration>
-->

<linkData xmlns:xsi="http://www.w3.org/2001/XMLSchema-instance" xsi:noNamespaceSchemaLocation="http://sumo.dlr.de/xsd/amitran/linkdata.xsd">
    <timeSlice startTime="0" duration="60000"/>
    <timeSlice startTime="60000" duration="60000">
        <link id="0" amount="2" averageSpeed="1111"/>
        <link id="3" amount="2" averageSpeed="1111"/>
        <link id="6" amount="4" averageSpeed="1055"/>
    </timeSlice>
    <timeSlice startTime="120000" duration="60000">
        <link id="0" amount="6" averageSpeed="1111"/>
        <link id="1" amount="4" averageSpeed="1111"/>
        <link id="2" amount="6" averageSpeed="1389"/>
        <link id="3" amount="6" averageSpeed="1111"/>
        <link id="4" amount="4" averageSpeed="1111"/>
        <link id="5" amount="6" averageSpeed="1389"/>
        <link id="6" amount="12" averageSpeed="1073"/>
        <link id="8" amount="12" averageSpeed="1389"/>
        <link id="10" amount="8" averageSpeed="1111"/>
    </timeSlice>
    <timeSlice startTime="180000" duration="60000">
        <link id="0" amount="12" averageSpeed="1111"/>
        <link id="1" amount="6" averageSpeed="1111"/>
        <link id="2" amount="10" averageSpeed="1373"/>
        <link id="3" amount="12" averageSpeed="1111"/>
        <link id="4" amount="10" averageSpeed="1111"/>
        <link id="5" amount="10" averageSpeed="1389"/>
        <link id="6" amount="12" averageSpeed="1075"/>
        <link id="7" amount="2" averageSpeed="1111"/>
        <link id="8" amount="12" averageSpeed="1389"/>
        <link id="9" amount="12" averageSpeed="1111"/>
        <link id="10" amount="14" averageSpeed="1111"/>
        <link id="11" amount="8" averageSpeed="1389"/>
    </timeSlice>
    <timeSlice startTime="240000" duration="60000">
        <link id="0" amount="12" averageSpeed="1111"/>
        <link id="1" amount="6" averageSpeed="1111"/>
        <link id="2" amount="12" averageSpeed="1355"/>
        <link id="3" amount="20" averageSpeed="1111"/>
        <link id="4" amount="18" averageSpeed="1111"/>
        <link id="5" amount="13" averageSpeed="1389"/>
        <link id="6" amount="16" averageSpeed="1078"/>
        <link id="7" amount="6" averageSpeed="1111"/>
        <link id="8" amount="12" averageSpeed="1389"/>
        <link id="9" amount="16" averageSpeed="1111"/>
        <link id="10" amount="18" averageSpeed="1111"/>
        <link id="11" amount="13" averageSpeed="1389"/>
    </timeSlice>
    <timeSlice startTime="300000" duration="60000">
        <link id="0" amount="13" averageSpeed="1109"/>
        <link id="1" amount="12" averageSpeed="1111"/>
        <link id="2" amount="12" averageSpeed="1348"/>
        <link id="3" amount="24" averageSpeed="1111"/>
        <link id="4" amount="18" averageSpeed="1111"/>
        <link id="5" amount="18" averageSpeed="1389"/>
        <link id="6" amount="19" averageSpeed="1079"/>
        <link id="7" amount="12" averageSpeed="1111"/>
        <link id="8" amount="12" averageSpeed="1389"/>
        <link id="9" amount="18" averageSpeed="1111"/>
        <link id="10" amount="18" averageSpeed="1111"/>
        <link id="11" amount="18" averageSpeed="1389"/>
    </timeSlice>
    <timeSlice startTime="360000" duration="60000">
        <link id="0" amount="18" averageSpeed="1104"/>
        <link id="1" amount="15" averageSpeed="1111"/>
        <link id="2" amount="17" averageSpeed="1348"/>
        <link id="3" amount="24" averageSpeed="1111"/>
        <link id="4" amount="18" averageSpeed="1111"/>
        <link id="5" amount="18" averageSpeed="1389"/>
        <link id="6" amount="24" averageSpeed="1074"/>
        <link id="7" amount="15" averageSpeed="1111"/>
        <link id="8" amount="17" averageSpeed="1389"/>
        <link id="9" amount="18" averageSpeed="1111"/>
        <link id="10" amount="18" averageSpeed="1111"/>
        <link id="11" amount="18" averageSpeed="1389"/>
    </timeSlice>
    <timeSlice startTime="420000" duration="60000">
        <link id="0" amount="23" averageSpeed="1102"/>
        <link id="1" amount="18" averageSpeed="1111"/>
        <link id="2" amount="18" averageSpeed="1349"/>
        <link id="3" amount="24" averageSpeed="1111"/>
        <link id="4" amount="18" averageSpeed="1111"/>
        <link id="5" amount="18" averageSpeed="1389"/>
        <link id="6" amount="29" averageSpeed="1073"/>
        <link id="7" amount="18" averageSpeed="1111"/>
        <link id="8" amount="18" averageSpeed="1389"/>
        <link id="9" amount="18" averageSpeed="1111"/>
        <link id="10" amount="18" averageSpeed="1111"/>
        <link id="11" amount="18" averageSpeed="1389"/>
    </timeSlice>
    <timeSlice startTime="480000" duration="60000">
        <link id="0" amount="24" averageSpeed="1100"/>
        <link id="1" amount="18" averageSpeed="1111"/>
        <link id="2" amount="18" averageSpeed="1350"/>
        <link id="3" amount="24" averageSpeed="1111"/>
        <link id="4" amount="18" averageSpeed="1111"/>
        <link id="5" amount="18" averageSpeed="1389"/>
        <link id="6" amount="30" averageSpeed="1073"/>
        <link id="7" amount="18" averageSpeed="1111"/>
        <link id="8" amount="18" averageSpeed="1389"/>
        <link id="9" amount="18" averageSpeed="1111"/>
        <link id="10" amount="18" averageSpeed="1111"/>
        <link id="11" amount="18" averageSpeed="1389"/>
    </timeSlice>
    <timeSlice startTime="540000" duration="60000">
        <link id="0" amount="24" averageSpeed="1100"/>
        <link id="1" amount="18" averageSpeed="1111"/>
        <link id="2" amount="18" averageSpeed="1350"/>
        <link id="3" amount="24" averageSpeed="1111"/>
        <link id="4" amount="18" averageSpeed="1111"/>
        <link id="5" amount="18" averageSpeed="1389"/>
        <link id="6" amount="30" averageSpeed="1073"/>
        <link id="7" amount="18" averageSpeed="1111"/>
        <link id="8" amount="18" averageSpeed="1389"/>
        <link id="9" amount="18" averageSpeed="1111"/>
        <link id="10" amount="18" averageSpeed="1111"/>
        <link id="11" amount="18" averageSpeed="1389"/>
    </timeSlice>
    <timeSlice startTime="600000" duration="60000">
        <link id="0" amount="24" averageSpeed="1099"/>
        <link id="1" amount="18" averageSpeed="1111"/>
        <link id="2" amount="18" averageSpeed="1350"/>
        <link id="3" amount="24" averageSpeed="1111"/>
        <link id="4" amount="18" averageSpeed="1111"/>
        <link id="5" amount="18" averageSpeed="1389"/>
        <link id="6" amount="30" averageSpeed="1073"/>
        <link id="7" amount="18" averageSpeed="1111"/>
        <link id="8" amount="18" averageSpeed="1389"/>
        <link id="9" amount="18" averageSpeed="1111"/>
        <link id="10" amount="18" averageSpeed="1111"/>
        <link id="11" amount="18" averageSpeed="1389"/>
    </timeSlice>
    <timeSlice startTime="660000" duration="60000">
        <link id="0" amount="24" averageSpeed="1099"/>
        <link id="1" amount="18" averageSpeed="1111"/>
        <link id="2" amount="18" averageSpeed="1350"/>
        <link id="3" amount="24" averageSpeed="1111"/>
        <link id="4" amount="18" averageSpeed="1111"/>
        <link id="5" amount="18" averageSpeed="1389"/>
        <link id="6" amount="30" averageSpeed="1073"/>
        <link id="7" amount="18" averageSpeed="1111"/>
        <link id="8" amount="18" averageSpeed="1389"/>
        <link id="9" amount="18" averageSpeed="1111"/>
        <link id="10" amount="18" averageSpeed="1111"/>
        <link id="11" amount="18" averageSpeed="1389"/>
    </timeSlice>
    <timeSlice startTime="720000" duration="60000">
        <link id="0" amount="24" averageSpeed="1099"/>
        <link id="1" amount="18" averageSpeed="1111"/>
        <link id="2" amount="18" averageSpeed="1350"/>
        <link id="3" amount="24" averageSpeed="1111"/>
        <link id="4" amount="18" averageSpeed="1111"/>
        <link id="5" amount="18" averageSpeed="1389"/>
        <link id="6" amount="30" averageSpeed="1073"/>
        <link id="7" amount="18" averageSpeed="1111"/>
        <link id="8" amount="18" averageSpeed="1389"/>
        <link id="9" amount="18" averageSpeed="1111"/>
        <link id="10" amount="18" averageSpeed="1111"/>
        <link id="11" amount="18" averageSpeed="1389"/>
    </timeSlice>
    <timeSlice startTime="780000" duration="60000">
        <link id="0" amount="24" averageSpeed="1098"/>
        <link id="1" amount="18" averageSpeed="1111"/>
        <link id="2" amount="18" averageSpeed="1351"/>
        <link id="3" amount="24" averageSpeed="1111"/>
        <link id="4" amount="18" averageSpeed="1111"/>
        <link id="5" amount="18" averageSpeed="1389"/>
        <link id="6" amount="30" averageSpeed="1073"/>
        <link id="7" amount="18" averageSpeed="1111"/>
        <link id="8" amount="18" averageSpeed="1389"/>
        <link id="9" amount="18" averageSpeed="1111"/>
        <link id="10" amount="18" averageSpeed="1111"/>
        <link id="11" amount="18" averageSpeed="1389"/>
    </timeSlice>
    <timeSlice startTime="840000" duration="60000">
        <link id="0" amount="24" averageSpeed="1098"/>
        <link id="1" amount="18" averageSpeed="1111"/>
        <link id="2" amount="18" averageSpeed="1351"/>
        <link id="3" amount="24" averageSpeed="1111"/>
        <link id="4" amount="18" averageSpeed="1111"/>
        <link id="5" amount="18" averageSpeed="1389"/>
        <link id="6" amount="30" averageSpeed="1073"/>
        <link id="7" amount="18" averageSpeed="1111"/>
        <link id="8" amount="18" averageSpeed="1389"/>
        <link id="9" amount="18" averageSpeed="1111"/>
        <link id="10" amount="18" averageSpeed="1111"/>
        <link id="11" amount="18" averageSpeed="1389"/>
    </timeSlice>
    <timeSlice startTime="900000" duration="60000">
        <link id="0" amount="24" averageSpeed="1098"/>
        <link id="1" amount="18" averageSpeed="1111"/>
        <link id="2" amount="18" averageSpeed="1351"/>
        <link id="3" amount="24" averageSpeed="1111"/>
        <link id="4" amount="18" averageSpeed="1111"/>
        <link id="5" amount="18" averageSpeed="1389"/>
        <link id="6" amount="30" averageSpeed="1073"/>
        <link id="7" amount="18" averageSpeed="1111"/>
        <link id="8" amount="18" averageSpeed="1389"/>
        <link id="9" amount="18" averageSpeed="1111"/>
        <link id="10" amount="18" averageSpeed="1111"/>
        <link id="11" amount="18" averageSpeed="1389"/>
    </timeSlice>
    <timeSlice startTime="960000" duration="40000">
        <link id="0" amount="16" averageSpeed="1098"/>
        <link id="1" amount="12" averageSpeed="1111"/>
        <link id="2" amount="12" averageSpeed="1351"/>
        <link id="3" amount="16" averageSpeed="1110"/>
        <link id="4" amount="12" averageSpeed="1110"/>
        <link id="5" amount="12" averageSpeed="1388"/>
        <link id="6" amount="20" averageSpeed="1073"/>
        <link id="7" amount="12" averageSpeed="1110"/>
        <link id="8" amount="12" averageSpeed="1388"/>
        <link id="9" amount="12" averageSpeed="1110"/>
        <link id="10" amount="12" averageSpeed="1110"/>
        <link id="11" amount="12" averageSpeed="1389"/>
    </timeSlice>
</linkData>
