<?xml version="1.0" encoding="UTF-8"?>

<!-- generated on Wed Nov 19 15:58:56 2014 by SUMO Version dev-SVN-r17350ID
<?xml version="1.0" encoding="UTF-8"?>

<configuration xmlns:xsi="http://www.w3.org/2001/XMLSchema-instance" xsi:noNamespaceSchemaLocation="http://sumo.dlr.de/xsd/sumoConfiguration.xsd">

    <input>
        <net-file value="net.net.xml"/>
        <route-files value="input_routes.rou.xml"/>
        <additional-files value="input_additional.add.xml"/>
    </input>

    <time>
        <begin value="0"/>
        <end value="1000"/>
    </time>

    <report>
        <xml-validation value="never"/>
        <no-duration-log value="true"/>
        <no-step-log value="true"/>
    </report>

    <mesoscopic>
        <mesosim value="true"/>
    </mesoscopic>

</configuration>
-->

<linkData xmlns:xsi="http://www.w3.org/2001/XMLSchema-instance" xsi:noNamespaceSchemaLocation="http://sumo.dlr.de/xsd/amitran/linkdata.xsd">
    <timeSlice startTime="0" duration="300000">
        <link id="1fi" amount="60" averageSpeed="1111">
            <actorConfig id="0" amount="60" averageSpeed="1111"/>
        </link>
        <link id="1o" amount="28" averageSpeed="1111">
            <actorConfig id="0" amount="28" averageSpeed="1111"/>
        </link>
        <link id="1si" amount="52" averageSpeed="1355">
            <actorConfig id="0" amount="52" averageSpeed="1355"/>
        </link>
        <link id="2fi" amount="69" averageSpeed="1111">
            <actorConfig id="0" amount="69" averageSpeed="1111"/>
        </link>
        <link id="2o" amount="52" averageSpeed="1111">
            <actorConfig id="0" amount="52" averageSpeed="1111"/>
        </link>
        <link id="2si" amount="53" averageSpeed="1389">
            <actorConfig id="0" amount="53" averageSpeed="1389"/>
        </link>
        <link id="3fi" amount="80" averageSpeed="1077">
            <actorConfig id="0" amount="80" averageSpeed="1077"/>
        </link>
        <link id="3o" amount="12" averageSpeed="1111">
            <actorConfig id="0" amount="12" averageSpeed="1111"/>
        </link>
        <link id="3si" amount="68" averageSpeed="1389">
            <actorConfig id="0" amount="68" averageSpeed="1389"/>
        </link>
        <link id="4fi" amount="49" averageSpeed="1111">
            <actorConfig id="0" amount="49" averageSpeed="1111"/>
        </link>
        <link id="4o" amount="68" averageSpeed="1111">
            <actorConfig id="0" amount="68" averageSpeed="1111"/>
        </link>
        <link id="4si" amount="37" averageSpeed="1389">
            <actorConfig id="0" amount="37" averageSpeed="1389"/>
        </link>
    </timeSlice>
    <timeSlice startTime="300000" duration="300000">
        <link id="1fi" amount="185" averageSpeed="1099">
            <actorConfig id="0" amount="185" averageSpeed="1096"/>
        </link>
        <link id="1o" amount="153" averageSpeed="1111">
            <actorConfig id="0" amount="153" averageSpeed="1111"/>
        </link>
        <link id="1si" amount="164" averageSpeed="1350">
            <actorConfig id="0" amount="164" averageSpeed="1348"/>
        </link>
        <link id="2fi" amount="210" averageSpeed="1111">
            <actorConfig id="0" amount="210" averageSpeed="1111"/>
        </link>
        <link id="2o" amount="180" averageSpeed="1111">
            <actorConfig id="0" amount="180" averageSpeed="1111"/>
        </link>
        <link id="2si" amount="180" averageSpeed="1389">
            <actorConfig id="0" amount="180" averageSpeed="1389"/>
        </link>
        <link id="3fi" amount="215" averageSpeed="1069">
            <actorConfig id="0" amount="215" averageSpeed="1067"/>
        </link>
        <link id="3o" amount="153" averageSpeed="1111">
            <actorConfig id="0" amount="153" averageSpeed="1111"/>
        </link>
        <link id="3si" amount="164" averageSpeed="1389">
            <actorConfig id="0" amount="164" averageSpeed="1389"/>
        </link>
        <link id="4fi" amount="180" averageSpeed="1111">
            <actorConfig id="0" amount="180" averageSpeed="1111"/>
        </link>
        <link id="4o" amount="180" averageSpeed="1111">
            <actorConfig id="0" amount="180" averageSpeed="1111"/>
        </link>
        <link id="4si" amount="180" averageSpeed="1389">
            <actorConfig id="0" amount="180" averageSpeed="1389"/>
        </link>
    </timeSlice>
    <timeSlice startTime="600000" duration="300000">
        <link id="1fi" amount="210" averageSpeed="1097">
            <actorConfig id="0" amount="210" averageSpeed="1095"/>
        </link>
        <link id="1o" amount="180" averageSpeed="1111">
            <actorConfig id="0" amount="180" averageSpeed="1111"/>
        </link>
        <link id="1si" amount="180" averageSpeed="1351">
            <actorConfig id="0" amount="180" averageSpeed="1352"/>
        </link>
        <link id="2fi" amount="210" averageSpeed="1111">
            <actorConfig id="0" amount="210" averageSpeed="1111"/>
        </link>
        <link id="2o" amount="180" averageSpeed="1111">
            <actorConfig id="0" amount="180" averageSpeed="1111"/>
        </link>
        <link id="2si" amount="180" averageSpeed="1389">
            <actorConfig id="0" amount="180" averageSpeed="1389"/>
        </link>
        <link id="3fi" amount="240" averageSpeed="1068">
            <actorConfig id="0" amount="240" averageSpeed="1067"/>
        </link>
        <link id="3o" amount="180" averageSpeed="1111">
            <actorConfig id="0" amount="180" averageSpeed="1111"/>
        </link>
        <link id="3si" amount="180" averageSpeed="1389">
            <actorConfig id="0" amount="180" averageSpeed="1389"/>
        </link>
        <link id="4fi" amount="180" averageSpeed="1111">
            <actorConfig id="0" amount="180" averageSpeed="1111"/>
        </link>
        <link id="4o" amount="180" averageSpeed="1111">
            <actorConfig id="0" amount="180" averageSpeed="1111"/>
        </link>
        <link id="4si" amount="180" averageSpeed="1389">
            <actorConfig id="0" amount="180" averageSpeed="1389"/>
        </link>
    </timeSlice>
    <timeSlice startTime="900000" duration="100000">
        <link id="1fi" amount="70" averageSpeed="1097">
            <actorConfig id="0" amount="70" averageSpeed="1095"/>
        </link>
        <link id="1o" amount="60" averageSpeed="1111">
            <actorConfig id="0" amount="60" averageSpeed="1110"/>
        </link>
        <link id="1si" amount="60" averageSpeed="1351">
            <actorConfig id="0" amount="60" averageSpeed="1351"/>
        </link>
        <link id="2fi" amount="70" averageSpeed="1110">
            <actorConfig id="0" amount="70" averageSpeed="1108"/>
        </link>
        <link id="2o" amount="60" averageSpeed="1110">
            <actorConfig id="0" amount="60" averageSpeed="1109"/>
        </link>
        <link id="2si" amount="60" averageSpeed="1388">
            <actorConfig id="0" amount="60" averageSpeed="1387"/>
        </link>
        <link id="3fi" amount="80" averageSpeed="1068">
            <actorConfig id="0" amount="80" averageSpeed="1067"/>
        </link>
        <link id="3o" amount="60" averageSpeed="1110">
            <actorConfig id="0" amount="60" averageSpeed="1110"/>
        </link>
        <link id="3si" amount="60" averageSpeed="1388">
            <actorConfig id="0" amount="60" averageSpeed="1387"/>
        </link>
        <link id="4fi" amount="60" averageSpeed="1110">
            <actorConfig id="0" amount="60" averageSpeed="1109"/>
        </link>
        <link id="4o" amount="60" averageSpeed="1110">
            <actorConfig id="0" amount="60" averageSpeed="1110"/>
        </link>
        <link id="4si" amount="60" averageSpeed="1389">
            <actorConfig id="0" amount="60" averageSpeed="1389"/>
        </link>
    </timeSlice>
</linkData>
