<?xml version="1.0" encoding="UTF-8"?>

<!-- generated on Tue Aug 19 16:12:24 2014 by SUMO Version dev-SVN-r16883
<?xml version="1.0" encoding="UTF-8"?>

<configuration xmlns:xsi="http://www.w3.org/2001/XMLSchema-instance" xsi:noNamespaceSchemaLocation="http://sumo.dlr.de/xsd/sumoConfiguration.xsd">

    <input>
        <net-file value="net.net.xml"/>
        <route-files value="input_routes.rou.xml"/>
        <additional-files value="input_additional.add.xml"/>
    </input>

    <time>
        <begin value="0"/>
        <end value="1000"/>
    </time>

    <report>
        <xml-validation value="never"/>
        <no-duration-log value="true"/>
        <no-step-log value="true"/>
    </report>

</configuration>
-->

<linkData xmlns:xsi="http://www.w3.org/2001/XMLSchema-instance" xsi:noNamespaceSchemaLocation="http://sumo.dlr.de/xsd/amitran/linkdata.xsd">
    <timeSlice startTime="0" duration="300000">
        <link id="32" amount="31" averageSpeed="975">
            <actorConfig id="0" amount="31" averageSpeed="975"/>
        </link>
        <link id="33" amount="12" averageSpeed="1037">
            <actorConfig id="0" amount="12" averageSpeed="1037"/>
        </link>
        <link id="34" amount="21" averageSpeed="680">
            <actorConfig id="0" amount="21" averageSpeed="680"/>
        </link>
        <link id="35" amount="29" averageSpeed="979">
            <actorConfig id="0" amount="29" averageSpeed="979"/>
        </link>
        <link id="36" amount="19" averageSpeed="1036">
            <actorConfig id="0" amount="19" averageSpeed="1036"/>
        </link>
        <link id="37" amount="25" averageSpeed="660">
            <actorConfig id="0" amount="25" averageSpeed="660"/>
        </link>
        <link id="38" amount="40" averageSpeed="950">
            <actorConfig id="0" amount="40" averageSpeed="950"/>
        </link>
        <link id="39" amount="6" averageSpeed="1034">
            <actorConfig id="0" amount="6" averageSpeed="1034"/>
        </link>
        <link id="40" amount="36" averageSpeed="641">
            <actorConfig id="0" amount="36" averageSpeed="641"/>
        </link>
        <link id="41" amount="14" averageSpeed="1045">
            <actorConfig id="0" amount="14" averageSpeed="1045"/>
        </link>
        <link id="42" amount="28" averageSpeed="1040">
            <actorConfig id="0" amount="28" averageSpeed="1040"/>
        </link>
        <link id="43" amount="11" averageSpeed="742">
            <actorConfig id="0" amount="11" averageSpeed="742"/>
        </link>
    </timeSlice>
    <timeSlice startTime="300000" duration="300000">
        <link id="32" amount="69" averageSpeed="994">
            <actorConfig id="0" amount="69" averageSpeed="1002"/>
        </link>
        <link id="33" amount="52" averageSpeed="1040">
            <actorConfig id="0" amount="52" averageSpeed="1041"/>
        </link>
        <link id="34" amount="72" averageSpeed="555">
            <actorConfig id="0" amount="72" averageSpeed="527"/>
        </link>
        <link id="35" amount="105" averageSpeed="1006">
            <actorConfig id="0" amount="105" averageSpeed="1013"/>
        </link>
        <link id="36" amount="81" averageSpeed="1038">
            <actorConfig id="0" amount="81" averageSpeed="1038"/>
        </link>
        <link id="37" amount="72" averageSpeed="514">
            <actorConfig id="0" amount="72" averageSpeed="481"/>
        </link>
        <link id="38" amount="96" averageSpeed="975">
            <actorConfig id="0" amount="96" averageSpeed="986"/>
        </link>
        <link id="39" amount="42" averageSpeed="1036">
            <actorConfig id="0" amount="42" averageSpeed="1036"/>
        </link>
        <link id="40" amount="66" averageSpeed="564">
            <actorConfig id="0" amount="66" averageSpeed="531"/>
        </link>
        <link id="41" amount="84" averageSpeed="1043">
            <actorConfig id="0" amount="84" averageSpeed="1042"/>
        </link>
        <link id="42" amount="79" averageSpeed="1039">
            <actorConfig id="0" amount="79" averageSpeed="1038"/>
        </link>
        <link id="43" amount="77" averageSpeed="471">
            <actorConfig id="0" amount="77" averageSpeed="447"/>
        </link>
    </timeSlice>
    <timeSlice startTime="600000" duration="300000">
        <link id="32" amount="110" averageSpeed="1005">
            <actorConfig id="0" amount="110" averageSpeed="1015"/>
        </link>
        <link id="33" amount="75" averageSpeed="1038">
            <actorConfig id="0" amount="75" averageSpeed="1037"/>
        </link>
        <link id="34" amount="90" averageSpeed="457">
            <actorConfig id="0" amount="90" averageSpeed="388"/>
        </link>
        <link id="35" amount="108" averageSpeed="1009">
            <actorConfig id="0" amount="108" averageSpeed="1013"/>
        </link>
        <link id="36" amount="75" averageSpeed="1037">
            <actorConfig id="0" amount="75" averageSpeed="1037"/>
        </link>
        <link id="37" amount="78" averageSpeed="502">
            <actorConfig id="0" amount="78" averageSpeed="488"/>
        </link>
        <link id="38" amount="118" averageSpeed="989">
            <actorConfig id="0" amount="118" averageSpeed="1004"/>
        </link>
        <link id="39" amount="77" averageSpeed="1038">
            <actorConfig id="0" amount="77" averageSpeed="1039"/>
        </link>
        <link id="40" amount="62" averageSpeed="513">
            <actorConfig id="0" amount="62" averageSpeed="452"/>
        </link>
        <link id="41" amount="74" averageSpeed="1042">
            <actorConfig id="0" amount="74" averageSpeed="1042"/>
        </link>
        <link id="42" amount="78" averageSpeed="1038">
            <actorConfig id="0" amount="78" averageSpeed="1037"/>
        </link>
        <link id="43" amount="84" averageSpeed="401">
            <actorConfig id="0" amount="84" averageSpeed="346"/>
        </link>
    </timeSlice>
    <timeSlice startTime="900000" duration="100000">
        <link id="32" amount="35" averageSpeed="1006">
            <actorConfig id="0" amount="35" averageSpeed="1010"/>
        </link>
        <link id="33" amount="26" averageSpeed="1037">
            <actorConfig id="0" amount="26" averageSpeed="1029"/>
        </link>
        <link id="34" amount="28" averageSpeed="442">
            <actorConfig id="0" amount="28" averageSpeed="371"/>
        </link>
        <link id="35" amount="37" averageSpeed="1009">
            <actorConfig id="0" amount="37" averageSpeed="1012"/>
        </link>
        <link id="36" amount="24" averageSpeed="1038">
            <actorConfig id="0" amount="24" averageSpeed="1041"/>
        </link>
        <link id="37" amount="30" averageSpeed="490">
            <actorConfig id="0" amount="30" averageSpeed="431"/>
        </link>
        <link id="38" amount="39" averageSpeed="991">
            <actorConfig id="0" amount="39" averageSpeed="1004"/>
        </link>
        <link id="39" amount="24" averageSpeed="1038">
            <actorConfig id="0" amount="24" averageSpeed="1039"/>
        </link>
        <link id="40" amount="25" averageSpeed="512">
            <actorConfig id="0" amount="25" averageSpeed="505"/>
        </link>
        <link id="41" amount="23" averageSpeed="1042">
            <actorConfig id="0" amount="23" averageSpeed="1038"/>
        </link>
        <link id="42" amount="27" averageSpeed="1038">
            <actorConfig id="0" amount="27" averageSpeed="1038"/>
        </link>
        <link id="43" amount="19" averageSpeed="383">
            <actorConfig id="0" amount="19" averageSpeed="282"/>
        </link>
    </timeSlice>
</linkData>
