<additional xmlns:xsi="http://www.w3.org/2001/XMLSchema-instance" xsi:noNamespaceSchemaLocation="http://sumo.dlr.de/xsd/additional_file.xsd">
    <edgeData id="dump_60" type="amitran" freq="60" file="aggregated_60.xml"
	      excludeEmpty="true"/>
    <edgeData id="dump_300" type="amitran" freq="300" vTypes="DEFAULT_VEHTYPE" file="aggregated_300.xml"/>
</additional>
