<?xml version="1.0" encoding="UTF-8"?>

<!-- generated on 18.06.2018 15:17:25 by Eclipse SUMO netedit Version b50f1d14b4
<configuration xmlns:xsi="http://www.w3.org/2001/XMLSchema-instance" xsi:noNamespaceSchemaLocation="http://sumo.dlr.de/xsd/netconvertConfiguration.xsd">

    <input>
        <sumo-additionals-file value="C:/Users/SUMO-Test/.texttest/tmp/netedit.gui.18Jun141137.3100/netedit.gui/additionalElements/calibrator/load_values_flows\input_additionals.add.xml"/>
        <sumo-net-file value="C:/Users/SUMO-Test/.texttest/tmp/netedit.gui.18Jun141137.3100/netedit.gui/additionalElements/calibrator/load_values_flows\input_net.net.xml"/>
    </input>

    <output>
        <additionals-output value="C:/Users/SUMO-Test/.texttest/tmp/netedit.gui.18Jun141137.3100/netedit.gui/additionalElements/calibrator/load_values_flows\additionals.xml"/>
        <shapes-output value="C:/Users/SUMO-Test/.texttest/tmp/netedit.gui.18Jun141137.3100/netedit.gui/additionalElements/calibrator/load_values_flows\shapes.xml"/>
        <output-file value="C:/Users/SUMO-Test/.texttest/tmp/netedit.gui.18Jun141137.3100/netedit.gui/additionalElements/calibrator/load_values_flows\net.net.xml"/>
    </output>

    <processing>
        <no-turnarounds value="true"/>
        <offset.disable-normalization value="true"/>
        <lefthand value="false"/>
        <junctions.corner-detail value="0"/>
        <rectangular-lane-cut value="false"/>
        <walkingareas value="false"/>
    </processing>

    <visualisation>
        <gui-settings-file value="C:/Users/SUMO-Test/.texttest/tmp/netedit.gui.18Jun141137.3100/netedit.gui/additionalElements/calibrator/load_values_flows\gui-settings.xml"/>
        <window-size value="700,500"/>
        <window-pos value="50,50"/>
        <gui-testing value="true"/>
        <gui-testing-debug value="true"/>
    </visualisation>

    <report>
        <no-warnings value="true"/>
        <error-log value="C:/Users/SUMO-Test/.texttest/tmp/netedit.gui.18Jun141137.3100/netedit.gui/additionalElements/calibrator/load_values_flows\log.txt"/>
    </report>

</configuration>
-->

<additional xmlns:xsi="http://www.w3.org/2001/XMLSchema-instance" xsi:noNamespaceSchemaLocation="http://sumo.dlr.de/xsd/additional_file.xsd">
    <vType id="CalibratorFlowType" accel="0.80" color="black" vClass="private" imgFile="default.png"/>
    <vType id="typeWithoutCalibrator" accel="0.80" color="black" vClass="private" imgFile="default.png"/>
    <calibrator id="calibratorFlows" edge="gneE0" pos="20.00" freq="100.00" output="calibratorFlows.txt">
        <route id="CalibratorFlowRoute" edges="gneE0 gneE1" color="black"/>
        <flow begin="0.00" end="100.00" type="CalibratorFlowType" route="CalibratorFlowRoute" vehsPerHour="10" speed="10" line="line" arrivalPosLat="center"/>
        <flow begin="0.00" end="100.00" type="CalibratorFlowType" route="CalibratorFlowRoute" vehsPerHour="10" speed="10" line="line" arrivalPosLat="center"/>
        <flow begin="0.00" end="100.00" type="CalibratorFlowType" route="CalibratorFlowRoute" vehsPerHour="10" speed="10" line="line" arrivalPosLat="center"/>
        <flow begin="0.00" end="100.00" type="CalibratorFlowType" route="CalibratorFlowRoute" vehsPerHour="10" speed="10" line="line" arrivalPosLat="center"/>
        <flow begin="0.00" end="100.00" type="CalibratorFlowType" route="CalibratorFlowRoute" vehsPerHour="10" speed="10" line="line" arrivalPosLat="center"/>
        <flow begin="0.00" end="100.00" type="CalibratorFlowType" route="CalibratorFlowRoute" vehsPerHour="10" speed="10" line="line" arrivalPosLat="center"/>
        <flow begin="0.00" end="100.00" type="CalibratorFlowType" route="CalibratorFlowRoute" vehsPerHour="10" speed="10" line="line" arrivalPosLat="center"/>
        <flow begin="0.00" end="100.00" type="CalibratorFlowType" route="CalibratorFlowRoute" vehsPerHour="10" speed="10" line="line" arrivalPosLat="center"/>
        <flow begin="0.00" end="100.00" type="CalibratorFlowType" route="CalibratorFlowRoute" vehsPerHour="10" speed="10" line="line" arrivalPosLat="center"/>
        <flow begin="0.00" end="100.00" type="CalibratorFlowType" route="CalibratorFlowRoute" vehsPerHour="10" speed="10" line="line" arrivalPosLat="center"/>
        <flow begin="0.00" end="100.00" type="CalibratorFlowType" route="CalibratorFlowRoute" vehsPerHour="10" speed="10" line="line" arrivalPosLat="center"/>
        <flow begin="0.00" end="100.00" type="CalibratorFlowType" route="CalibratorFlowRoute" vehsPerHour="10" speed="10" line="line" arrivalPosLat="center"/>
        <flow begin="0.00" end="100.00" type="CalibratorFlowType" route="CalibratorFlowRoute" vehsPerHour="10" speed="10" line="line" arrivalPosLat="center"/>
        <flow begin="0.00" end="100.00" type="CalibratorFlowType" route="CalibratorFlowRoute" vehsPerHour="10" speed="10" line="line" arrivalPosLat="center"/>
        <flow begin="0.00" end="100.00" type="CalibratorFlowType" route="CalibratorFlowRoute" vehsPerHour="10" speed="10" line="line" arrivalPosLat="center"/>
        <flow begin="0.00" end="100.00" type="CalibratorFlowType" route="CalibratorFlowRoute" vehsPerHour="10" speed="10" line="line" arrivalPosLat="center"/>
        <flow begin="0.00" end="100.00" type="CalibratorFlowType" route="CalibratorFlowRoute" vehsPerHour="10" speed="10" line="line" arrivalPosLat="center"/>
        <flow begin="0.00" end="100.00" type="CalibratorFlowType" route="CalibratorFlowRoute" vehsPerHour="10" speed="10" line="line" arrivalPosLat="center"/>
        <flow begin="0.00" end="100.00" type="CalibratorFlowType" route="CalibratorFlowRoute" vehsPerHour="10" speed="10" line="line" arrivalPosLat="center"/>
        <flow begin="0.00" end="100.00" type="CalibratorFlowType" route="CalibratorFlowRoute" vehsPerHour="10" speed="10" line="line" arrivalPosLat="center"/>
        <flow begin="0.00" end="100.00" type="CalibratorFlowType" route="CalibratorFlowRoute" vehsPerHour="10" speed="10" line="line" arrivalPosLat="center"/>
        <flow begin="0.00" end="100.00" type="CalibratorFlowType" route="CalibratorFlowRoute" vehsPerHour="10" speed="10" line="line" arrivalPosLat="center"/>
        <flow begin="0.00" end="100.00" type="CalibratorFlowType" route="CalibratorFlowRoute" vehsPerHour="10" speed="10" line="line" arrivalPosLat="center"/>
        <flow begin="0.00" end="100.00" type="CalibratorFlowType" route="CalibratorFlowRoute" vehsPerHour="10" speed="10" line="line" arrivalPosLat="center"/>
        <flow begin="0.00" end="100.00" type="CalibratorFlowType" route="CalibratorFlowRoute" vehsPerHour="10" speed="10" line="line" arrivalPosLat="center"/>
        <flow begin="0.00" end="100.00" type="CalibratorFlowType" route="CalibratorFlowRoute" vehsPerHour="10" speed="10" line="line" arrivalPosLat="center"/>
        <flow begin="0.00" end="100.00" type="CalibratorFlowType" route="CalibratorFlowRoute" vehsPerHour="10" speed="10" line="line" arrivalPosLat="center"/>
        <flow begin="0.00" end="100.00" type="CalibratorFlowType" route="CalibratorFlowRoute" vehsPerHour="10" speed="10" line="line" arrivalPosLat="center"/>
        <flow begin="0.00" end="100.00" type="CalibratorFlowType" route="CalibratorFlowRoute" vehsPerHour="10" speed="10" line="line" arrivalPosLat="center"/>
        <flow begin="0.00" end="100.00" type="CalibratorFlowType" route="CalibratorFlowRoute" vehsPerHour="10" speed="10" line="line" arrivalPosLat="center"/>
        <flow begin="0.00" end="100.00" type="CalibratorFlowType" route="CalibratorFlowRoute" vehsPerHour="10" speed="10" line="line" arrivalPosLat="center"/>
        <flow begin="0.00" end="100.00" type="CalibratorFlowType" route="CalibratorFlowRoute" vehsPerHour="10" speed="10" line="line" arrivalPosLat="center"/>
        <flow begin="0.00" end="100.00" type="CalibratorFlowType" route="CalibratorFlowRoute" vehsPerHour="10" speed="10" line="line" arrivalPosLat="center"/>
        <flow begin="0.00" end="100.00" type="CalibratorFlowType" route="CalibratorFlowRoute" vehsPerHour="10" speed="10" line="line" arrivalPosLat="center"/>
        <flow begin="0.00" end="100.00" type="CalibratorFlowType" route="CalibratorFlowRoute" vehsPerHour="10" speed="10" line="line" arrivalPosLat="center"/>
        <flow begin="0.00" end="100.00" type="CalibratorFlowType" route="CalibratorFlowRoute" vehsPerHour="10" speed="10" line="line" arrivalPosLat="center"/>
        <flow begin="0.00" end="100.00" type="CalibratorFlowType" route="CalibratorFlowRoute" vehsPerHour="10" speed="10" line="line" arrivalPosLat="center"/>
        <flow begin="0.00" end="100.00" type="CalibratorFlowType" route="CalibratorFlowRoute" vehsPerHour="10" speed="10" line="line" arrivalPosLat="center"/>
        <flow begin="0.00" end="100.00" type="CalibratorFlowType" route="CalibratorFlowRoute" vehsPerHour="10" speed="10" line="line" arrivalPosLat="center"/>
        <flow begin="0.00" end="100.00" type="CalibratorFlowType" route="CalibratorFlowRoute" vehsPerHour="10" speed="10" line="line" arrivalPosLat="center"/>
        <flow begin="0.00" end="100.00" type="CalibratorFlowType" route="CalibratorFlowRoute" vehsPerHour="10" speed="10" line="line" arrivalPosLat="center"/>
        <flow begin="0.00" end="100.00" type="CalibratorFlowType" route="CalibratorFlowRoute" vehsPerHour="10" speed="10" line="line" arrivalPosLat="center"/>
        <flow begin="0.00" end="100.00" type="CalibratorFlowType" route="CalibratorFlowRoute" vehsPerHour="10" speed="10" line="line" arrivalPosLat="center"/>
        <flow begin="0.00" end="100.00" type="CalibratorFlowType" route="CalibratorFlowRoute" vehsPerHour="10" speed="10" line="line" arrivalPosLat="center"/>
        <flow begin="0.00" end="100.00" type="CalibratorFlowType" route="CalibratorFlowRoute" vehsPerHour="10" speed="10" line="line" arrivalPosLat="center"/>
        <flow begin="0.00" end="100.00" type="CalibratorFlowType" route="CalibratorFlowRoute" vehsPerHour="10" speed="10" line="line" arrivalPosLat="center"/>
        <flow begin="0.00" end="100.00" type="CalibratorFlowType" route="CalibratorFlowRoute" vehsPerHour="10" speed="10" line="line" arrivalPosLat="center"/>
        <flow begin="0.00" end="100.00" type="CalibratorFlowType" route="CalibratorFlowRoute" vehsPerHour="10" speed="10" line="line" arrivalPosLat="center"/>
        <flow begin="0.00" end="100.00" type="CalibratorFlowType" route="CalibratorFlowRoute" vehsPerHour="10" speed="10" line="line" arrivalPosLat="center"/>
        <flow begin="0.00" end="100.00" type="CalibratorFlowType" route="CalibratorFlowRoute" vehsPerHour="10" speed="10" line="line" arrivalPosLat="center"/>
        <flow begin="0.00" end="100.00" type="CalibratorFlowType" route="CalibratorFlowRoute" vehsPerHour="10" speed="10" line="line" arrivalPosLat="center"/>
        <flow begin="0.00" end="100.00" type="CalibratorFlowType" route="CalibratorFlowRoute" vehsPerHour="10" speed="10" line="line" arrivalPosLat="center"/>
        <flow begin="0.00" end="100.00" type="CalibratorFlowType" route="CalibratorFlowRoute" vehsPerHour="10" speed="10" line="line" arrivalPosLat="center"/>
        <flow begin="0.00" end="100.00" type="CalibratorFlowType" route="CalibratorFlowRoute" vehsPerHour="10" speed="10" line="line" arrivalPosLat="center"/>
        <flow begin="0.00" end="100.00" type="CalibratorFlowType" route="CalibratorFlowRoute" vehsPerHour="10" speed="10" line="line" arrivalPosLat="center"/>
        <flow begin="0.00" end="100.00" type="CalibratorFlowType" route="CalibratorFlowRoute" vehsPerHour="10" speed="10" line="line" arrivalPosLat="center"/>
        <flow begin="0.00" end="100.00" type="CalibratorFlowType" route="CalibratorFlowRoute" vehsPerHour="10" speed="10" line="line" arrivalPosLat="center"/>
        <flow begin="0.00" end="100.00" type="CalibratorFlowType" route="CalibratorFlowRoute" vehsPerHour="10" speed="10" line="line" arrivalPosLat="center"/>
        <flow begin="0.00" end="100.00" type="CalibratorFlowType" route="CalibratorFlowRoute" vehsPerHour="10" speed="10" line="line" arrivalPosLat="center"/>
        <flow begin="0.00" end="100.00" type="CalibratorFlowType" route="CalibratorFlowRoute" vehsPerHour="10" speed="10" line="line" arrivalPosLat="center"/>
        <flow begin="0.00" end="100.00" type="CalibratorFlowType" route="CalibratorFlowRoute" vehsPerHour="10" speed="10" line="line" arrivalPosLat="center"/>
        <flow begin="0.00" end="100.00" type="CalibratorFlowType" route="CalibratorFlowRoute" vehsPerHour="10" speed="10" line="line" arrivalPosLat="center"/>
        <flow begin="0.00" end="100.00" type="CalibratorFlowType" route="CalibratorFlowRoute" vehsPerHour="10" speed="10" line="line" arrivalPosLat="center"/>
        <flow begin="0.00" end="100.00" type="CalibratorFlowType" route="CalibratorFlowRoute" vehsPerHour="10" speed="10" line="line" arrivalPosLat="center"/>
        <flow begin="0.00" end="100.00" type="CalibratorFlowType" route="CalibratorFlowRoute" vehsPerHour="10" speed="10" line="line" arrivalPosLat="center"/>
        <flow begin="0.00" end="100.00" type="CalibratorFlowType" route="CalibratorFlowRoute" vehsPerHour="10" speed="10" line="line" arrivalPosLat="center"/>
        <flow begin="0.00" end="100.00" type="CalibratorFlowType" route="CalibratorFlowRoute" vehsPerHour="10" speed="10" line="line" arrivalPosLat="center"/>
        <flow begin="0.00" end="100.00" type="CalibratorFlowType" route="CalibratorFlowRoute" vehsPerHour="10" speed="10" line="line" arrivalPosLat="center"/>
        <flow begin="0.00" end="100.00" type="CalibratorFlowType" route="CalibratorFlowRoute" vehsPerHour="10" speed="10" line="line" arrivalPosLat="center"/>
        <flow begin="0.00" end="100.00" type="CalibratorFlowType" route="CalibratorFlowRoute" vehsPerHour="10" speed="10" line="line" arrivalPosLat="center"/>
        <flow begin="0.00" end="100.00" type="CalibratorFlowType" route="CalibratorFlowRoute" vehsPerHour="10" speed="10" line="line" arrivalPosLat="center"/>
        <flow begin="0.00" end="100.00" type="CalibratorFlowType" route="CalibratorFlowRoute" vehsPerHour="10" speed="10" line="line" arrivalPosLat="center"/>
        <flow begin="0.00" end="100.00" type="CalibratorFlowType" route="CalibratorFlowRoute" vehsPerHour="10" speed="10" line="line" arrivalPosLat="center"/>
        <flow begin="0.00" end="100.00" type="CalibratorFlowType" route="CalibratorFlowRoute" vehsPerHour="10" speed="10" line="line" arrivalPosLat="center"/>
        <flow begin="0.00" end="100.00" type="CalibratorFlowType" route="CalibratorFlowRoute" vehsPerHour="10" speed="10" line="line" arrivalPosLat="center"/>
        <flow begin="0.00" end="100.00" type="CalibratorFlowType" route="CalibratorFlowRoute" vehsPerHour="10" speed="10" line="line" arrivalPosLat="center"/>
        <flow begin="0.00" end="100.00" type="CalibratorFlowType" route="CalibratorFlowRoute" vehsPerHour="10" speed="10" line="line" arrivalPosLat="center"/>
        <flow begin="0.00" end="100.00" type="CalibratorFlowType" route="CalibratorFlowRoute" vehsPerHour="10" speed="10" line="line" arrivalPosLat="center"/>
        <flow begin="0.00" end="100.00" type="CalibratorFlowType" route="CalibratorFlowRoute" vehsPerHour="10" speed="10" line="line" arrivalPosLat="center"/>
        <flow begin="0.00" end="100.00" type="CalibratorFlowType" route="CalibratorFlowRoute" vehsPerHour="10" speed="10" line="line" arrivalPosLat="center"/>
        <flow begin="0.00" end="100.00" type="CalibratorFlowType" route="CalibratorFlowRoute" vehsPerHour="10" speed="10" line="line" arrivalPosLat="center"/>
        <flow begin="0.00" end="100.00" type="CalibratorFlowType" route="CalibratorFlowRoute" vehsPerHour="10" speed="10" line="line" arrivalPosLat="center"/>
        <flow begin="0.00" end="100.00" type="CalibratorFlowType" route="CalibratorFlowRoute" vehsPerHour="10" speed="10" line="line" arrivalPosLat="center"/>
        <flow begin="0.00" end="100.00" type="CalibratorFlowType" route="CalibratorFlowRoute" vehsPerHour="10" speed="10" line="line" arrivalPosLat="center"/>
        <flow begin="0.00" end="100.00" type="CalibratorFlowType" route="CalibratorFlowRoute" vehsPerHour="10" speed="10" line="line" arrivalPosLat="center"/>
        <flow begin="0.00" end="100.00" type="CalibratorFlowType" route="CalibratorFlowRoute" vehsPerHour="10" speed="10" line="line" arrivalPosLat="center"/>
        <flow begin="0.00" end="100.00" type="CalibratorFlowType" route="CalibratorFlowRoute" vehsPerHour="10" speed="10" line="line" arrivalPosLat="center"/>
        <flow begin="0.00" end="100.00" type="CalibratorFlowType" route="CalibratorFlowRoute" vehsPerHour="10" speed="10" line="line" arrivalPosLat="center"/>
        <flow begin="0.00" end="100.00" type="CalibratorFlowType" route="CalibratorFlowRoute" vehsPerHour="10" speed="10" line="line" arrivalPosLat="center"/>
        <flow begin="0.00" end="100.00" type="CalibratorFlowType" route="CalibratorFlowRoute" vehsPerHour="10" speed="10" line="line" arrivalPosLat="center"/>
        <flow begin="0.00" end="100.00" type="CalibratorFlowType" route="CalibratorFlowRoute" vehsPerHour="10" speed="10" line="line" arrivalPosLat="center"/>
        <flow begin="0.00" end="100.00" type="CalibratorFlowType" route="CalibratorFlowRoute" vehsPerHour="10" speed="10" line="line" arrivalPosLat="center"/>
        <flow begin="0.00" end="100.00" type="CalibratorFlowType" route="CalibratorFlowRoute" vehsPerHour="10" speed="10" line="line" arrivalPosLat="center"/>
        <flow begin="0.00" end="100.00" type="CalibratorFlowType" route="CalibratorFlowRoute" vehsPerHour="10" speed="10" line="line" arrivalPosLat="center"/>
        <flow begin="0.00" end="100.00" type="CalibratorFlowType" route="CalibratorFlowRoute" vehsPerHour="10" speed="10" line="line" arrivalPosLat="center"/>
        <flow begin="0.00" end="100.00" type="CalibratorFlowType" route="CalibratorFlowRoute" vehsPerHour="10" speed="10" line="line" arrivalPosLat="center"/>
        <flow begin="0.00" end="100.00" type="CalibratorFlowType" route="CalibratorFlowRoute" vehsPerHour="10" speed="10" line="line" arrivalPosLat="center"/>
        <flow begin="0.00" end="100.00" type="CalibratorFlowType" route="CalibratorFlowRoute" vehsPerHour="10" speed="10" line="line" arrivalPosLat="center"/>
        <flow begin="0.00" end="100.00" type="CalibratorFlowType" route="CalibratorFlowRoute" vehsPerHour="10" speed="10" line="line" arrivalPosLat="center"/>
        <flow begin="0.00" end="100.00" type="CalibratorFlowType" route="CalibratorFlowRoute" vehsPerHour="10" speed="10" line="line" arrivalPosLat="center"/>
        <flow begin="0.00" end="100.00" type="CalibratorFlowType" route="CalibratorFlowRoute" vehsPerHour="10" speed="10" line="line" arrivalPosLat="center"/>
        <flow begin="0.00" end="100.00" type="CalibratorFlowType" route="CalibratorFlowRoute" vehsPerHour="10" speed="10" line="line" arrivalPosLat="center"/>
        <flow begin="0.00" end="100.00" type="CalibratorFlowType" route="CalibratorFlowRoute" vehsPerHour="10" speed="10" line="line" arrivalPosLat="center"/>
        <flow begin="0.00" end="100.00" type="CalibratorFlowType" route="CalibratorFlowRoute" vehsPerHour="10" speed="10" line="line" arrivalPosLat="center"/>
        <flow begin="0.00" end="100.00" type="CalibratorFlowType" route="CalibratorFlowRoute" vehsPerHour="10" speed="10" line="line" arrivalPosLat="center"/>
        <flow begin="0.00" end="100.00" type="CalibratorFlowType" route="CalibratorFlowRoute" vehsPerHour="10" speed="10" line="line" arrivalPosLat="center"/>
        <flow begin="0.00" end="100.00" type="CalibratorFlowType" route="CalibratorFlowRoute" vehsPerHour="10" speed="10" line="line" arrivalPosLat="center"/>
        <flow begin="0.00" end="100.00" type="CalibratorFlowType" route="CalibratorFlowRoute" vehsPerHour="10" speed="10" line="line" arrivalPosLat="center"/>
        <flow begin="0.00" end="100.00" type="CalibratorFlowType" route="CalibratorFlowRoute" vehsPerHour="10" speed="10" line="line" arrivalPosLat="center"/>
        <flow begin="0.00" end="100.00" type="CalibratorFlowType" route="CalibratorFlowRoute" vehsPerHour="10" speed="10" line="line" arrivalPosLat="center"/>
        <flow begin="0.00" end="100.00" type="CalibratorFlowType" route="CalibratorFlowRoute" vehsPerHour="10" speed="10" line="line" arrivalPosLat="center"/>
        <flow begin="0.00" end="100.00" type="CalibratorFlowType" route="CalibratorFlowRoute" vehsPerHour="10" speed="10" line="line" arrivalPosLat="center"/>
        <flow begin="0.00" end="100.00" type="CalibratorFlowType" route="CalibratorFlowRoute" vehsPerHour="10" speed="10" line="line" arrivalPosLat="center"/>
        <flow begin="0.00" end="100.00" type="CalibratorFlowType" route="CalibratorFlowRoute" vehsPerHour="10" speed="10" line="line" arrivalPosLat="center"/>
        <flow begin="0.00" end="100.00" type="CalibratorFlowType" route="CalibratorFlowRoute" vehsPerHour="10" speed="10" line="line" arrivalPosLat="center"/>
        <flow begin="0.00" end="100.00" type="CalibratorFlowType" route="CalibratorFlowRoute" vehsPerHour="10" speed="10" line="line" arrivalPosLat="center"/>
        <flow begin="0.00" end="100.00" type="CalibratorFlowType" route="CalibratorFlowRoute" vehsPerHour="10" speed="10" line="line" arrivalPosLat="center"/>
        <flow begin="0.00" end="100.00" type="CalibratorFlowType" route="CalibratorFlowRoute" vehsPerHour="10" speed="10" line="line" arrivalPosLat="center"/>
        <flow begin="0.00" end="100.00" type="CalibratorFlowType" route="CalibratorFlowRoute" vehsPerHour="10" speed="10" line="line" arrivalPosLat="center"/>
        <flow begin="0.00" end="100.00" type="CalibratorFlowType" route="CalibratorFlowRoute" vehsPerHour="10" speed="10" line="line" arrivalPosLat="center"/>
        <flow begin="0.00" end="100.00" type="CalibratorFlowType" route="CalibratorFlowRoute" vehsPerHour="10" speed="10" line="line" arrivalPosLat="center"/>
        <flow begin="0.00" end="100.00" type="CalibratorFlowType" route="CalibratorFlowRoute" vehsPerHour="10" speed="10" line="line" arrivalPosLat="center"/>
        <flow begin="0.00" end="100.00" type="CalibratorFlowType" route="CalibratorFlowRoute" vehsPerHour="10" speed="10" line="line" arrivalPosLat="center"/>
        <flow begin="0.00" end="100.00" type="CalibratorFlowType" route="CalibratorFlowRoute" vehsPerHour="10" speed="10" line="line" arrivalPosLat="center"/>
        <flow begin="0.00" end="100.00" type="CalibratorFlowType" route="CalibratorFlowRoute" vehsPerHour="10" speed="10" line="line" arrivalPosLat="center"/>
        <flow begin="0.00" end="100.00" type="CalibratorFlowType" route="CalibratorFlowRoute" vehsPerHour="10" speed="10" line="line" arrivalPosLat="center"/>
        <flow begin="0.00" end="100.00" type="CalibratorFlowType" route="CalibratorFlowRoute" vehsPerHour="10" speed="10" line="line" arrivalPosLat="center"/>
        <flow begin="0.00" end="100.00" type="CalibratorFlowType" route="CalibratorFlowRoute" vehsPerHour="10" speed="10" line="line" arrivalPosLat="center"/>
        <flow begin="0.00" end="100.00" type="CalibratorFlowType" route="CalibratorFlowRoute" vehsPerHour="10" speed="10" line="line" arrivalPosLat="center"/>
        <flow begin="0.00" end="100.00" type="CalibratorFlowType" route="CalibratorFlowRoute" vehsPerHour="10" speed="10" line="line" arrivalPosLat="center"/>
        <flow begin="0.00" end="100.00" type="CalibratorFlowType" route="CalibratorFlowRoute" vehsPerHour="10" speed="10" line="line" arrivalPosLat="center"/>
        <flow begin="0.00" end="100.00" type="CalibratorFlowType" route="CalibratorFlowRoute" vehsPerHour="10" speed="10" line="line" arrivalPosLat="center"/>
        <flow begin="0.00" end="100.00" type="CalibratorFlowType" route="CalibratorFlowRoute" vehsPerHour="10" speed="10" line="line" arrivalPosLat="center"/>
        <flow begin="0.00" end="100.00" type="CalibratorFlowType" route="CalibratorFlowRoute" vehsPerHour="10" speed="10" line="line" arrivalPosLat="center"/>
        <flow begin="0.00" end="100.00" type="CalibratorFlowType" route="CalibratorFlowRoute" vehsPerHour="10" speed="10" line="line" arrivalPosLat="center"/>
        <flow begin="0.00" end="100.00" type="CalibratorFlowType" route="CalibratorFlowRoute" vehsPerHour="10" speed="10" line="line" arrivalPosLat="center"/>
        <flow begin="0.00" end="100.00" type="CalibratorFlowType" route="CalibratorFlowRoute" vehsPerHour="10" speed="10" line="line" arrivalPosLat="center"/>
        <flow begin="0.00" end="100.00" type="CalibratorFlowType" route="CalibratorFlowRoute" vehsPerHour="10" speed="10" line="line" arrivalPosLat="center"/>
        <flow begin="0.00" end="100.00" type="CalibratorFlowType" route="CalibratorFlowRoute" vehsPerHour="10" speed="10" line="line" arrivalPosLat="center"/>
        <flow begin="0.00" end="100.00" type="CalibratorFlowType" route="CalibratorFlowRoute" vehsPerHour="10" speed="10" line="line" arrivalPosLat="center"/>
        <flow begin="0.00" end="100.00" type="CalibratorFlowType" route="CalibratorFlowRoute" vehsPerHour="10" speed="10" line="line" arrivalPosLat="center"/>
        <flow begin="0.00" end="100.00" type="CalibratorFlowType" route="CalibratorFlowRoute" vehsPerHour="10" speed="10" line="line" arrivalPosLat="center"/>
        <flow begin="0.00" end="100.00" type="CalibratorFlowType" route="CalibratorFlowRoute" vehsPerHour="10" speed="10" line="line" arrivalPosLat="center"/>
        <flow begin="0.00" end="100.00" type="CalibratorFlowType" route="CalibratorFlowRoute" vehsPerHour="10" speed="10" line="line" arrivalPosLat="center"/>
        <flow begin="0.00" end="100.00" type="CalibratorFlowType" route="CalibratorFlowRoute" vehsPerHour="10" speed="10" line="line" arrivalPosLat="center"/>
        <flow begin="0.00" end="100.00" type="CalibratorFlowType" route="CalibratorFlowRoute" vehsPerHour="10" speed="10" line="line" arrivalPosLat="center"/>
        <flow begin="0.00" end="100.00" type="CalibratorFlowType" route="CalibratorFlowRoute" vehsPerHour="10" speed="10" line="line" arrivalPosLat="center"/>
        <flow begin="0.00" end="100.00" type="CalibratorFlowType" route="CalibratorFlowRoute" vehsPerHour="10" speed="10" line="line" arrivalPosLat="center"/>
        <flow begin="0.00" end="100.00" type="CalibratorFlowType" route="CalibratorFlowRoute" vehsPerHour="10" speed="10" line="line" arrivalPosLat="center"/>
        <flow begin="0.00" end="100.00" type="CalibratorFlowType" route="CalibratorFlowRoute" vehsPerHour="10" speed="10" line="line" arrivalPosLat="center"/>
        <flow begin="0.00" end="100.00" type="CalibratorFlowType" route="CalibratorFlowRoute" vehsPerHour="10" speed="10" line="line" arrivalPosLat="center"/>
        <flow begin="0.00" end="100.00" type="CalibratorFlowType" route="CalibratorFlowRoute" vehsPerHour="10" speed="10" line="line" arrivalPosLat="center"/>
        <flow begin="0.00" end="100.00" type="CalibratorFlowType" route="CalibratorFlowRoute" vehsPerHour="10" speed="10" line="line" arrivalPosLat="center"/>
        <flow begin="0.00" end="100.00" type="CalibratorFlowType" route="CalibratorFlowRoute" vehsPerHour="10" speed="10" line="line" arrivalPosLat="center"/>
        <flow begin="0.00" end="100.00" type="CalibratorFlowType" route="CalibratorFlowRoute" vehsPerHour="10" speed="10" line="line" arrivalPosLat="center"/>
        <flow begin="0.00" end="100.00" type="CalibratorFlowType" route="CalibratorFlowRoute" vehsPerHour="10" speed="10" line="line" arrivalPosLat="center"/>
        <flow begin="0.00" end="100.00" type="CalibratorFlowType" route="CalibratorFlowRoute" vehsPerHour="10" speed="10" line="line" arrivalPosLat="center"/>
        <flow begin="0.00" end="100.00" type="CalibratorFlowType" route="CalibratorFlowRoute" vehsPerHour="10" speed="10" line="line" arrivalPosLat="center"/>
        <flow begin="0.00" end="100.00" type="CalibratorFlowType" route="CalibratorFlowRoute" vehsPerHour="10" speed="10" line="line" arrivalPosLat="center"/>
        <flow begin="0.00" end="100.00" type="CalibratorFlowType" route="CalibratorFlowRoute" vehsPerHour="10" speed="10" line="line" arrivalPosLat="center"/>
        <flow begin="0.00" end="100.00" type="CalibratorFlowType" route="CalibratorFlowRoute" vehsPerHour="10" speed="10" line="line" arrivalPosLat="center"/>
        <flow begin="0.00" end="100.00" type="CalibratorFlowType" route="CalibratorFlowRoute" vehsPerHour="10" speed="10" line="line" arrivalPosLat="center"/>
        <flow begin="0.00" end="100.00" type="CalibratorFlowType" route="CalibratorFlowRoute" vehsPerHour="10" speed="10" line="line" arrivalPosLat="center"/>
        <flow begin="0.00" end="100.00" type="CalibratorFlowType" route="CalibratorFlowRoute" vehsPerHour="10" speed="10" line="line" arrivalPosLat="center"/>
        <flow begin="0.00" end="100.00" type="CalibratorFlowType" route="CalibratorFlowRoute" vehsPerHour="10" speed="10" line="line" arrivalPosLat="center"/>
        <flow begin="0.00" end="100.00" type="CalibratorFlowType" route="CalibratorFlowRoute" vehsPerHour="10" speed="10" line="line" arrivalPosLat="center"/>
        <flow begin="0.00" end="100.00" type="CalibratorFlowType" route="CalibratorFlowRoute" vehsPerHour="10" speed="10" line="line" arrivalPosLat="center"/>
        <flow begin="0.00" end="100.00" type="CalibratorFlowType" route="CalibratorFlowRoute" vehsPerHour="10" speed="10" line="line" arrivalPosLat="center"/>
        <flow begin="0.00" end="100.00" type="CalibratorFlowType" route="CalibratorFlowRoute" vehsPerHour="10" speed="10" line="line" arrivalPosLat="center"/>
        <flow begin="0.00" end="100.00" type="CalibratorFlowType" route="CalibratorFlowRoute" vehsPerHour="10" speed="10" line="line" arrivalPosLat="center"/>
        <flow begin="0.00" end="100.00" type="CalibratorFlowType" route="CalibratorFlowRoute" vehsPerHour="10" speed="10" line="line" arrivalPosLat="center"/>
        <flow begin="0.00" end="100.00" type="CalibratorFlowType" route="CalibratorFlowRoute" vehsPerHour="10" speed="10" line="line" arrivalPosLat="center"/>