<?xml version="1.0" encoding="UTF-8"?>

<!-- generated on 2023-08-02 09:03:58 by Eclipse SUMO netedit Version v1_18_0+0677-13ce7251e4f
-->

<additional xmlns:xsi="http://www.w3.org/2001/XMLSchema-instance" xsi:noNamespaceSchemaLocation="http://sumo.dlr.de/xsd/additional_file.xsd">
    <!-- JuPedSim elements -->
    <poly id="jps.walkable_area_0" type="jupedsim.walkable_area" color="179,217,255" fill="1" layer="1.00" shape="12.000000,8.000000 9.000000,13.000000 12.000000,18.000000 7.000000,15.000000 2.000000,18.000000 5.000000,13.000000 2.000000,8.000000 7.000000,11.000000 12.000000,8.000000"/>
</additional>
