<routes>
   <vType id="DEFAULT_VEHTYPE" sigma="0" maxSpeedLat="0.5"/>
    <vehicle id="v0" depart="0" departLane="0" arrivalLane="1">
        <route edges="1si"/>
    </vehicle>
</routes>
