<?xml version="1.0" encoding="UTF-8"?>

<!-- generated on Thu Dec  3 10:21:23 2015 by SUMO netconvert Version dev-SVN-r19498I
<?xml version="1.0" encoding="UTF-8"?>

<configuration xmlns:xsi="http://www.w3.org/2001/XMLSchema-instance" xsi:noNamespaceSchemaLocation="http://sumo.dlr.de/xsd/netconvertConfiguration.xsd">

    <input>
        <node-files value="input_plain.nod.xml"/>
        <edge-files value="input_plain.edg.xml"/>
    </input>

    <output>
        <output-file value="net.net.xml"/>
    </output>

    <report>
        <xml-validation value="never"/>
    </report>

</configuration>
-->

<net version="0.25" xmlns:xsi="http://www.w3.org/2001/XMLSchema-instance" xsi:noNamespaceSchemaLocation="http://sumo.dlr.de/xsd/net_file.xsd">

    <location netOffset="100.94,12.13" convBoundary="0.00,0.00,77.37,8.73" origBoundary="-10000000000.00,-10000000000.00,10000000000.00,10000000000.00" projParameter="!"/>

    <edge id=":gneJ0_0" function="internal">
        <lane id=":gneJ0_0_0" index="0" speed="13.89" length="4.82" shape="77.69,7.11 78.74,8.16 78.99,9.05 78.42,9.78 77.05,10.35"/>
    </edge>
    <edge id=":gneJ1_0" function="internal">
        <lane id=":gneJ1_0_0" index="0" speed="13.89" length="4.82" shape="-0.07,1.65 -1.27,0.77 -1.65,-0.07 -1.20,-0.87 0.07,-1.65"/>
    </edge>

    <edge id="-beg" from="gneJ1" to="gneJ0" priority="1" shape="0.00,0.00 2.00,0.08 4.00,0.17 5.99,0.27 7.98,0.38 9.98,0.48 11.98,0.59 13.97,0.70 15.97,0.82 17.97,0.95 17.36,0.91 19.35,1.04 21.35,1.19 23.34,1.34 25.34,1.51 27.33,1.69 29.32,1.88 28.51,1.80 30.50,1.99 32.49,2.19 34.48,2.39 36.47,2.59 38.46,2.80 40.45,3.02 42.44,3.25 41.43,3.13 43.42,3.36 45.40,3.60 47.39,3.85 49.37,4.11 51.35,4.38 53.34,4.66 55.32,4.94 57.29,5.23 56.88,5.17 58.86,5.47 60.84,5.77 62.82,6.07 64.79,6.39 66.77,6.72 68.74,7.06 70.70,7.42 69.52,7.20 71.49,7.57 73.45,7.95 75.41,8.34 77.37,8.73">
        <lane id="-beg_0" index="0" speed="13.89" length="122.85" shape="0.07,-1.65 2.07,-1.57 4.08,-1.48 6.08,-1.38 8.07,-1.27 10.07,-1.17 12.07,-1.06 14.06,-0.95 16.07,-0.83 19.62,1.06 15.71,0.80 19.47,-0.61 21.47,-0.46 23.47,-0.30 25.48,-0.13 27.48,0.05 30.96,2.04 26.87,1.64 30.66,0.35 32.65,0.55 34.64,0.75 36.64,0.95 38.64,1.16 40.64,1.38 44.08,3.44 39.79,2.94 43.61,1.72 45.60,1.96 47.60,2.21 49.59,2.47 51.58,2.75 53.57,3.03 55.56,3.31 58.92,5.47 55.25,4.93 59.11,3.84 61.09,4.14 63.08,4.44 65.06,4.76 67.05,5.09 69.03,5.44 72.32,7.72 67.90,6.90 71.80,5.95 73.77,6.33 75.73,6.72 77.69,7.11"/>
    </edge>
    <edge id="beg" from="gneJ0" to="gneJ1" priority="1" shape="77.37,8.73 75.41,8.34 73.45,7.95 71.49,7.57 69.52,7.20 70.70,7.42 68.74,7.06 66.77,6.72 64.79,6.39 62.82,6.07 60.84,5.77 58.86,5.47 56.88,5.17 57.29,5.23 55.32,4.94 53.34,4.66 51.35,4.38 49.37,4.11 47.39,3.85 45.40,3.60 43.42,3.36 41.43,3.13 42.44,3.25 40.45,3.02 38.46,2.80 36.47,2.59 34.48,2.39 32.49,2.19 30.50,1.99 28.51,1.80 29.32,1.88 27.33,1.69 25.34,1.51 23.34,1.34 21.35,1.19 19.35,1.04 17.36,0.91 17.97,0.95 15.97,0.82 13.97,0.70 11.98,0.59 9.98,0.48 7.98,0.38 5.99,0.27 4.00,0.17 2.00,0.08 0.00,0.00">
        <lane id="beg_0" index="0" speed="13.89" length="122.37" shape="77.05,10.35 75.09,9.96 73.13,9.57 71.18,9.19 67.90,6.90 72.32,7.72 68.45,8.68 66.49,8.35 64.52,8.02 62.56,7.70 60.59,7.40 58.61,7.10 55.25,4.92 58.92,5.47 55.08,6.57 53.11,6.29 51.12,6.01 49.15,5.75 47.18,5.49 45.20,5.24 43.23,5.00 39.79,2.94 44.08,3.44 40.26,4.66 38.28,4.44 36.30,4.23 34.32,4.03 32.33,3.83 30.34,3.63 26.87,1.64 30.96,2.04 27.18,3.33 25.20,3.15 23.21,2.98 21.23,2.84 19.23,2.69 15.71,0.80 19.62,1.06 15.87,2.47 13.88,2.35 11.89,2.24 9.89,2.13 7.89,2.03 5.90,1.92 3.92,1.82 1.93,1.73 -0.07,1.65"/>
    </edge>

    <junction id="gneJ0" type="unregulated" x="77.37" y="8.73" incLanes="-beg_0" intLanes=":gneJ0_0_0" shape="77.36,8.78 76.74,11.92 78.00,5.54 77.38,8.68"/>
    <junction id="gneJ1" type="unregulated" x="0.00" y="0.00" incLanes="beg_0" intLanes=":gneJ1_0_0" shape="0.00,-0.05 0.13,-3.25 -0.13,3.25 -0.00,0.05"/>

    <connection from="-beg" to="beg" fromLane="0" toLane="0" via=":gneJ0_0_0" dir="t" state="M"/>
    <connection from="beg" to="-beg" fromLane="0" toLane="0" via=":gneJ1_0_0" dir="t" state="M"/>

    <connection from=":gneJ0_0" to="beg" fromLane="0" toLane="0" dir="s" state="M"/>
    <connection from=":gneJ1_0" to="-beg" fromLane="0" toLane="0" dir="s" state="M"/>

</net>
