<?xml version="1.0" encoding="UTF-8"?>

<!-- generated on 2026-03-03 14:43:16.314833 by Eclipse SUMO netdiff.py v1_26_0+0419-a5ab52a50ee
<configuration>
    <source value="source.net.xml"/>
    <dest value="dest.net.xml"/>
    <outprefix value="diff"/>
</configuration>
-->

<edges version="1.20" xmlns:xsi="http://www.w3.org/2001/XMLSchema-instance" xsi:noNamespaceSchemaLocation="http://sumo.dlr.de/xsd/edgediff_file.xsd">
    <!-- Deleted Elements -->
    <!-- Created Elements -->
    <!-- Changed Elements -->
    <edge id="CW" type="type2"/>
</edges>
