<?xml version="1.0" encoding="UTF-8"?>

<!-- generated on 2021-11-16 12:47:45 by Eclipse SUMO netedit Version v1_10_0+2310-e230b72ef81
<configuration xmlns:xsi="http://www.w3.org/2001/XMLSchema-instance" xsi:noNamespaceSchemaLocation="http://sumo.dlr.de/xsd/netconvertConfiguration.xsd">

    <input>
        <sumo-net-file value="C:\Users\SUMO-Test\.texttest\tmp\netedit.gui.16Nov122609.7216\netedit.gui\additionalElements\lanecalibrator\load\vtypes\input_net.net.xml"/>
    </input>

    <output>
        <output-file value="C:\Users\SUMO-Test\.texttest\tmp\netedit.gui.16Nov122609.7216\netedit.gui\additionalElements\lanecalibrator\load\vtypes\net.net.xml"/>
    </output>

    <processing>
        <geometry.min-radius.fix.railways value="false"/>
        <geometry.max-grade.fix value="false"/>
        <offset.disable-normalization value="true"/>
        <lefthand value="false"/>
    </processing>

    <junctions>
        <no-turnarounds value="true"/>
        <junctions.corner-detail value="5"/>
        <junctions.limit-turn-speed value="5.5"/>
        <rectangular-lane-cut value="false"/>
    </junctions>

    <pedestrian>
        <walkingareas value="false"/>
    </pedestrian>

    <netedit>
        <additional-files value="C:\Users\SUMO-Test\.texttest\tmp\netedit.gui.16Nov122609.7216\netedit.gui\additionalElements\lanecalibrator\load\vtypes\additionals.xml"/>
        <additionals-output value="C:\Users\SUMO-Test\.texttest\tmp\netedit.gui.16Nov122609.7216\netedit.gui\additionalElements\lanecalibrator\load\vtypes\additionals.xml"/>
        <route-files value="C:\Users\SUMO-Test\.texttest\tmp\netedit.gui.16Nov122609.7216\netedit.gui\additionalElements\lanecalibrator\load\vtypes\routes.xml"/>
        <demandelements-output value="C:\Users\SUMO-Test\.texttest\tmp\netedit.gui.16Nov122609.7216\netedit.gui\additionalElements\lanecalibrator\load\vtypes\routes.xml"/>
        <data-files value="C:\Users\SUMO-Test\.texttest\tmp\netedit.gui.16Nov122609.7216\netedit.gui\additionalElements\lanecalibrator\load\vtypes\datas.xml"/>
        <dataelements-output value="C:\Users\SUMO-Test\.texttest\tmp\netedit.gui.16Nov122609.7216\netedit.gui\additionalElements\lanecalibrator\load\vtypes\datas.xml"/>
    </netedit>

    <visualisation>
        <gui-settings-file value="C:\Users\SUMO-Test\.texttest\tmp\netedit.gui.16Nov122609.7216\netedit.gui\additionalElements\lanecalibrator\load\vtypes\gui-settings.xml"/>
        <window-size value="936,697"/>
        <window-pos value="50,50"/>
        <gui-testing value="true"/>
        <gui-testing-debug value="true"/>
        <gui-testing-debug-gl value="true"/>
        <gui-testing.setting-output value="C:\Users\SUMO-Test\.texttest\tmp\netedit.gui.16Nov122609.7216\netedit.gui\additionalElements\lanecalibrator\load\vtypes\guisettingsoutput.xml"/>
    </visualisation>

    <report>
        <no-warnings value="true"/>
        <aggregate-warnings value="5"/>
        <error-log value="C:\Users\SUMO-Test\.texttest\tmp\netedit.gui.16Nov122609.7216\netedit.gui\additionalElements\lanecalibrator\load\vtypes\log.txt"/>
    </report>

</configuration>
-->

<additional xmlns:xsi="http://www.w3.org/2001/XMLSchema-instance" xsi:noNamespaceSchemaLocation="http://sumo.dlr.de/xsd/additional_file.xsd">
    <calibrator id="calibrator01" lane="gneE0_0" pos="0.00" freq="100.00" output="calibrator01.txt" vTypes="%%%%,,,$$$$$"/>
    <calibrator id="calibrator03" lane="gneE0_0" pos="0.00" freq="100.00" output="calibrator03.txt" vTypes="Type1 Type2 Type3"/>
</additional>
