<?xml version="1.0" encoding="UTF-8"?>

<!-- generated on 19.10.2017 13:45:49 by Netedit Version dev-SVN-r22737
<?xml version="1.0" encoding="UTF-8"?>

<configuration xmlns:xsi="http://www.w3.org/2001/XMLSchema-instance" xsi:noNamespaceSchemaLocation="http://sumo.dlr.de/xsd/netconvertConfiguration.xsd">

    <input>
        <sumo-additionals-file value="C:/Users/alva_pa/.texttest/tmp/netedit.gui.19Oct133808.4976/netedit.gui/netElements/edges/inspectA\input_additionals.add.xml"/>
        <sumo-net-file value="C:/Users/alva_pa/.texttest/tmp/netedit.gui.19Oct133808.4976/netedit.gui/netElements/edges/inspectA\input_net.net.xml"/>
    </input>

    <output>
        <additionals-output value="C:/Users/alva_pa/.texttest/tmp/netedit.gui.19Oct133808.4976/netedit.gui/netElements/edges/inspectA\additionals.xml"/>
        <shapes-output value="C:/Users/alva_pa/.texttest/tmp/netedit.gui.19Oct133808.4976/netedit.gui/netElements/edges/inspectA\shapes.xml"/>
        <output-file value="C:/Users/alva_pa/.texttest/tmp/netedit.gui.19Oct133808.4976/netedit.gui/netElements/edges/inspectA\net.net.xml"/>
    </output>

    <processing>
        <no-turnarounds value="true"/>
        <offset.disable-normalization value="true"/>
        <lefthand value="false"/>
        <junctions.corner-detail value="0"/>
        <rectangular-lane-cut value="false"/>
        <walkingareas value="false"/>
    </processing>

    <visualisation>
        <window-size value="700,500"/>
        <window-pos value="50,50"/>
        <gui-testing value="true"/>
        <gui-testing-debug value="true"/>
    </visualisation>

    <report>
        <no-warnings value="true"/>
        <error-log value="C:/Users/alva_pa/.texttest/tmp/netedit.gui.19Oct133808.4976/netedit.gui/netElements/edges/inspectA\log.txt"/>
    </report>

</configuration>
-->

<net version="0.27" xmlns:xsi="http://www.w3.org/2001/XMLSchema-instance" xsi:noNamespaceSchemaLocation="http://sumo.dlr.de/xsd/net_file.xsd">

    <location netOffset="25.00,0.00" convBoundary="0.00,0.00,50.00,20.00" origBoundary="-10000000000.00,-10000000000.00,10000000000.00,10000000000.00" projParameter="!"/>

    <edge id=":gneJ0_0" function="internal">
        <lane id=":gneJ0_0_0" index="0" speed="13.89" length="7.90" shape="-1.65,3.25 -1.34,1.11 -0.43,-0.43 1.11,-1.34 3.25,-1.65"/>
    </edge>
    <edge id=":gneJ0_1" function="internal">
        <lane id=":gneJ0_1_0" index="0" speed="13.89" length="2.58" shape="3.25,1.65 2.55,1.75 2.05,2.05 1.75,2.55 1.65,3.25"/>
    </edge>
    <edge id=":gneJ1_0" function="internal">
        <lane id=":gneJ1_0_0" index="0" speed="13.89" length="2.58" shape="48.35,3.25 48.25,2.55 47.95,2.05 47.45,1.75 46.75,1.65"/>
    </edge>
    <edge id=":gneJ1_1" function="internal">
        <lane id=":gneJ1_1_0" index="0" speed="13.89" length="7.90" shape="46.75,-1.65 48.89,-1.34 50.43,-0.43 51.34,1.11 51.65,3.25"/>
    </edge>
    <edge id=":gneJ2_0" function="internal">
        <lane id=":gneJ2_0_0" index="0" speed="13.89" length="22.07" shape="4.75,24.95 1.95,23.73 -0.05,20.05 -1.25,13.92 -1.65,5.35"/>
    </edge>
    <edge id=":gneJ2_1" function="internal">
        <lane id=":gneJ2_1_0" index="0" speed="67.19" length="5.00" shape="1.65,5.35 1.84,6.71 2.42,7.67 3.39,8.26 4.75,8.45"/>
    </edge>
    <edge id=":gneJ2_2" function="internal">
        <lane id=":gneJ2_2_0" index="0" speed="67.19" length="7.85" shape="1.65,5.35 1.84,8.15 2.42,10.15 3.39,11.35 4.75,11.75"/>
    </edge>
    <edge id=":gneJ2_3" function="internal">
        <lane id=":gneJ2_3_0" index="0" speed="67.19" length="10.88" shape="1.65,5.35 1.84,9.59 2.42,12.62 3.39,14.44 4.75,15.05"/>
    </edge>
    <edge id=":gneJ2_4" function="internal">
        <lane id=":gneJ2_4_0" index="0" speed="67.19" length="14.00" shape="1.65,5.35 1.84,11.04 2.42,15.10 3.39,17.54 4.75,18.35"/>
    </edge>
    <edge id=":gneJ3_0" function="internal">
        <lane id=":gneJ3_0_0" index="0" speed="13.89" length="22.07" shape="51.65,5.35 51.25,13.92 50.05,20.05 48.05,23.73 45.25,24.95"/>
    </edge>
    <edge id=":gneJ3_1" function="internal">
        <lane id=":gneJ3_1_0" index="0" speed="13.89" length="19.01" shape="51.65,5.35 51.25,12.48 50.05,17.58 48.05,20.63 45.25,21.65"/>
    </edge>
    <edge id=":gneJ3_2" function="internal">
        <lane id=":gneJ3_2_0" index="0" speed="67.19" length="5.00" shape="45.25,8.45 46.61,8.26 47.57,7.67 48.16,6.71 48.35,5.35"/>
    </edge>

    <edge id="correct_ID" from="gneJ2" to="gneJ3" priority="4">
        <lane id="correct_ID_0" index="0" speed="120.50" length="40.50" shape="4.75,8.45 45.25,8.45"/>
        <lane id="correct_ID_1" index="1" speed="120.50" length="40.50" shape="4.75,11.75 45.25,11.75"/>
        <lane id="correct_ID_2" index="2" speed="120.50" length="40.50" shape="4.75,15.05 45.25,15.05"/>
        <lane id="correct_ID_3" index="3" speed="120.50" length="40.50" shape="4.75,18.35 45.25,18.35"/>
    </edge>
    <edge id="gneE0" from="gneJ0" to="gneJ1" priority="1">
        <lane id="gneE0_0" index="0" speed="13.89" length="43.50" shape="3.25,-1.65 46.75,-1.65"/>
    </edge>
    <edge id="gneE1" from="gneJ1" to="gneJ0" priority="1">
        <lane id="gneE1_0" index="0" speed="13.89" length="43.50" shape="46.75,1.65 3.25,1.65"/>
    </edge>
    <edge id="gneE3" from="gneJ3" to="gneJ2" priority="1">
        <lane id="gneE3_0" index="0" speed="13.89" length="40.50" shape="45.25,24.95 4.75,24.95"/>
        <lane id="gneE3_1" index="1" speed="13.89" length="40.50" shape="45.25,21.65 4.75,21.65"/>
    </edge>
    <edge id="gneE4" from="gneJ3" to="gneJ1" priority="1">
        <lane id="gneE4_0" index="0" speed="13.89" length="2.10" shape="48.35,5.35 48.35,3.25"/>
    </edge>
    <edge id="gneE5" from="gneJ1" to="gneJ3" priority="1">
        <lane id="gneE5_0" index="0" speed="13.89" length="2.10" shape="51.65,3.25 51.65,5.35"/>
    </edge>
    <edge id="gneE8" from="gneJ2" to="gneJ0" priority="1">
        <lane id="gneE8_0" index="0" speed="13.89" length="2.10" shape="-1.65,5.35 -1.65,3.25"/>
    </edge>
    <edge id="gneE9" from="gneJ0" to="gneJ2" priority="1">
        <lane id="gneE9_0" index="0" speed="13.89" length="2.10" shape="1.65,3.25 1.65,5.35"/>
    </edge>

    <junction id="gneJ0" type="priority" x="0.00" y="0.00" incLanes="gneE8_0 gneE1_0" intLanes=":gneJ0_0_0 :gneJ0_1_0" shape="-3.25,3.25 3.25,3.25 3.25,-3.25">
        <request index="0" response="00" foes="00" cont="0"/>
        <request index="1" response="00" foes="00" cont="0"/>
    </junction>
    <junction id="gneJ1" type="priority" x="50.00" y="0.00" incLanes="gneE4_0 gneE0_0" intLanes=":gneJ1_0_0 :gneJ1_1_0" shape="46.75,3.25 53.25,3.25 46.75,-3.25">
        <request index="0" response="00" foes="00" cont="0"/>
        <request index="1" response="00" foes="00" cont="0"/>
    </junction>
    <junction id="gneJ2" type="priority" x="0.00" y="20.00" incLanes="gneE3_0 gneE3_1 gneE9_0" intLanes=":gneJ2_0_0 :gneJ2_1_0 :gneJ2_2_0 :gneJ2_3_0 :gneJ2_4_0" shape="4.75,26.55 4.75,6.85 3.25,5.35 -3.25,5.35">
        <request index="0" response="00000" foes="00000" cont="0"/>
        <request index="1" response="00000" foes="00000" cont="0"/>
        <request index="2" response="00000" foes="00000" cont="0"/>
        <request index="3" response="00000" foes="00000" cont="0"/>
        <request index="4" response="00000" foes="00000" cont="0"/>
    </junction>
    <junction id="gneJ3" type="priority" x="50.00" y="20.00" incLanes="gneE5_0 correct_ID_0 correct_ID_1 correct_ID_2 correct_ID_3" intLanes=":gneJ3_0_0 :gneJ3_1_0 :gneJ3_2_0" shape="53.25,5.35 46.75,5.35 45.25,6.85 45.25,26.55">
        <request index="0" response="000" foes="000" cont="0"/>
        <request index="1" response="000" foes="000" cont="0"/>
        <request index="2" response="000" foes="000" cont="0"/>
    </junction>

    <connection from="correct_ID" to="gneE4" fromLane="0" toLane="0" via=":gneJ3_2_0" dir="r" state="M"/>
    <connection from="gneE0" to="gneE5" fromLane="0" toLane="0" via=":gneJ1_1_0" dir="l" state="M"/>
    <connection from="gneE1" to="gneE9" fromLane="0" toLane="0" via=":gneJ0_1_0" dir="r" state="M"/>
    <connection from="gneE3" to="gneE8" fromLane="0" toLane="0" via=":gneJ2_0_0" dir="l" state="M"/>
    <connection from="gneE4" to="gneE1" fromLane="0" toLane="0" via=":gneJ1_0_0" dir="r" state="M"/>
    <connection from="gneE5" to="gneE3" fromLane="0" toLane="0" via=":gneJ3_0_0" dir="l" state="M"/>
    <connection from="gneE5" to="gneE3" fromLane="0" toLane="1" via=":gneJ3_1_0" dir="l" state="M"/>
    <connection from="gneE8" to="gneE0" fromLane="0" toLane="0" via=":gneJ0_0_0" dir="l" state="M"/>
    <connection from="gneE9" to="correct_ID" fromLane="0" toLane="0" via=":gneJ2_1_0" dir="r" state="M"/>
    <connection from="gneE9" to="correct_ID" fromLane="0" toLane="1" via=":gneJ2_2_0" dir="r" state="M"/>
    <connection from="gneE9" to="correct_ID" fromLane="0" toLane="2" via=":gneJ2_3_0" dir="r" state="M"/>
    <connection from="gneE9" to="correct_ID" fromLane="0" toLane="3" via=":gneJ2_4_0" dir="r" state="M"/>

    <connection from=":gneJ0_0" to="gneE0" fromLane="0" toLane="0" dir="l" state="M"/>
    <connection from=":gneJ0_1" to="gneE9" fromLane="0" toLane="0" dir="r" state="M"/>
    <connection from=":gneJ1_0" to="gneE1" fromLane="0" toLane="0" dir="r" state="M"/>
    <connection from=":gneJ1_1" to="gneE5" fromLane="0" toLane="0" dir="l" state="M"/>
    <connection from=":gneJ2_0" to="gneE8" fromLane="0" toLane="0" dir="l" state="M"/>
    <connection from=":gneJ2_1" to="correct_ID" fromLane="0" toLane="0" dir="r" state="M"/>
    <connection from=":gneJ2_2" to="correct_ID" fromLane="0" toLane="1" dir="r" state="M"/>
    <connection from=":gneJ2_3" to="correct_ID" fromLane="0" toLane="2" dir="r" state="M"/>
    <connection from=":gneJ2_4" to="correct_ID" fromLane="0" toLane="3" dir="r" state="M"/>
    <connection from=":gneJ3_0" to="gneE3" fromLane="0" toLane="0" dir="l" state="M"/>
    <connection from=":gneJ3_1" to="gneE3" fromLane="0" toLane="1" dir="l" state="M"/>
    <connection from=":gneJ3_2" to="gneE4" fromLane="0" toLane="0" dir="r" state="M"/>

</net>
