<?xml version="1.0" encoding="UTF-8"?>

<!-- generated on 07.08.2019 08:45:40 by Eclipse SUMO netedit Version v1_2_0+1449-4e81e5b6f5
-->

<additional xmlns:xsi="http://www.w3.org/2001/XMLSchema-instance" xsi:noNamespaceSchemaLocation="http://sumo.dlr.de/xsd/additional_file.xsd">
    <busStop id="bs_0" lane="gneE0_0" startPos="23.00" endPos="33.00">
        <access lane="gneE1_0" pos="35.00" length="3.5"/>
    </busStop>
</additional>
