<?xml version="1.0" encoding="UTF-8"?>

<!-- generated on 2022-03-04 10:15:12 by Eclipse SUMO netedit Version v1_12_0+1137-e9106068858
-->

<additional xmlns:xsi="http://www.w3.org/2001/XMLSchema-instance" xsi:noNamespaceSchemaLocation="http://sumo.dlr.de/xsd/additional_file.xsd">
    <!-- StoppingPlaces -->
    <busStop id="bs_0" lane="gneE0_0" startPos="23.00" endPos="33.00">
        <access lane="gneE1_0" pos="35.00" length="3.50"/>
    </busStop>
</additional>
