<?xml version="1.0" encoding="UTF-8"?>

<!-- generated on 2022-02-01 09:37:11 by Eclipse SUMO netedit Version v1_12_0+0167-d102d469e93
-->

<routes xmlns:xsi="http://www.w3.org/2001/XMLSchema-instance" xsi:noNamespaceSchemaLocation="http://sumo.dlr.de/xsd/routes_file.xsd">
    <vType id="custom_vType" length="20.00" vClass="bus" width="5.00" height="12.00" color="cyan"/>
    <trip id="t_0" type="custom_vType" depart="0.00" fromJunction="gneJ4" toJunction="gneJ7"/>
</routes>
