<?xml version="1.0" encoding="UTF-8"?>

<!-- generated on 2021-11-17 10:15:36 by Eclipse SUMO netedit Version v1_10_0+2354-ac183118758
<configuration xmlns:xsi="http://www.w3.org/2001/XMLSchema-instance" xsi:noNamespaceSchemaLocation="http://sumo.dlr.de/xsd/netconvertConfiguration.xsd">

    <input>
        <sumo-net-file value="C:\Users\alva_pa\.texttest\tmp\netedit.gui.17Nov101212.32404\netedit.gui\additionalElements\rerouter\load\vTypes\input_net.net.xml"/>
    </input>

    <output>
        <output-file value="C:\Users\alva_pa\.texttest\tmp\netedit.gui.17Nov101212.32404\netedit.gui\additionalElements\rerouter\load\vTypes\net.net.xml"/>
    </output>

    <processing>
        <geometry.min-radius.fix.railways value="false"/>
        <geometry.max-grade.fix value="false"/>
        <offset.disable-normalization value="true"/>
        <lefthand value="false"/>
    </processing>

    <junctions>
        <no-turnarounds value="true"/>
        <junctions.corner-detail value="5"/>
        <junctions.limit-turn-speed value="5.5"/>
        <rectangular-lane-cut value="false"/>
    </junctions>

    <pedestrian>
        <walkingareas value="false"/>
    </pedestrian>

    <netedit>
        <additional-files value="C:\Users\alva_pa\.texttest\tmp\netedit.gui.17Nov101212.32404\netedit.gui\additionalElements\rerouter\load\vTypes\additionals.xml"/>
        <additionals-output value="C:\Users\alva_pa\.texttest\tmp\netedit.gui.17Nov101212.32404\netedit.gui\additionalElements\rerouter\load\vTypes\additionals.xml"/>
        <route-files value="C:\Users\alva_pa\.texttest\tmp\netedit.gui.17Nov101212.32404\netedit.gui\additionalElements\rerouter\load\vTypes\routes.xml"/>
        <demandelements-output value="C:\Users\alva_pa\.texttest\tmp\netedit.gui.17Nov101212.32404\netedit.gui\additionalElements\rerouter\load\vTypes\routes.xml"/>
        <data-files value="C:\Users\alva_pa\.texttest\tmp\netedit.gui.17Nov101212.32404\netedit.gui\additionalElements\rerouter\load\vTypes\datas.xml"/>
        <dataelements-output value="C:\Users\alva_pa\.texttest\tmp\netedit.gui.17Nov101212.32404\netedit.gui\additionalElements\rerouter\load\vTypes\datas.xml"/>
    </netedit>

    <visualisation>
        <gui-settings-file value="C:\Users\alva_pa\.texttest\tmp\netedit.gui.17Nov101212.32404\netedit.gui\additionalElements\rerouter\load\vTypes\gui-settings.xml"/>
        <window-size value="936,697"/>
        <window-pos value="50,50"/>
        <gui-testing value="true"/>
        <gui-testing-debug value="true"/>
        <gui-testing-debug-gl value="true"/>
        <gui-testing.setting-output value="C:\Users\alva_pa\.texttest\tmp\netedit.gui.17Nov101212.32404\netedit.gui\additionalElements\rerouter\load\vTypes\guisettingsoutput.xml"/>
    </visualisation>

    <report>
        <no-warnings value="true"/>
        <aggregate-warnings value="5"/>
        <error-log value="C:\Users\alva_pa\.texttest\tmp\netedit.gui.17Nov101212.32404\netedit.gui\additionalElements\rerouter\load\vTypes\log.txt"/>
    </report>

</configuration>
-->

<additional xmlns:xsi="http://www.w3.org/2001/XMLSchema-instance" xsi:noNamespaceSchemaLocation="http://sumo.dlr.de/xsd/additional_file.xsd">
    <rerouter id="rerouter_0" edges="gneE0 gneE1" pos="0.00,10.00"/>
    <rerouter id="rerouter_2" edges="gneE0 gneE1" pos="40.00,-10.00" vTypes="$$$ % $ $"/>
    <rerouter id="rerouter_3" edges="gneE0 gneE1" pos="50.00,-10.00" vTypes="type1 type2"/>
</additional>
