<?xml version="1.0" encoding="UTF-8"?>

<!-- generated on 2022-03-30 09:15:10 by Eclipse SUMO sumo Version v1_12_0+1760-67fbbcd
<configuration xmlns:xsi="http://www.w3.org/2001/XMLSchema-instance" xsi:noNamespaceSchemaLocation="http://sumo.dlr.de/xsd/sumoConfiguration.xsd">

    <input>
        <net-file value="input_net2.net.xml"/>
        <route-files value="input_routes.rou.xml"/>
    </input>

    <processing>
        <route-steps value="10"/>
    </processing>

    <report>
        <no-step-log value="true"/>
    </report>

    <traci_server>
        <remote-port value="60906"/>
    </traci_server>

</configuration>
-->

<snapshot xmlns:xsi="http://www.w3.org/2001/XMLSchema-instance" xsi:noNamespaceSchemaLocation="http://sumo.dlr.de/xsd/state_file.xsd" version="v1_12_0+1760-67fbbcd" time="0.00" type="micro">
    <route id="!0" state="0" edges="SC CE"/>
    <route id="!1" state="0" edges="NC CE"/>
    <delay number="0" begin="2" end="0" depart="0.00" time="0.00"/>
    <vType id="DEFAULT_VEHTYPE"/>
    <vehicle id="0" depart="0.00" route="!0" distance="0 0" speedFactor="1.0600" reroute="1" state="262144 9223372036854775807 0 -1.00 0 0.00 0 0 0" pos="0.00 0.00 0.00" speed="0.00 0.00" angle="90.00" posLat="0.00" waitingTime="100000 0">
        <device id="routing_0" state="0"/>
    </vehicle>
    <vehicle id="1" depart="1.00" route="!1" distance="0 0" speedFactor="0.9383" reroute="1" state="262144 9223372036854775807 0 -1.00 0 0.00 0 0 0" pos="0.00 0.00 0.00" speed="0.00 0.00" angle="90.00" posLat="0.00" waitingTime="100000 0">
        <device id="routing_1" state="0"/>
    </vehicle>
    <tlLogic id="C" programID="0" phase="0" duration="0"/>
</snapshot>
