<routes>
    <vType id="tEgo" sigma="0"/>
    <vType id="tBlocker" sigma="0"/>

    <route id="r0" edges="beg end"/>

    <vehicle id="blocker"  type="tBlocker"  route="r0" departPos="-1" depart="0" departSpeed="max">
        <stop lane="end_0" duration="100" endPos="5"/>
    </vehicle>
    <vehicle id="ego" type="tEgo" route="r0" departPos="0" depart="10" departSpeed="max"/>

</routes>
