<?xml version="1.0" encoding="UTF-8"?>

<!-- generated on Wed Sep 28 13:48:32 2016 by SUMO netconvert Version dev-SVN-r21560
<?xml version="1.0" encoding="UTF-8"?>

<configuration xmlns:xsi="http://www.w3.org/2001/XMLSchema-instance" xsi:noNamespaceSchemaLocation="http://sumo.dlr.de/xsd/netconvertConfiguration.xsd">

    <input>
        <osm-files value="osm.xml"/>
    </input>

    <output>
        <output-file value="net.net.xml"/>
        <plain-output-prefix value="plain"/>
        <output.street-names value="true"/>
    </output>

    <projection>
        <proj.utm value="true"/>
    </projection>

    <report>
        <verbose value="true"/>
        <xml-validation value="never"/>
    </report>

</configuration>
-->

<net version="0.27" xmlns:xsi="http://www.w3.org/2001/XMLSchema-instance" xsi:noNamespaceSchemaLocation="http://sumo.dlr.de/xsd/net_file.xsd">

    <location netOffset="-405213.33,-5803545.51" convBoundary="0.00,0.00,14260.81,350.76" origBoundary="13.607621,52.373967,13.817027,52.377232" projParameter="+proj=utm +zone=33 +ellps=WGS84 +datum=WGS84 +units=m +no_defs"/>

    <type id="highway.bridleway" priority="1" numLanes="1" speed="2.78" allow="pedestrian" oneway="1" width="2.00"/>
    <type id="highway.bus_guideway" priority="1" numLanes="1" speed="8.33" allow="bus" oneway="1"/>
    <type id="highway.cycleway" priority="1" numLanes="1" speed="5.56" allow="bicycle" oneway="0" width="1.00"/>
    <type id="highway.footway" priority="1" numLanes="1" speed="2.78" allow="pedestrian" oneway="1" width="2.00"/>
    <type id="highway.ford" priority="1" numLanes="1" speed="2.78" allow="army" oneway="0"/>
    <type id="highway.living_street" priority="3" numLanes="1" speed="2.78" disallow="tram rail_urban rail rail_electric ship" oneway="0"/>
    <type id="highway.motorway" priority="13" numLanes="2" speed="44.44" allow="private emergency authority army vip passenger hov taxi bus coach delivery truck trailer motorcycle evehicle custom1 custom2" oneway="1"/>
    <type id="highway.motorway_link" priority="12" numLanes="1" speed="22.22" allow="private emergency authority army vip passenger hov taxi bus coach delivery truck trailer motorcycle evehicle custom1 custom2" oneway="1"/>
    <type id="highway.path" priority="1" numLanes="1" speed="2.78" allow="bicycle pedestrian" oneway="1" width="2.00"/>
    <type id="highway.pedestrian" priority="1" numLanes="1" speed="2.78" allow="pedestrian" oneway="1" width="2.00"/>
    <type id="highway.primary" priority="9" numLanes="2" speed="27.78" disallow="tram rail_urban rail rail_electric ship" oneway="0"/>
    <type id="highway.primary_link" priority="8" numLanes="1" speed="22.22" disallow="tram rail_urban rail rail_electric ship" oneway="0"/>
    <type id="highway.raceway" priority="14" numLanes="2" speed="83.33" allow="vip" oneway="0"/>
    <type id="highway.residential" priority="4" numLanes="1" speed="13.89" disallow="tram rail_urban rail rail_electric ship" oneway="0"/>
    <type id="highway.secondary" priority="7" numLanes="2" speed="27.78" disallow="tram rail_urban rail rail_electric ship" oneway="0"/>
    <type id="highway.secondary_link" priority="6" numLanes="1" speed="22.22" disallow="tram rail_urban rail rail_electric ship" oneway="0"/>
    <type id="highway.secondary|railway.tram" priority="15" numLanes="2" speed="27.78" disallow="rail_urban rail rail_electric ship" oneway="0"/>
    <type id="highway.service" priority="2" numLanes="1" speed="5.56" allow="delivery bicycle pedestrian" oneway="0"/>
    <type id="highway.services" priority="1" numLanes="1" speed="8.33" disallow="tram rail_urban rail rail_electric ship" oneway="0"/>
    <type id="highway.stairs" priority="1" numLanes="1" speed="1.39" allow="pedestrian" oneway="1" width="2.00"/>
    <type id="highway.step" priority="1" numLanes="1" speed="1.39" allow="pedestrian" oneway="1" width="2.00"/>
    <type id="highway.steps" priority="1" numLanes="1" speed="1.39" allow="pedestrian" oneway="1" width="2.00"/>
    <type id="highway.tertiary" priority="6" numLanes="1" speed="22.22" disallow="tram rail_urban rail rail_electric ship" oneway="0"/>
    <type id="highway.tertiary_link" priority="5" numLanes="1" speed="22.22" disallow="tram rail_urban rail rail_electric ship" oneway="0"/>
    <type id="highway.track" priority="1" numLanes="1" speed="5.56" disallow="tram rail_urban rail rail_electric ship" oneway="0"/>
    <type id="highway.trunk" priority="11" numLanes="2" speed="27.78" disallow="tram rail_urban rail rail_electric bicycle pedestrian ship" oneway="0"/>
    <type id="highway.trunk_link" priority="10" numLanes="1" speed="22.22" disallow="tram rail_urban rail rail_electric bicycle pedestrian ship" oneway="0"/>
    <type id="highway.unclassified" priority="5" numLanes="1" speed="13.89" disallow="tram rail_urban rail rail_electric ship" oneway="0"/>
    <type id="highway.unsurfaced" priority="1" numLanes="1" speed="8.33" disallow="tram rail_urban rail rail_electric ship" oneway="0"/>
    <type id="railway.light_rail" priority="15" numLanes="1" speed="27.78" allow="rail_urban" oneway="1"/>
    <type id="railway.preserved" priority="15" numLanes="1" speed="27.78" allow="rail" oneway="1"/>
    <type id="railway.rail" priority="15" numLanes="1" speed="83.33" allow="rail rail_electric" oneway="1"/>
    <type id="railway.subway" priority="15" numLanes="1" speed="27.78" allow="rail_urban" oneway="1"/>
    <type id="railway.tram" priority="15" numLanes="1" speed="13.89" allow="tram" oneway="1"/>

    <edge id=":1_0" function="internal">
        <lane id=":1_0_0" index="0" disallow="rail_urban rail rail_electric ship" speed="27.78" length="4.82" shape="-0.79,1.45 -1.48,0.14 -1.45,-0.79 -0.69,-1.31 0.79,-1.45"/>
    </edge>
    <edge id=":2_0" function="internal">
        <lane id=":2_0_0" index="0" allow="tram" speed="20.84" length="3.79" shape="655.65,349.67 656.64,350.19 657.37,350.45 658.14,350.55 659.25,350.54"/>
    </edge>
    <edge id=":2_1" function="internal">
        <lane id=":2_1_0" index="0" allow="tram" speed="20.84" length="3.79" shape="655.65,349.67 656.64,350.19 657.37,350.46 658.14,350.55 659.25,350.55"/>
    </edge>
    <edge id=":2_2" function="internal">
        <lane id=":2_2_0" index="0" disallow="rail_urban rail rail_electric ship" speed="27.78" length="4.82" shape="654.07,352.57 654.77,353.89 654.74,354.81 653.98,355.34 652.50,355.47"/>
    </edge>

    <edge id="-10860201" from="2" to="1" name="Sterndamm" priority="15" type="highway.secondary|railway.tram">
        <lane id="-10860201_0" index="0" disallow="rail_urban rail rail_electric ship" speed="27.78" length="743.05" shape="650.93,358.38 -2.36,4.35"/>
        <lane id="-10860201_1" index="1" disallow="rail_urban rail rail_electric ship" speed="27.78" length="743.05" shape="652.50,355.47 -0.79,1.45"/>
    </edge>
    <edge id="10860201" from="1" to="2" name="Sterndamm" priority="15" type="highway.secondary|railway.tram">
        <lane id="10860201_0" index="0" disallow="rail_urban rail rail_electric ship" speed="27.78" length="743.05" shape="2.36,-4.35 655.65,349.67"/>
        <lane id="10860201_1" index="1" disallow="rail_urban rail rail_electric ship" speed="27.78" length="743.05" shape="0.79,-1.45 654.07,352.57"/>
    </edge>
    <edge id="10860202" from="2" to="3" name="Sterndamm" priority="15" type="railway.tram" spreadType="center">
        <lane id="10860202_0" index="0" allow="tram" speed="13.89" length="6795.91" shape="659.25,350.54 7454.01,225.32"/>
    </edge>
    <edge id="10860203" from="2" to="4" name="Sterndamm" priority="15" type="railway.tram" spreadType="center">
        <lane id="10860203_0" index="0" allow="tram" speed="13.89" length="13603.69" shape="659.25,350.55 14260.81,109.28"/>
    </edge>

    <junction id="1" type="priority" x="0.00" y="0.00" incLanes="-10860201_0 -10860201_1" intLanes=":1_0_0" shape="0.02,-0.04 -3.12,5.76 -0.02,0.04">
        <request index="0" response="0" foes="0" cont="0"/>
    </junction>
    <junction id="2" type="priority" x="647.27" y="350.76" incLanes="10860201_0 10860201_1" intLanes=":2_0_0 :2_1_0 :2_2_0" shape="659.28,352.15 659.23,348.95 656.41,348.26 650.17,359.78">
        <request index="0" response="000" foes="000" cont="0"/>
        <request index="1" response="000" foes="000" cont="0"/>
        <request index="2" response="000" foes="000" cont="0"/>
    </junction>
    <junction id="3" type="unregulated" x="7454.01" y="225.32" incLanes="10860202_0" intLanes="" shape="7453.98,223.72 7454.04,226.92"/>
    <junction id="4" type="unregulated" x="14260.81" y="109.28" incLanes="10860203_0" intLanes="" shape="14260.78,107.68 14260.83,110.88"/>

    <connection from="-10860201" to="10860201" fromLane="1" toLane="1" via=":1_0_0" dir="t" state="M"/>
    <connection from="10860201" to="10860202" fromLane="0" toLane="0" via=":2_0_0" dir="s" state="M"/>
    <connection from="10860201" to="10860203" fromLane="0" toLane="0" via=":2_1_0" dir="s" state="M"/>
    <connection from="10860201" to="-10860201" fromLane="1" toLane="1" via=":2_2_0" dir="t" state="M"/>

    <connection from=":1_0" to="10860201" fromLane="0" toLane="1" dir="s" state="M"/>
    <connection from=":2_0" to="10860202" fromLane="0" toLane="0" dir="s" state="M"/>
    <connection from=":2_1" to="10860203" fromLane="0" toLane="0" dir="s" state="M"/>
    <connection from=":2_2" to="-10860201" fromLane="0" toLane="1" dir="s" state="M"/>

</net>
