<?xml version="1.0" encoding="UTF-8"?>

<!-- generated on Wed Apr 20 15:44:32 2016 by SUMO netconvert Version dev-SVN-r20491
<?xml version="1.0" encoding="UTF-8"?>

<configuration xmlns:xsi="http://www.w3.org/2001/XMLSchema-instance" xsi:noNamespaceSchemaLocation="http://sumo.dlr.de/xsd/netconvertConfiguration.xsd">

    <input>
        <type-files value="/scr1/sharps/data/typemap/osmNetconvert.typ.xml"/>
        <osm-files value="osm.xml"/>
    </input>

    <output>
        <output-file value="ignore.net.xml"/>
        <plain-output-prefix value="plain"/>
        <output.street-names value="true"/>
    </output>

    <projection>
        <proj.utm value="true"/>
    </projection>

    <report>
        <verbose value="true"/>
        <xml-validation value="never"/>
    </report>

</configuration>
-->

<connections version="0.27" xmlns:xsi="http://www.w3.org/2001/XMLSchema-instance" xsi:noNamespaceSchemaLocation="http://sumo.dlr.de/xsd/connections_file.xsd">
    <connection from="-10860201" to="10860201" fromLane="1" toLane="1"/>

    <connection from="10860201" to="10860202" fromLane="0" toLane="0"/>
    <connection from="10860201" to="10860203" fromLane="0" toLane="0"/>
    <connection from="10860201" to="-10860201" fromLane="1" toLane="1"/>

</connections>
