<?xml version="1.0" encoding="iso-8859-1"?>

<!-- generated on Mon Jul  4 14:21:06 2011 by SUMO netconvert Version dev-SVN-r10818
<?xml version="1.0" encoding="iso-8859-1"?>

<configuration xmlns:xsi="http://www.w3.org/2001/XMLSchema-instance" xsi:noNamespaceSchemaLocation="http://sumo.sf.net/xsd/netconvertConfiguration.xsd">

    <input>
        <osm-files value="osm.xml"/>
    </input>

    <output>
        <output-file value="ignore.net.xml"/>
        <plain-output-prefix value="plain"/>
    </output>

    <projection>
        <proj.utm value="true"/>
    </projection>

</configuration>
-->

<edges>
    <edge id="-10860201" from="2" to="1" name="Sterndamm" priority="7" type="highway.secondary" numLanes="2" speed="27.78"/>
    <edge id="10860201" from="1" to="2" name="Sterndamm" priority="7" type="highway.secondary" numLanes="2" speed="27.78"/>
</edges>
