<?xml version="1.0" encoding="UTF-8"?>

<!-- generated on 2022-02-09 09:36:58 by Eclipse SUMO netedit Version v1_12_0+0390-6ccad2aacb0
<configuration xmlns:xsi="http://www.w3.org/2001/XMLSchema-instance" xsi:noNamespaceSchemaLocation="http://sumo.dlr.de/xsd/netconvertConfiguration.xsd">

    <input>
        <sumo-net-file value="C:\Users\SUMO-Test\.texttest\tmp\netedit.gui.1_from_09Feb093324.688\netedit.gui\shapeElements\poly\inspect\closeshape\input_net.net.xml"/>
    </input>

    <output>
        <output-file value="C:\Users\SUMO-Test\.texttest\tmp\netedit.gui.1_from_09Feb093324.688\netedit.gui\shapeElements\poly\inspect\closeshape\net.net.xml"/>
    </output>

    <processing>
        <geometry.min-radius.fix.railways value="false"/>
        <geometry.max-grade.fix value="false"/>
        <offset.disable-normalization value="true"/>
        <lefthand value="false"/>
    </processing>

    <junctions>
        <no-turnarounds value="true"/>
        <junctions.corner-detail value="5"/>
        <junctions.limit-turn-speed value="5.5"/>
        <rectangular-lane-cut value="false"/>
    </junctions>

    <pedestrian>
        <walkingareas value="false"/>
    </pedestrian>

    <netedit>
        <additional-files value="C:\Users\SUMO-Test\.texttest\tmp\netedit.gui.1_from_09Feb093324.688\netedit.gui\shapeElements\poly\inspect\closeshape\additionals.xml"/>
        <additionals-output value="C:\Users\SUMO-Test\.texttest\tmp\netedit.gui.1_from_09Feb093324.688\netedit.gui\shapeElements\poly\inspect\closeshape\additionals.xml"/>
        <route-files value="C:\Users\SUMO-Test\.texttest\tmp\netedit.gui.1_from_09Feb093324.688\netedit.gui\shapeElements\poly\inspect\closeshape\routes.xml"/>
        <demandelements-output value="C:\Users\SUMO-Test\.texttest\tmp\netedit.gui.1_from_09Feb093324.688\netedit.gui\shapeElements\poly\inspect\closeshape\routes.xml"/>
        <data-files value="C:\Users\SUMO-Test\.texttest\tmp\netedit.gui.1_from_09Feb093324.688\netedit.gui\shapeElements\poly\inspect\closeshape\datas.xml"/>
        <dataelements-output value="C:\Users\SUMO-Test\.texttest\tmp\netedit.gui.1_from_09Feb093324.688\netedit.gui\shapeElements\poly\inspect\closeshape\datas.xml"/>
    </netedit>

    <visualisation>
        <gui-settings-file value="C:\Users\SUMO-Test\.texttest\tmp\netedit.gui.1_from_09Feb093324.688\netedit.gui\shapeElements\poly\inspect\closeshape\gui-settings.xml"/>
        <window-size value="936,697"/>
        <window-pos value="50,50"/>
        <gui-testing value="true"/>
        <gui-testing-debug value="true"/>
        <gui-testing-debug-gl value="true"/>
        <gui-testing.setting-output value="C:\Users\SUMO-Test\.texttest\tmp\netedit.gui.1_from_09Feb093324.688\netedit.gui\shapeElements\poly\inspect\closeshape\guisettingsoutput.xml"/>
    </visualisation>

    <report>
        <no-warnings value="true"/>
        <aggregate-warnings value="5"/>
        <error-log value="C:\Users\SUMO-Test\.texttest\tmp\netedit.gui.1_from_09Feb093324.688\netedit.gui\shapeElements\poly\inspect\closeshape\log.txt"/>
    </report>

</configuration>
-->

<additional xmlns:xsi="http://www.w3.org/2001/XMLSchema-instance" xsi:noNamespaceSchemaLocation="http://sumo.dlr.de/xsd/additional_file.xsd">
    <poly id="po_0" color="red" fill="0" layer="0.00" shape="10.000000,10.000000 10.000000,20.000000 0.000000,20.000000 0.000000,10.000000"/>
</additional>
