<additional xmlns:xsi="http://www.w3.org/2001/XMLSchema-instance" xsi:noNamespaceSchemaLocation="http://sumo.dlr.de/xsd/additional_file.xsd">

    <variableSpeedSign lanes="center0_0 center1_0" pos="0.00,10.00"/>

    <variableSpeedSign id="$$$$%%%%$$$" lanes="center0_0 center1_0" pos="10.00,10.00"/>

    <variableSpeedSign id="customID" lanes="center0_0 center1_0" pos="40.00,-10.00"/>

    <variableSpeedSign id="customID" lanes="center0_0 center1_0" pos="50.00,-10.00"/>

</additional>
