<?xml version="1.0"?>

<!-- generated on Sun Jul 26 13:15:44 2009 by SUMO sumo Version dev-SVN-r7516
<configuration>

    <input
        net-file="net.net.xml"
        route-files="input_routes.rou.xml"
    />

    <output
        vehroute-output="vehroutes.xml"
    />

    <time
        begin="0"
        end="1000"
    />

</configuration>
-->

<routes>
   <vehicle id="horizontal" depart="100" arrival="290">
      <route edges="2fi 2si 1o 1fi 1si 2o 2fi"/>
   </vehicle>

   <vehicle id="horizontal_0" depart="110" arrival="299">
      <route edges="2fi 2si 1o 1fi 1si 2o 2fi"/>
   </vehicle>

   <vehicle id="vertical" depart="104" arrival="326">
      <route edges="3fi 3si 4o 4fi 4si 3o 3fi"/>
   </vehicle>

   <vehicle id="vertical_0" depart="114" arrival="328">
      <route edges="3fi 3si 4o 4fi 4si 3o 3fi"/>
   </vehicle>

   <vehicle id="vertical_1" depart="125" arrival="330">
      <route edges="3fi 3si 4o 4fi 4si 3o 3fi"/>
   </vehicle>

   <vehicle id="vertical_2" depart="134" arrival="332">
      <route edges="3fi 3si 4o 4fi 4si 3o 3fi"/>
   </vehicle>

   <vehicle id="vertical_3" depart="144" arrival="334">
      <route edges="3fi 3si 4o 4fi 4si 3o 3fi"/>
   </vehicle>

   <vehicle id="vertical_4" depart="154" arrival="341">
      <route edges="3fi 3si 4o 4fi 4si 3o 3fi"/>
   </vehicle>

   <vehicle id="horizontal_1" depart="120" arrival="371">
      <route edges="2fi 2si 1o 1fi 1si 2o 2fi"/>
   </vehicle>

   <vehicle id="horizontal_2" depart="130" arrival="376">
      <route edges="2fi 2si 1o 1fi 1si 2o 2fi"/>
   </vehicle>

   <vehicle id="horizontal_3" depart="140" arrival="378">
      <route edges="2fi 2si 1o 1fi 1si 2o 2fi"/>
   </vehicle>

   <vehicle id="horizontal_4" depart="150" arrival="380">
      <route edges="2fi 2si 1o 1fi 1si 2o 2fi"/>
   </vehicle>

   <vehicle id="horizontal_5" depart="160" arrival="382">
      <route edges="2fi 2si 1o 1fi 1si 2o 2fi"/>
   </vehicle>

   <vehicle id="horizontal_6" depart="170" arrival="384">
      <route edges="2fi 2si 1o 1fi 1si 2o 2fi"/>
   </vehicle>

   <vehicle id="horizontal_7" depart="180" arrival="386">
      <route edges="2fi 2si 1o 1fi 1si 2o 2fi"/>
   </vehicle>

   <vehicle id="horizontal_8" depart="190" arrival="388">
      <route edges="2fi 2si 1o 1fi 1si 2o 2fi"/>
   </vehicle>

   <vehicle id="horizontal_9" depart="200" arrival="390">
      <route edges="2fi 2si 1o 1fi 1si 2o 2fi"/>
   </vehicle>

   <vehicle id="vertical_5" depart="164" arrival="416">
      <route edges="3fi 3si 4o 4fi 4si 3o 3fi"/>
   </vehicle>

   <vehicle id="vertical_6" depart="174" arrival="421">
      <route edges="3fi 3si 4o 4fi 4si 3o 3fi"/>
   </vehicle>

   <vehicle id="vertical_7" depart="184" arrival="423">
      <route edges="3fi 3si 4o 4fi 4si 3o 3fi"/>
   </vehicle>

   <vehicle id="vertical_8" depart="194" arrival="425">
      <route edges="3fi 3si 4o 4fi 4si 3o 3fi"/>
   </vehicle>

   <vehicle id="vertical_9" depart="204" arrival="427">
      <route edges="3fi 3si 4o 4fi 4si 3o 3fi"/>
   </vehicle>

   <vehicle id="vertical_10" depart="214" arrival="429">
      <route edges="3fi 3si 4o 4fi 4si 3o 3fi"/>
   </vehicle>

   <vehicle id="vertical_11" depart="224" arrival="431">
      <route edges="3fi 3si 4o 4fi 4si 3o 3fi"/>
   </vehicle>

   <vehicle id="vertical_12" depart="234" arrival="433">
      <route edges="3fi 3si 4o 4fi 4si 3o 3fi"/>
   </vehicle>

   <vehicle id="vertical_13" depart="244" arrival="435">
      <route edges="3fi 3si 4o 4fi 4si 3o 3fi"/>
   </vehicle>

   <vehicle id="horizontal_10" depart="210" arrival="460">
      <route edges="2fi 2si 1o 1fi 1si 2o 2fi"/>
   </vehicle>

   <vehicle id="horizontal_11" depart="220" arrival="462">
      <route edges="2fi 2si 1o 1fi 1si 2o 2fi"/>
   </vehicle>

   <vehicle id="horizontal_12" depart="230" arrival="467">
      <route edges="2fi 2si 1o 1fi 1si 2o 2fi"/>
   </vehicle>

   <vehicle id="horizontal_13" depart="249" arrival="469">
      <route edges="2fi 2si 1o 1fi 1si 2o 2fi"/>
   </vehicle>

   <vehicle id="horizontal_14" depart="253" arrival="471">
      <route edges="2fi 2si 1o 1fi 1si 2o 2fi"/>
   </vehicle>

   <vehicle id="horizontal_15" depart="261" arrival="473">
      <route edges="2fi 2si 1o 1fi 1si 2o 2fi"/>
   </vehicle>

   <vehicle id="horizontal_16" depart="270" arrival="475">
      <route edges="2fi 2si 1o 1fi 1si 2o 2fi"/>
   </vehicle>

   <vehicle id="horizontal_17" depart="280" arrival="477">
      <route edges="2fi 2si 1o 1fi 1si 2o 2fi"/>
   </vehicle>

   <vehicle id="horizontal_18" depart="290" arrival="479">
      <route edges="2fi 2si 1o 1fi 1si 2o 2fi"/>
   </vehicle>

   <vehicle id="vertical_14" depart="254" arrival="506">
      <route edges="3fi 3si 4o 4fi 4si 3o 3fi"/>
   </vehicle>

   <vehicle id="vertical_15" depart="265" arrival="508">
      <route edges="3fi 3si 4o 4fi 4si 3o 3fi"/>
   </vehicle>

   <vehicle id="vertical_16" depart="274" arrival="513">
      <route edges="3fi 3si 4o 4fi 4si 3o 3fi"/>
   </vehicle>

   <vehicle id="vertical_17" depart="284" arrival="515">
      <route edges="3fi 3si 4o 4fi 4si 3o 3fi"/>
   </vehicle>

   <vehicle id="vertical_18" depart="294" arrival="517">
      <route edges="3fi 3si 4o 4fi 4si 3o 3fi"/>
   </vehicle>

   <vehicle id="vertical_19" depart="304" arrival="519">
      <route edges="3fi 3si 4o 4fi 4si 3o 3fi"/>
   </vehicle>

   <vehicle id="vertical_20" depart="314" arrival="521">
      <route edges="3fi 3si 4o 4fi 4si 3o 3fi"/>
   </vehicle>

   <vehicle id="vertical_21" depart="334" arrival="523">
      <route edges="3fi 3si 4o 4fi 4si 3o 3fi"/>
   </vehicle>

   <vehicle id="horizontal_19" depart="300" arrival="552">
      <route edges="2fi 2si 1o 1fi 1si 2o 2fi"/>
   </vehicle>

   <vehicle id="horizontal_20" depart="310" arrival="554">
      <route edges="2fi 2si 1o 1fi 1si 2o 2fi"/>
   </vehicle>

   <vehicle id="horizontal_21" depart="320" arrival="556">
      <route edges="2fi 2si 1o 1fi 1si 2o 2fi"/>
   </vehicle>

   <vehicle id="horizontal_22" depart="342" arrival="558">
      <route edges="2fi 2si 1o 1fi 1si 2o 2fi"/>
   </vehicle>

   <vehicle id="horizontal_23" depart="349" arrival="560">
      <route edges="2fi 2si 1o 1fi 1si 2o 2fi"/>
   </vehicle>

   <vehicle id="horizontal_24" depart="353" arrival="562">
      <route edges="2fi 2si 1o 1fi 1si 2o 2fi"/>
   </vehicle>

   <vehicle id="horizontal_25" depart="364" arrival="564">
      <route edges="2fi 2si 1o 1fi 1si 2o 2fi"/>
   </vehicle>

   <vehicle id="horizontal_26" depart="371" arrival="566">
      <route edges="2fi 2si 1o 1fi 1si 2o 2fi"/>
   </vehicle>

   <vehicle id="vertical_22" depart="345" arrival="596">
      <route edges="3fi 3si 4o 4fi 4si 3o 3fi"/>
   </vehicle>

   <vehicle id="vertical_23" depart="353" arrival="598">
      <route edges="3fi 3si 4o 4fi 4si 3o 3fi"/>
   </vehicle>

   <vehicle id="vertical_24" depart="362" arrival="600">
      <route edges="3fi 3si 4o 4fi 4si 3o 3fi"/>
   </vehicle>

   <vehicle id="vertical_25" depart="371" arrival="602">
      <route edges="3fi 3si 4o 4fi 4si 3o 3fi"/>
   </vehicle>

   <vehicle id="vertical_26" depart="379" arrival="604">
      <route edges="3fi 3si 4o 4fi 4si 3o 3fi"/>
   </vehicle>

   <vehicle id="vertical_27" depart="387" arrival="609">
      <route edges="3fi 3si 4o 4fi 4si 3o 3fi"/>
   </vehicle>

   <vehicle id="vertical_28" depart="396" arrival="611">
      <route edges="3fi 3si 4o 4fi 4si 3o 3fi"/>
   </vehicle>

   <vehicle id="vertical_29" depart="404" arrival="613">
      <route edges="3fi 3si 4o 4fi 4si 3o 3fi"/>
   </vehicle>

   <vehicle id="vertical_30" depart="416" arrival="615">
      <route edges="3fi 3si 4o 4fi 4si 3o 3fi"/>
   </vehicle>

   <vehicle id="always_right" depart="100" arrival="623">
      <route edges="1fi 1si 4o 4fi 4si 2o 2fi 2si 3o 3fi 3si 1o 1fi"/>
   </vehicle>

   <vehicle id="always_right_0" depart="110" arrival="625">
      <route edges="1fi 1si 4o 4fi 4si 2o 2fi 2si 3o 3fi 3si 1o 1fi"/>
   </vehicle>

   <vehicle id="always_right_1" depart="120" arrival="627">
      <route edges="1fi 1si 4o 4fi 4si 2o 2fi 2si 3o 3fi 3si 1o 1fi"/>
   </vehicle>

   <vehicle id="horizontal_27" depart="390" arrival="640">
      <route edges="2fi 2si 1o 1fi 1si 2o 2fi"/>
   </vehicle>

   <vehicle id="always_left" depart="100" arrival="642">
      <route edges="3fi 3si 2o 2fi 2si 4o 4fi 4si 1o 1fi 1si 3o 3fi"/>
   </vehicle>

   <vehicle id="horizontal_28" depart="394" arrival="642">
      <route edges="2fi 2si 1o 1fi 1si 2o 2fi"/>
   </vehicle>

   <vehicle id="always_left_0" depart="110" arrival="644">
      <route edges="3fi 3si 2o 2fi 2si 4o 4fi 4si 1o 1fi 1si 3o 3fi"/>
   </vehicle>

   <vehicle id="always_left_1" depart="120" arrival="646">
      <route edges="3fi 3si 2o 2fi 2si 4o 4fi 4si 1o 1fi 1si 3o 3fi"/>
   </vehicle>

   <vehicle id="horizontal_29" depart="400" arrival="647">
      <route edges="2fi 2si 1o 1fi 1si 2o 2fi"/>
   </vehicle>

   <vehicle id="always_left_2" depart="130" arrival="648">
      <route edges="3fi 3si 2o 2fi 2si 4o 4fi 4si 1o 1fi 1si 3o 3fi"/>
   </vehicle>

   <vehicle id="horizontal_30" depart="410" arrival="649">
      <route edges="2fi 2si 1o 1fi 1si 2o 2fi"/>
   </vehicle>

   <vehicle id="always_left_3" depart="140" arrival="650">
      <route edges="3fi 3si 2o 2fi 2si 4o 4fi 4si 1o 1fi 1si 3o 3fi"/>
   </vehicle>

   <vehicle id="horizontal_31" depart="430" arrival="651">
      <route edges="2fi 2si 1o 1fi 1si 2o 2fi"/>
   </vehicle>

   <vehicle id="always_left_4" depart="150" arrival="652">
      <route edges="3fi 3si 2o 2fi 2si 4o 4fi 4si 1o 1fi 1si 3o 3fi"/>
   </vehicle>

   <vehicle id="horizontal_32" depart="434" arrival="653">
      <route edges="2fi 2si 1o 1fi 1si 2o 2fi"/>
   </vehicle>

   <vehicle id="always_left_5" depart="160" arrival="654">
      <route edges="3fi 3si 2o 2fi 2si 4o 4fi 4si 1o 1fi 1si 3o 3fi"/>
   </vehicle>

   <vehicle id="horizontal_33" depart="440" arrival="655">
      <route edges="2fi 2si 1o 1fi 1si 2o 2fi"/>
   </vehicle>

   <vehicle id="horizontal_34" depart="462" arrival="657">
      <route edges="2fi 2si 1o 1fi 1si 2o 2fi"/>
   </vehicle>

   <vehicle id="vertical_31" depart="439" arrival="687">
      <route edges="3fi 3si 4o 4fi 4si 3o 3fi"/>
   </vehicle>

   <vehicle id="vertical_32" depart="448" arrival="689">
      <route edges="3fi 3si 4o 4fi 4si 3o 3fi"/>
   </vehicle>

   <vehicle id="vertical_33" depart="456" arrival="691">
      <route edges="3fi 3si 4o 4fi 4si 3o 3fi"/>
   </vehicle>

   <vehicle id="vertical_34" depart="464" arrival="693">
      <route edges="3fi 3si 4o 4fi 4si 3o 3fi"/>
   </vehicle>

   <vehicle id="vertical_35" depart="472" arrival="695">
      <route edges="3fi 3si 4o 4fi 4si 3o 3fi"/>
   </vehicle>

   <vehicle id="vertical_36" depart="480" arrival="697">
      <route edges="3fi 3si 4o 4fi 4si 3o 3fi"/>
   </vehicle>

   <vehicle id="vertical_37" depart="496" arrival="699">
      <route edges="3fi 3si 4o 4fi 4si 3o 3fi"/>
   </vehicle>

   <vehicle id="vertical_38" depart="508" arrival="701">
      <route edges="3fi 3si 4o 4fi 4si 3o 3fi"/>
   </vehicle>

   <vehicle id="always_right_2" depart="130" arrival="710">
      <route edges="1fi 1si 4o 4fi 4si 2o 2fi 2si 3o 3fi 3si 1o 1fi"/>
   </vehicle>

   <vehicle id="always_right_3" depart="140" arrival="712">
      <route edges="1fi 1si 4o 4fi 4si 2o 2fi 2si 3o 3fi 3si 1o 1fi"/>
   </vehicle>

   <vehicle id="always_right_4" depart="150" arrival="714">
      <route edges="1fi 1si 4o 4fi 4si 2o 2fi 2si 3o 3fi 3si 1o 1fi"/>
   </vehicle>

   <vehicle id="always_right_5" depart="160" arrival="720">
      <route edges="1fi 1si 4o 4fi 4si 2o 2fi 2si 3o 3fi 3si 1o 1fi"/>
   </vehicle>

   <vehicle id="always_right_6" depart="170" arrival="723">
      <route edges="1fi 1si 4o 4fi 4si 2o 2fi 2si 3o 3fi 3si 1o 1fi"/>
   </vehicle>

   <vehicle id="always_right_7" depart="180" arrival="725">
      <route edges="1fi 1si 4o 4fi 4si 2o 2fi 2si 3o 3fi 3si 1o 1fi"/>
   </vehicle>

   <vehicle id="always_left_6" depart="170" arrival="731">
      <route edges="3fi 3si 2o 2fi 2si 4o 4fi 4si 1o 1fi 1si 3o 3fi"/>
   </vehicle>

   <vehicle id="always_left_7" depart="180" arrival="733">
      <route edges="3fi 3si 2o 2fi 2si 4o 4fi 4si 1o 1fi 1si 3o 3fi"/>
   </vehicle>

   <vehicle id="always_left_8" depart="190" arrival="735">
      <route edges="3fi 3si 2o 2fi 2si 4o 4fi 4si 1o 1fi 1si 3o 3fi"/>
   </vehicle>

   <vehicle id="horizontal_35" depart="479" arrival="736">
      <route edges="2fi 2si 1o 1fi 1si 2o 2fi"/>
   </vehicle>

   <vehicle id="always_left_9" depart="200" arrival="737">
      <route edges="3fi 3si 2o 2fi 2si 4o 4fi 4si 1o 1fi 1si 3o 3fi"/>
   </vehicle>

   <vehicle id="horizontal_36" depart="483" arrival="738">
      <route edges="2fi 2si 1o 1fi 1si 2o 2fi"/>
   </vehicle>

   <vehicle id="always_left_10" depart="210" arrival="739">
      <route edges="3fi 3si 2o 2fi 2si 4o 4fi 4si 1o 1fi 1si 3o 3fi"/>
   </vehicle>

   <vehicle id="horizontal_37" depart="487" arrival="740">
      <route edges="2fi 2si 1o 1fi 1si 2o 2fi"/>
   </vehicle>

   <vehicle id="always_left_11" depart="220" arrival="741">
      <route edges="3fi 3si 2o 2fi 2si 4o 4fi 4si 1o 1fi 1si 3o 3fi"/>
   </vehicle>

   <vehicle id="always_left_12" depart="230" arrival="743">
      <route edges="3fi 3si 2o 2fi 2si 4o 4fi 4si 1o 1fi 1si 3o 3fi"/>
   </vehicle>

   <vehicle id="always_left_13" depart="240" arrival="745">
      <route edges="3fi 3si 2o 2fi 2si 4o 4fi 4si 1o 1fi 1si 3o 3fi"/>
   </vehicle>

   <vehicle id="horizontal_38" depart="491" arrival="746">
      <route edges="2fi 2si 1o 1fi 1si 2o 2fi"/>
   </vehicle>

   <vehicle id="always_left_14" depart="250" arrival="747">
      <route edges="3fi 3si 2o 2fi 2si 4o 4fi 4si 1o 1fi 1si 3o 3fi"/>
   </vehicle>

   <vehicle id="horizontal_39" depart="500" arrival="750">
      <route edges="2fi 2si 1o 1fi 1si 2o 2fi"/>
   </vehicle>

   <vehicle id="horizontal_40" depart="524" arrival="753">
      <route edges="2fi 2si 1o 1fi 1si 2o 2fi"/>
   </vehicle>

   <vehicle id="horizontal_41" depart="543" arrival="756">
      <route edges="2fi 2si 1o 1fi 1si 2o 2fi"/>
   </vehicle>

   <vehicle id="horizontal_42" depart="547" arrival="758">
      <route edges="2fi 2si 1o 1fi 1si 2o 2fi"/>
   </vehicle>

   <vehicle id="vertical_39" depart="527" arrival="775">
      <route edges="3fi 3si 4o 4fi 4si 3o 3fi"/>
   </vehicle>

   <vehicle id="vertical_40" depart="536" arrival="777">
      <route edges="3fi 3si 4o 4fi 4si 3o 3fi"/>
   </vehicle>

   <vehicle id="vertical_41" depart="544" arrival="779">
      <route edges="3fi 3si 4o 4fi 4si 3o 3fi"/>
   </vehicle>

   <vehicle id="vertical_42" depart="555" arrival="781">
      <route edges="3fi 3si 4o 4fi 4si 3o 3fi"/>
   </vehicle>

   <vehicle id="vertical_43" depart="563" arrival="787">
      <route edges="3fi 3si 4o 4fi 4si 3o 3fi"/>
   </vehicle>

   <vehicle id="vertical_44" depart="584" arrival="790">
      <route edges="3fi 3si 4o 4fi 4si 3o 3fi"/>
   </vehicle>

   <vehicle id="vertical_45" depart="604" arrival="792">
      <route edges="3fi 3si 4o 4fi 4si 3o 3fi"/>
   </vehicle>

   <vehicle id="always_right_8" depart="190" arrival="803">
      <route edges="1fi 1si 4o 4fi 4si 2o 2fi 2si 3o 3fi 3si 1o 1fi"/>
   </vehicle>

   <vehicle id="always_right_9" depart="200" arrival="805">
      <route edges="1fi 1si 4o 4fi 4si 2o 2fi 2si 3o 3fi 3si 1o 1fi"/>
   </vehicle>

   <vehicle id="always_right_10" depart="210" arrival="807">
      <route edges="1fi 1si 4o 4fi 4si 2o 2fi 2si 3o 3fi 3si 1o 1fi"/>
   </vehicle>

   <vehicle id="always_right_11" depart="220" arrival="809">
      <route edges="1fi 1si 4o 4fi 4si 2o 2fi 2si 3o 3fi 3si 1o 1fi"/>
   </vehicle>

   <vehicle id="always_right_12" depart="230" arrival="811">
      <route edges="1fi 1si 4o 4fi 4si 2o 2fi 2si 3o 3fi 3si 1o 1fi"/>
   </vehicle>

   <vehicle id="always_right_13" depart="240" arrival="816">
      <route edges="1fi 1si 4o 4fi 4si 2o 2fi 2si 3o 3fi 3si 1o 1fi"/>
   </vehicle>

   <vehicle id="always_left_15" depart="260" arrival="822">
      <route edges="3fi 3si 2o 2fi 2si 4o 4fi 4si 1o 1fi 1si 3o 3fi"/>
   </vehicle>

   <vehicle id="always_left_16" depart="270" arrival="824">
      <route edges="3fi 3si 2o 2fi 2si 4o 4fi 4si 1o 1fi 1si 3o 3fi"/>
   </vehicle>

   <vehicle id="horizontal_43" depart="566" arrival="825">
      <route edges="2fi 2si 1o 1fi 1si 2o 2fi"/>
   </vehicle>

   <vehicle id="always_left_17" depart="280" arrival="826">
      <route edges="3fi 3si 2o 2fi 2si 4o 4fi 4si 1o 1fi 1si 3o 3fi"/>
   </vehicle>

   <vehicle id="always_left_18" depart="290" arrival="828">
      <route edges="3fi 3si 2o 2fi 2si 4o 4fi 4si 1o 1fi 1si 3o 3fi"/>
   </vehicle>

   <vehicle id="horizontal_44" depart="570" arrival="830">
      <route edges="2fi 2si 1o 1fi 1si 2o 2fi"/>
   </vehicle>

   <vehicle id="always_left_19" depart="300" arrival="830">
      <route edges="3fi 3si 2o 2fi 2si 4o 4fi 4si 1o 1fi 1si 3o 3fi"/>
   </vehicle>

   <vehicle id="horizontal_45" depart="574" arrival="832">
      <route edges="2fi 2si 1o 1fi 1si 2o 2fi"/>
   </vehicle>

   <vehicle id="always_left_20" depart="310" arrival="832">
      <route edges="3fi 3si 2o 2fi 2si 4o 4fi 4si 1o 1fi 1si 3o 3fi"/>
   </vehicle>

   <vehicle id="horizontal_46" depart="578" arrival="834">
      <route edges="2fi 2si 1o 1fi 1si 2o 2fi"/>
   </vehicle>

   <vehicle id="always_left_21" depart="320" arrival="834">
      <route edges="3fi 3si 2o 2fi 2si 4o 4fi 4si 1o 1fi 1si 3o 3fi"/>
   </vehicle>

   <vehicle id="horizontal_47" depart="582" arrival="836">
      <route edges="2fi 2si 1o 1fi 1si 2o 2fi"/>
   </vehicle>

   <vehicle id="horizontal_48" depart="590" arrival="838">
      <route edges="2fi 2si 1o 1fi 1si 2o 2fi"/>
   </vehicle>

   <vehicle id="horizontal_49" depart="612" arrival="843">
      <route edges="2fi 2si 1o 1fi 1si 2o 2fi"/>
   </vehicle>

   <vehicle id="horizontal_50" depart="633" arrival="845">
      <route edges="2fi 2si 1o 1fi 1si 2o 2fi"/>
   </vehicle>

   <vehicle id="horizontal_51" depart="642" arrival="847">
      <route edges="2fi 2si 1o 1fi 1si 2o 2fi"/>
   </vehicle>

   <vehicle id="vertical_46" depart="620" arrival="865">
      <route edges="3fi 3si 4o 4fi 4si 3o 3fi"/>
   </vehicle>

   <vehicle id="vertical_47" depart="629" arrival="870">
      <route edges="3fi 3si 4o 4fi 4si 3o 3fi"/>
   </vehicle>

   <vehicle id="vertical_48" depart="637" arrival="872">
      <route edges="3fi 3si 4o 4fi 4si 3o 3fi"/>
   </vehicle>

   <vehicle id="vertical_49" depart="658" arrival="874">
      <route edges="3fi 3si 4o 4fi 4si 3o 3fi"/>
   </vehicle>

   <vehicle id="always_right_14" depart="250" arrival="888">
      <route edges="1fi 1si 4o 4fi 4si 2o 2fi 2si 3o 3fi 3si 1o 1fi"/>
   </vehicle>

   <vehicle id="vertical_50" depart="701" arrival="888">
      <route edges="3fi 3si 4o 4fi 4si 3o 3fi"/>
   </vehicle>

   <vehicle id="always_right_15" depart="260" arrival="898">
      <route edges="1fi 1si 4o 4fi 4si 2o 2fi 2si 3o 3fi 3si 1o 1fi"/>
   </vehicle>

   <vehicle id="always_right_16" depart="270" arrival="900">
      <route edges="1fi 1si 4o 4fi 4si 2o 2fi 2si 3o 3fi 3si 1o 1fi"/>
   </vehicle>

   <vehicle id="always_right_17" depart="298" arrival="902">
      <route edges="1fi 1si 4o 4fi 4si 2o 2fi 2si 3o 3fi 3si 1o 1fi"/>
   </vehicle>

   <vehicle id="always_left_22" depart="341" arrival="910">
      <route edges="3fi 3si 2o 2fi 2si 4o 4fi 4si 1o 1fi 1si 3o 3fi"/>
   </vehicle>

   <vehicle id="always_left_23" depart="349" arrival="912">
      <route edges="3fi 3si 2o 2fi 2si 4o 4fi 4si 1o 1fi 1si 3o 3fi"/>
   </vehicle>

   <vehicle id="always_left_24" depart="358" arrival="914">
      <route edges="3fi 3si 2o 2fi 2si 4o 4fi 4si 1o 1fi 1si 3o 3fi"/>
   </vehicle>

   <vehicle id="horizontal_52" depart="657" arrival="916">
      <route edges="2fi 2si 1o 1fi 1si 2o 2fi"/>
   </vehicle>

   <vehicle id="always_left_25" depart="366" arrival="916">
      <route edges="3fi 3si 2o 2fi 2si 4o 4fi 4si 1o 1fi 1si 3o 3fi"/>
   </vehicle>

   <vehicle id="horizontal_53" depart="661" arrival="918">
      <route edges="2fi 2si 1o 1fi 1si 2o 2fi"/>
   </vehicle>

   <vehicle id="always_left_26" depart="375" arrival="918">
      <route edges="3fi 3si 2o 2fi 2si 4o 4fi 4si 1o 1fi 1si 3o 3fi"/>
   </vehicle>

   <vehicle id="horizontal_54" depart="665" arrival="920">
      <route edges="2fi 2si 1o 1fi 1si 2o 2fi"/>
   </vehicle>

   <vehicle id="always_left_27" depart="383" arrival="920">
      <route edges="3fi 3si 2o 2fi 2si 4o 4fi 4si 1o 1fi 1si 3o 3fi"/>
   </vehicle>

   <vehicle id="horizontal_55" depart="670" arrival="922">
      <route edges="2fi 2si 1o 1fi 1si 2o 2fi"/>
   </vehicle>

   <vehicle id="always_left_28" depart="392" arrival="922">
      <route edges="3fi 3si 2o 2fi 2si 4o 4fi 4si 1o 1fi 1si 3o 3fi"/>
   </vehicle>

   <vehicle id="horizontal_56" depart="674" arrival="924">
      <route edges="2fi 2si 1o 1fi 1si 2o 2fi"/>
   </vehicle>

   <vehicle id="always_left_29" depart="400" arrival="924">
      <route edges="3fi 3si 2o 2fi 2si 4o 4fi 4si 1o 1fi 1si 3o 3fi"/>
   </vehicle>

   <vehicle id="horizontal_57" depart="680" arrival="926">
      <route edges="2fi 2si 1o 1fi 1si 2o 2fi"/>
   </vehicle>

   <vehicle id="always_left_30" depart="410" arrival="926">
      <route edges="3fi 3si 2o 2fi 2si 4o 4fi 4si 1o 1fi 1si 3o 3fi"/>
   </vehicle>

   <vehicle id="horizontal_58" depart="700" arrival="928">
      <route edges="2fi 2si 1o 1fi 1si 2o 2fi"/>
   </vehicle>

   <vehicle id="horizontal_59" depart="707" arrival="933">
      <route edges="2fi 2si 1o 1fi 1si 2o 2fi"/>
   </vehicle>

   <vehicle id="horizontal_60" depart="725" arrival="935">
      <route edges="2fi 2si 1o 1fi 1si 2o 2fi"/>
   </vehicle>

   <vehicle id="vertical_51" depart="709" arrival="958">
      <route edges="3fi 3si 4o 4fi 4si 3o 3fi"/>
   </vehicle>

   <vehicle id="vertical_52" depart="718" arrival="963">
      <route edges="3fi 3si 4o 4fi 4si 3o 3fi"/>
   </vehicle>

   <vehicle id="vertical_53" depart="726" arrival="966">
      <route edges="3fi 3si 4o 4fi 4si 3o 3fi"/>
   </vehicle>

   <vehicle id="vertical_54" depart="751" arrival="968">
      <route edges="3fi 3si 4o 4fi 4si 3o 3fi"/>
   </vehicle>

   <vehicle id="vertical_55" depart="759" arrival="971">
      <route edges="3fi 3si 4o 4fi 4si 3o 3fi"/>
   </vehicle>

   <vehicle id="always_right_18" depart="302" arrival="978">
      <route edges="1fi 1si 4o 4fi 4si 2o 2fi 2si 3o 3fi 3si 1o 1fi"/>
   </vehicle>

   <vehicle id="always_right_19" depart="306" arrival="983">
      <route edges="1fi 1si 4o 4fi 4si 2o 2fi 2si 3o 3fi 3si 1o 1fi"/>
   </vehicle>

   <vehicle id="always_right_20" depart="310" arrival="985">
      <route edges="1fi 1si 4o 4fi 4si 2o 2fi 2si 3o 3fi 3si 1o 1fi"/>
   </vehicle>

</routes>
