<?xml version="1.0"?>

<!-- generated on 04/26/10 11:24:19 by SUMO duarouter Version dev-SVN-r8163
<configuration>

    <input>
        <net-file value="input_net.net.xml"/>
        <alternatives value="input_alts.rou.alt.xml"/>
        <weights value="input_weights.dump.xml"/>
    </input>

    <output>
        <output-file value="routes.rou.xml"/>
    </output>

    <processing>
        <continue-on-unbuild value="true"/>
    </processing>

    <time>
        <begin value="0"/>
        <end value="86400"/>
    </time>

    <report>
        <verbose value="true"/>
    </report>

</configuration>
-->

<route-alternatives>
    <vehicle id="0" depart="0.00">
        <routeDistribution last="1">
            <route cost="142.58" probability="0.49986757" edges="beg middle end rend"/>
            <route cost="139.59" probability="0.50013243" edges="beg beg2left left left2end end rend"/>
        </routeDistribution>
    </vehicle>
    <vehicle id="1" depart="10.00">
        <routeDistribution last="1">
            <route cost="142.58" probability="0.49986757" edges="beg middle end rend"/>
            <route cost="139.59" probability="0.50013243" edges="beg beg2left left left2end end rend"/>
        </routeDistribution>
    </vehicle>
    <vehicle id="2" depart="20.00">
        <routeDistribution last="0">
            <route cost="142.58" probability="0.49986757" edges="beg middle end rend"/>
            <route cost="139.59" probability="0.50013243" edges="beg beg2left left left2end end rend"/>
        </routeDistribution>
    </vehicle>
    <vehicle id="3" depart="30.00">
        <routeDistribution last="0">
            <route cost="142.58" probability="0.49986757" edges="beg middle end rend"/>
            <route cost="139.59" probability="0.50013243" edges="beg beg2left left left2end end rend"/>
        </routeDistribution>
    </vehicle>
    <vehicle id="4" depart="40.00">
        <routeDistribution last="1">
            <route cost="142.58" probability="0.49986757" edges="beg middle end rend"/>
            <route cost="139.59" probability="0.50013243" edges="beg beg2left left left2end end rend"/>
        </routeDistribution>
    </vehicle>
    <vehicle id="5" depart="50.00">
        <routeDistribution last="0">
            <route cost="142.58" probability="0.49986757" edges="beg middle end rend"/>
            <route cost="139.59" probability="0.50013243" edges="beg beg2left left left2end end rend"/>
        </routeDistribution>
    </vehicle>
    <vehicle id="6" depart="60.00">
        <routeDistribution last="1">
            <route cost="142.58" probability="0.49986757" edges="beg middle end rend"/>
            <route cost="139.59" probability="0.50013243" edges="beg beg2left left left2end end rend"/>
        </routeDistribution>
    </vehicle>
    <vehicle id="7" depart="70.00">
        <routeDistribution last="0">
            <route cost="142.58" probability="0.49986757" edges="beg middle end rend"/>
            <route cost="139.59" probability="0.50013243" edges="beg beg2left left left2end end rend"/>
        </routeDistribution>
    </vehicle>
    <vehicle id="8" depart="80.00">
        <routeDistribution last="1">
            <route cost="142.58" probability="0.49986757" edges="beg middle end rend"/>
            <route cost="139.59" probability="0.50013243" edges="beg beg2left left left2end end rend"/>
        </routeDistribution>
    </vehicle>
    <vehicle id="9" depart="90.00">
        <routeDistribution last="1">
            <route cost="142.58" probability="0.49986757" edges="beg middle end rend"/>
            <route cost="139.59" probability="0.50013243" edges="beg beg2left left left2end end rend"/>
        </routeDistribution>
    </vehicle>
</route-alternatives>
