<?xml version="1.0" encoding="UTF-8"?>

<routes xmlns:xsi="http://www.w3.org/2001/XMLSchema-instance" xsi:noNamespaceSchemaLocation="http://sumo.dlr.de/xsd/routes_file.xsd">
    <vehicle id="blocker" depart="0.00" departLane="2" departPos="stop">
        <route edges="middle middle2 middle3 end2"/>
        <stop lane="middle_2" duration="60" endPos="0"/>
    </vehicle>

    <vehicle id="mustChangeLeft" depart="1.00" departLane="0">
        <route edges="beg middle middle2 middle3 end2"/>
    </vehicle>
</routes>
