<?xml version="1.0" encoding="UTF-8"?>

<!-- generated on 2026-01-17T18:26:37.715985+01:00 by Eclipse SUMO netedit v1_25_0+1034-0b0d78f35d9
<neteditConfiguration xmlns:xsi="http://www.w3.org/2001/XMLSchema-instance" xsi:noNamespaceSchemaLocation="http://sumo.dlr.de/xsd/neteditConfiguration.xsd">

    <input>
        <sumo-net-file value="net2.net.xml"/>
    </input>

    <output>
        <output-file value="net2.net.xml"/>
    </output>

    <processing>
        <geometry.min-radius.fix.railways value="false"/>
        <geometry.avoid-overlap value="false"/>
        <geometry.max-grade.fix value="false"/>
        <offset.disable-normalization value="true"/>
        <lefthand value="0"/>
    </processing>

    <junctions>
        <no-turnarounds value="true"/>
        <junctions.corner-detail value="5"/>
        <junctions.limit-turn-speed value="5.50"/>
        <rectangular-lane-cut value="0"/>
    </junctions>

    <pedestrian>
        <walkingareas value="0"/>
    </pedestrian>

</neteditConfiguration>
-->

<net version="1.20" junctionCornerDetail="5" limitTurnSpeed="5.50" avoidOverlap="0" xmlns:xsi="http://www.w3.org/2001/XMLSchema-instance" xsi:noNamespaceSchemaLocation="http://sumo.dlr.de/xsd/net_file.xsd">

    <location netOffset="-100.00,-900.00" convBoundary="1600.00,0.00,2200.00,150.00" origBoundary="100.00,900.00,4800.00,1000.00" projParameter="!"/>

    <type id="railway.rail" priority="15" numLanes="1" speed="44.44" allow="rail rail_electric" oneway="1"/>

    <edge id=":J1_0" function="internal">
        <lane id=":J1_0_0" index="0" allow="tram" speed="13.89" length="0.10" shape="1700.00,100.00 1700.00,100.00"/>
    </edge>
    <edge id=":J10_0" function="internal">
        <lane id=":J10_0_0" index="0" allow="tram" speed="13.89" length="0.10" shape="1700.00,0.00 1700.00,0.00"/>
    </edge>
    <edge id=":J2_0" function="internal">
        <lane id=":J2_0_0" index="0" allow="tram" speed="13.89" length="10.16" shape="1798.12,100.00 1808.28,100.00"/>
    </edge>
    <edge id=":J2_1" function="internal">
        <lane id=":J2_1_0" index="0" allow="tram" speed="13.89" length="10.19" shape="1798.12,100.00 1801.05,100.26 1802.96,101.01 1804.77,102.18 1807.40,103.70"/>
    </edge>
    <edge id=":J3_0" function="internal">
        <lane id=":J3_0_0" index="0" allow="tram" speed="13.89" length="0.10" shape="1900.00,100.00 1900.00,100.00"/>
    </edge>
    <edge id=":J4_0" function="internal">
        <lane id=":J4_0_0" index="0" allow="tram" speed="13.89" length="0.10" shape="2000.00,100.00 2000.00,100.00"/>
    </edge>
    <edge id=":J5_0" function="internal">
        <lane id=":J5_0_0" index="0" allow="tram" speed="13.89" length="16.23" shape="2091.72,100.00 2095.65,99.74 2099.76,98.99 2103.77,97.82 2107.40,96.30"/>
    </edge>
    <edge id=":J5_1" function="internal">
        <lane id=":J5_1_0" index="0" allow="tram" speed="13.89" length="16.56" shape="2091.72,100.00 2108.28,100.00"/>
    </edge>
    <edge id=":J5_2" function="internal">
        <lane id=":J5_2_0" index="0" allow="tram" speed="13.89" length="16.56" shape="2092.60,103.70 2107.40,96.30"/>
    </edge>
    <edge id=":J5_3" function="internal">
        <lane id=":J5_3_0" index="0" allow="tram" speed="13.89" length="16.23" shape="2092.60,103.70 2096.23,102.18 2100.24,101.01 2104.35,100.26 2108.28,100.00"/>
    </edge>
    <edge id=":J7_0" function="internal">
        <lane id=":J7_0_0" index="0" allow="tram" speed="13.89" length="0.75" shape="1999.62,150.00 1999.84,150.00 1999.99,149.98 2000.14,149.93 2000.34,149.83"/>
    </edge>
    <edge id=":J8_0" function="internal">
        <lane id=":J8_0_0" index="0" allow="tram" speed="13.89" length="0.75" shape="1899.66,149.83 1899.86,149.93 1900.01,149.98 1900.16,150.00 1900.38,150.00"/>
    </edge>

    <edge id="1a" from="J0" to="J1" priority="-1" spreadType="center">
        <lane id="1a_0" index="0" allow="tram" speed="13.89" length="100.00" shape="1600.00,100.00 1700.00,100.00"/>
    </edge>
    <edge id="2a" from="J1" to="J2" priority="-1" spreadType="center">
        <lane id="2a_0" index="0" allow="tram" speed="13.89" length="98.12" shape="1700.00,100.00 1798.12,100.00"/>
    </edge>
    <edge id="3a" from="J2" to="J3" priority="-1" spreadType="center">
        <lane id="3a_0" index="0" allow="tram" speed="13.89" length="91.72" shape="1808.28,100.00 1900.00,100.00"/>
    </edge>
    <edge id="3b" from="J2" to="J8" priority="-1" spreadType="center">
        <lane id="3b_0" index="0" allow="tram" speed="13.89" length="103.15" shape="1807.40,103.70 1899.66,149.83"/>
    </edge>
    <edge id="4a" from="J3" to="J4" priority="-1" spreadType="center">
        <lane id="4a_0" index="0" allow="tram" speed="13.89" length="100.00" shape="1900.00,100.00 2000.00,100.00"/>
    </edge>
    <edge id="4b" from="J8" to="J7" priority="-1" spreadType="center">
        <lane id="4b_0" index="0" allow="tram" speed="13.89" length="99.24" shape="1900.38,150.00 1999.62,150.00"/>
    </edge>
    <edge id="5a" from="J4" to="J5" priority="-1" spreadType="center">
        <lane id="5a_0" index="0" allow="tram" speed="13.89" length="91.72" shape="2000.00,100.00 2091.72,100.00"/>
    </edge>
    <edge id="5b" from="J7" to="J5" priority="-1" spreadType="center">
        <lane id="5b_0" index="0" allow="tram" speed="13.89" length="103.15" shape="2000.34,149.83 2092.60,103.70"/>
    </edge>
    <edge id="6a" from="J5" to="J6" priority="-1" spreadType="center">
        <lane id="6a_0" index="0" allow="tram" speed="13.89" length="91.72" shape="2108.28,100.00 2200.00,100.00"/>
    </edge>
    <edge id="6c" from="J5" to="J12" priority="-1" spreadType="center">
        <lane id="6c_0" index="0" allow="tram" speed="13.89" length="103.53" shape="2107.40,96.30 2200.00,50.00"/>
    </edge>
    <edge id="E0" from="J9" to="J10" priority="-1" spreadType="center">
        <lane id="E0_0" index="0" allow="tram" speed="13.89" length="100.00" shape="1600.00,0.00 1700.00,0.00"/>
    </edge>
    <edge id="E1" from="J10" to="J11" priority="-1" spreadType="center">
        <lane id="E1_0" index="0" allow="tram" speed="13.89" length="100.00" shape="1700.00,0.00 1800.00,0.00"/>
    </edge>

    <junction id="J0" type="dead_end" x="1600.00" y="100.00" incLanes="" intLanes="" shape="1600.00,101.60 1600.00,98.40"/>
    <junction id="J1" type="priority" x="1700.00" y="100.00" incLanes="1a_0" intLanes=":J1_0_0" shape="1700.00,101.60 1700.00,98.40 1700.00,101.60">
        <request index="0" response="0" foes="0" cont="0"/>
    </junction>
    <junction id="J10" type="rail_signal" x="1700.00" y="0.00" incLanes="E0_0" intLanes=":J10_0_0" shape="1700.00,1.60 1700.00,-1.60 1700.00,1.60">
        <request index="0" response="0" foes="0" cont="0"/>
    </junction>
    <junction id="J11" type="dead_end" x="1800.00" y="0.00" incLanes="E1_0" intLanes="" shape="1800.00,-1.60 1800.00,1.60"/>
    <junction id="J12" type="dead_end" x="2200.00" y="50.00" incLanes="6c_0" intLanes="" shape="2199.28,48.57 2200.72,51.43"/>
    <junction id="J2" type="priority" x="1800.00" y="100.00" incLanes="2a_0" intLanes=":J2_0_0 :J2_1_0" shape="1806.69,105.13 1808.12,102.27 1808.28,101.60 1808.28,98.40 1798.12,98.40 1798.12,101.60 1801.48,102.06 1802.59,102.59 1803.66,103.30 1804.94,104.15">
        <request index="0" response="00" foes="00" cont="0"/>
        <request index="1" response="00" foes="00" cont="0"/>
    </junction>
    <junction id="J3" type="priority" x="1900.00" y="100.00" incLanes="3a_0" intLanes=":J3_0_0" shape="1900.00,101.60 1900.00,98.40 1900.00,101.60">
        <request index="0" response="0" foes="0" cont="0"/>
    </junction>
    <junction id="J4" type="priority" x="2000.00" y="100.00" incLanes="4a_0" intLanes=":J4_0_0" shape="2000.00,101.60 2000.00,98.40 2000.00,101.60">
        <request index="0" response="0" foes="0" cont="0"/>
    </junction>
    <junction id="J5" type="priority" x="2100.00" y="100.00" incLanes="5a_0 5b_0" intLanes=":J5_0_0 :J5_1_0 :J5_2_0 :J5_3_0" shape="2108.28,101.60 2108.28,98.40 2108.12,97.73 2106.69,94.87 2103.73,96.32 2101.46,97.31 2099.51,97.92 2097.49,98.25 2095.02,98.38 2091.72,98.40 2091.72,101.60 2091.88,102.27 2093.31,105.13 2096.27,103.68 2098.54,102.69 2100.49,102.08 2102.51,101.75 2104.98,101.62">
        <request index="0" response="0000" foes="0100" cont="0"/>
        <request index="1" response="0000" foes="1100" cont="0"/>
        <request index="2" response="0011" foes="0011" cont="0"/>
        <request index="3" response="0010" foes="0010" cont="0"/>
    </junction>
    <junction id="J6" type="dead_end" x="2200.00" y="100.00" incLanes="6a_0" intLanes="" shape="2200.00,98.40 2200.00,101.60"/>
    <junction id="J7" type="priority" x="2000.00" y="150.00" incLanes="4b_0" intLanes=":J7_0_0" shape="2001.05,151.26 1999.62,148.40 1999.62,151.60 2000.17,151.59 2000.37,151.55 2000.55,151.50 2000.77,151.40">
        <request index="0" response="0" foes="0" cont="0"/>
    </junction>
    <junction id="J8" type="priority" x="1900.00" y="150.00" incLanes="3b_0" intLanes=":J8_0_0" shape="1900.38,151.60 1900.38,148.40 1898.95,151.26 1899.45,151.50 1899.63,151.55 1899.83,151.59 1900.06,151.60">
        <request index="0" response="0" foes="0" cont="0"/>
    </junction>
    <junction id="J9" type="dead_end" x="1600.00" y="0.00" incLanes="" intLanes="" shape="1600.00,1.60 1600.00,-1.60"/>

    <connection from="1a" to="2a" fromLane="0" toLane="0" via=":J1_0_0" dir="s" state="M"/>
    <connection from="2a" to="3a" fromLane="0" toLane="0" via=":J2_0_0" dir="s" state="M"/>
    <connection from="2a" to="3b" fromLane="0" toLane="0" via=":J2_1_0" dir="L" state="M"/>
    <connection from="3a" to="4a" fromLane="0" toLane="0" via=":J3_0_0" dir="s" state="M"/>
    <connection from="3b" to="4b" fromLane="0" toLane="0" via=":J8_0_0" dir="s" state="M"/>
    <connection from="4a" to="5a" fromLane="0" toLane="0" via=":J4_0_0" dir="s" state="M"/>
    <connection from="4b" to="5b" fromLane="0" toLane="0" via=":J7_0_0" dir="s" state="M"/>
    <connection from="5a" to="6c" fromLane="0" toLane="0" via=":J5_0_0" dir="R" state="M"/>
    <connection from="5a" to="6a" fromLane="0" toLane="0" via=":J5_1_0" dir="s" state="M"/>
    <connection from="5b" to="6c" fromLane="0" toLane="0" via=":J5_2_0" dir="s" state="M"/>
    <connection from="5b" to="6a" fromLane="0" toLane="0" via=":J5_3_0" dir="L" state="M"/>
    <connection from="E0" to="E1" fromLane="0" toLane="0" via=":J10_0_0" tl="J10" linkIndex="0" dir="s" state="O"/>

    <connection from=":J1_0" to="2a" fromLane="0" toLane="0" dir="s" state="M"/>
    <connection from=":J10_0" to="E1" fromLane="0" toLane="0" dir="s" state="M"/>
    <connection from=":J2_0" to="3a" fromLane="0" toLane="0" dir="s" state="M"/>
    <connection from=":J2_1" to="3b" fromLane="0" toLane="0" dir="L" state="M"/>
    <connection from=":J3_0" to="4a" fromLane="0" toLane="0" dir="s" state="M"/>
    <connection from=":J4_0" to="5a" fromLane="0" toLane="0" dir="s" state="M"/>
    <connection from=":J5_0" to="6c" fromLane="0" toLane="0" dir="R" state="M"/>
    <connection from=":J5_1" to="6a" fromLane="0" toLane="0" dir="s" state="M"/>
    <connection from=":J5_2" to="6c" fromLane="0" toLane="0" dir="s" state="M"/>
    <connection from=":J5_3" to="6a" fromLane="0" toLane="0" dir="L" state="M"/>
    <connection from=":J7_0" to="5b" fromLane="0" toLane="0" dir="s" state="M"/>
    <connection from=":J8_0" to="4b" fromLane="0" toLane="0" dir="s" state="M"/>

</net>
