<?xml version="1.0" encoding="UTF-8"?>

<!-- generated on 2026-03-10T17:23:10.784088+01:00 by Eclipse SUMO netedit v1_26_0+0517-46b880701be
<neteditConfiguration xmlns:xsi="http://www.w3.org/2001/XMLSchema-instance" xsi:noNamespaceSchemaLocation="http://sumo.dlr.de/xsd/neteditConfiguration.xsd">

    <input>
        <sumo-net-file value="/scr1/sumo/tests/tools/trigger/generateRerouters/close_forbidden/net.net.xml"/>
    </input>

    <output>
        <output-file value="/scr1/sumo/tests/tools/trigger/generateRerouters/close_forbidden/net.net.xml"/>
    </output>

    <processing>
        <geometry.min-radius.fix.railways value="false"/>
        <geometry.avoid-overlap value="false"/>
        <geometry.max-grade.fix value="false"/>
        <offset.disable-normalization value="true"/>
        <lefthand value="0"/>
    </processing>

    <junctions>
        <no-turnarounds value="true"/>
        <junctions.corner-detail value="5"/>
        <junctions.limit-turn-speed value="5.50"/>
        <rectangular-lane-cut value="0"/>
    </junctions>

    <pedestrian>
        <walkingareas value="0"/>
    </pedestrian>

</neteditConfiguration>
-->

<net version="1.20" junctionCornerDetail="5" limitTurnSpeed="5.50" avoidOverlap="0" xmlns:xsi="http://www.w3.org/2001/XMLSchema-instance" xsi:noNamespaceSchemaLocation="http://sumo.dlr.de/xsd/net_file.xsd">

    <location netOffset="0.00,0.00" convBoundary="-122.08,0.41,115.38,84.23" origBoundary="-10000000000.00,-10000000000.00,10000000000.00,10000000000.00" projParameter="!"/>

    <edge id=":J0_0" function="internal">
        <lane id=":J0_0_0" index="0" allow="bus" speed="13.89" length="0.30" shape="23.51,42.63 23.81,42.63"/>
    </edge>
    <edge id=":J1_0" function="internal">
        <lane id=":J1_0_0" index="0" allow="bus" speed="13.45" length="8.84" shape="59.68,39.59 61.77,41.20 63.22,42.41 64.81,43.20 67.32,43.60"/>
    </edge>
    <edge id=":J1_1" function="internal">
        <lane id=":J1_1_0" index="0" allow="bus" speed="13.89" length="8.83" shape="58.49,43.32 67.32,43.60"/>
    </edge>
    <edge id=":J1_2" function="internal">
        <lane id=":J1_2_0" index="0" allow="bus" speed="8.72" length="3.85" shape="60.58,47.15 62.36,45.53 63.56,44.73"/>
    </edge>
    <edge id=":J1_3" function="internal">
        <lane id=":J1_3_0" index="0" allow="bus" speed="8.72" length="3.98" shape="63.56,44.73 64.08,44.39 65.73,43.75 67.32,43.60"/>
    </edge>
    <edge id=":J3_0" function="internal">
        <lane id=":J3_0_0" index="0" allow="bus" speed="13.89" length="8.31" shape="-25.82,41.54 -17.51,41.69"/>
    </edge>
    <edge id=":J3_1" function="internal">
        <lane id=":J3_1_0" index="0" allow="bus" speed="10.60" length="8.27" shape="-25.82,41.54 -23.49,41.79 -22.02,42.54 -20.71,43.77 -18.88,45.44"/>
    </edge>
    <edge id=":J4_0" function="internal">
        <lane id=":J4_0_0" index="0" allow="bus" speed="3.91" length="2.41" shape="25.65,81.16 26.21,81.49 26.75,81.58 27.28,81.42 27.80,81.02"/>
    </edge>
    <edge id=":J5_0" function="internal">
        <lane id=":J5_0_0" index="0" allow="bus" speed="13.89" length="9.72" shape="-80.71,41.95 -77.93,41.65 -76.13,40.89 -74.44,39.71 -71.99,38.15"/>
    </edge>
    <edge id=":J5_1" function="internal">
        <lane id=":J5_1_0" index="0" allow="bus" speed="13.89" length="9.70" shape="-80.71,41.95 -71.02,41.87"/>
    </edge>
    <edge id=":J7_0" function="internal">
        <lane id=":J7_0_0" index="0" allow="bus" speed="4.00" length="1.77" shape="-1.21,-0.99 -0.79,-1.16 -0.36,-1.21 0.05,-1.12 0.46,-0.91"/>
    </edge>

    <edge id="E0" from="J0" to="J1" priority="-1">
        <lane id="E0_0" index="0" allow="bus" speed="13.89" length="34.68" shape="23.81,42.63 58.49,43.32"/>
    </edge>
    <edge id="E1" from="J1" to="J2" priority="-1">
        <lane id="E1_0" index="0" allow="bus" speed="13.89" length="48.26" shape="67.32,43.60 115.48,46.61"/>
    </edge>
    <edge id="E2" from="J3" to="J0" priority="-1">
        <lane id="E2_0" index="0" allow="bus" speed="13.89" length="41.03" shape="-17.51,41.69 23.51,42.63"/>
    </edge>
    <edge id="E3" from="J3" to="J4" priority="-1">
        <lane id="E3_0" index="0" allow="bus" speed="13.89" length="57.08" shape="-18.88,45.44 25.65,81.16"/>
    </edge>
    <edge id="E4" from="J4" to="J1" priority="-1">
        <lane id="E4_0" index="0" allow="bus" speed="13.89" length="47.13" shape="27.80,81.02 60.58,47.15"/>
    </edge>
    <edge id="E5" from="J5" to="J3" priority="-1">
        <lane id="E5_0" index="0" allow="bus" speed="13.89" length="45.20" shape="-71.02,41.87 -25.82,41.54"/>
    </edge>
    <edge id="E6" from="J6" to="J5" priority="-1">
        <lane id="E6_0" index="0" allow="bus" speed="13.89" length="41.39" shape="-122.10,42.51 -80.71,41.95"/>
    </edge>
    <edge id="E7" from="J5" to="J7" priority="-1">
        <lane id="E7_0" index="0" allow="bus" speed="13.89" length="80.88" shape="-71.99,38.15 -1.21,-0.99"/>
    </edge>
    <edge id="E8" from="J7" to="J1" priority="-1">
        <lane id="E8_0" index="0" allow="bus" speed="13.89" length="71.74" shape="0.46,-0.91 59.68,39.59"/>
    </edge>

    <junction id="J0" type="priority" x="23.63" y="44.23" incLanes="E2_0" intLanes=":J0_0_0" shape="23.78,44.23 23.85,41.03 23.55,41.03 23.48,44.23">
        <request index="0" response="0" foes="0" cont="0"/>
    </junction>
    <junction id="J1" type="priority" x="64.84" y="45.05" incLanes="E8_0 E0_0 E4_0" intLanes=":J1_0_0 :J1_1_0 :J1_3_0" shape="67.22,45.20 67.42,42.00 64.63,41.42 63.75,40.87 62.92,40.16 61.94,39.29 60.59,38.27 58.78,40.91 58.52,41.72 58.46,44.92 59.46,45.07 59.71,45.22 59.78,45.44 59.69,45.71 59.43,46.04 61.73,48.27 63.72,46.50 64.66,45.89 65.55,45.47 66.40,45.24">
        <request index="0" response="000" foes="110" cont="0"/>
        <request index="1" response="101" foes="101" cont="0"/>
        <request index="2" response="001" foes="011" cont="1"/>
    </junction>
    <junction id="J2" type="dead_end" x="115.38" y="48.21" incLanes="E1_0" intLanes="" shape="115.58,45.02 115.38,48.21"/>
    <junction id="J3" type="priority" x="-24.31" y="43.13" incLanes="E5_0" intLanes=":J3_0_0 :J3_1_0" shape="-19.88,46.69 -17.88,44.19 -18.36,43.67 -18.38,43.49 -18.25,43.37 -17.97,43.30 -17.55,43.29 -17.47,40.09 -25.83,39.94 -25.81,43.14 -23.34,43.57 -22.56,44.09 -21.85,44.80 -21.01,45.67">
        <request index="0" response="00" foes="00" cont="0"/>
        <request index="1" response="00" foes="00" cont="0"/>
    </junction>
    <junction id="J4" type="priority" x="26.92" y="84.23" incLanes="E3_0" intLanes=":J4_0_0" shape="28.95,82.13 26.65,79.91 24.65,82.41 26.13,83.19 26.86,83.25 27.57,83.10 28.26,82.72">
        <request index="0" response="0" foes="0" cont="0"/>
    </junction>
    <junction id="J5" type="priority" x="-78.39" y="43.52" incLanes="E6_0" intLanes=":J5_0_0 :J5_1_0" shape="-71.00,43.47 -71.03,40.27 -71.21,39.55 -72.76,36.75 -75.56,38.61 -76.54,39.32 -77.58,39.86 -78.89,40.21 -80.74,40.35 -80.69,43.55">
        <request index="0" response="00" foes="00" cont="0"/>
        <request index="1" response="00" foes="00" cont="0"/>
    </junction>
    <junction id="J6" type="dead_end" x="-122.08" y="44.11" incLanes="" intLanes="" shape="-122.08,44.11 -122.12,40.91"/>
    <junction id="J7" type="priority" x="-0.44" y="0.41" incLanes="E7_0" intLanes=":J7_0_0" shape="-0.44,0.41 1.37,-2.23 0.27,-2.74 -0.29,-2.83 -0.85,-2.80 -1.42,-2.65 -1.99,-2.39">
        <request index="0" response="0" foes="0" cont="0"/>
    </junction>

    <junction id=":J1_3_0" type="internal" x="63.56" y="44.73" incLanes=":J1_2_0 E8_0" intLanes=":J1_0_0 :J1_1_0"/>

    <connection from="E0" to="E1" fromLane="0" toLane="0" via=":J1_1_0" dir="s" state="m"/>
    <connection from="E2" to="E0" fromLane="0" toLane="0" via=":J0_0_0" dir="s" state="M"/>
    <connection from="E3" to="E4" fromLane="0" toLane="0" via=":J4_0_0" dir="r" state="M"/>
    <connection from="E4" to="E1" fromLane="0" toLane="0" via=":J1_2_0" dir="l" state="m"/>
    <connection from="E5" to="E2" fromLane="0" toLane="0" via=":J3_0_0" dir="s" state="M"/>
    <connection from="E5" to="E3" fromLane="0" toLane="0" via=":J3_1_0" dir="L" state="M"/>
    <connection from="E6" to="E7" fromLane="0" toLane="0" via=":J5_0_0" dir="R" state="M"/>
    <connection from="E6" to="E5" fromLane="0" toLane="0" via=":J5_1_0" dir="s" state="M"/>
    <connection from="E7" to="E8" fromLane="0" toLane="0" via=":J7_0_0" dir="l" state="M"/>
    <connection from="E8" to="E1" fromLane="0" toLane="0" via=":J1_0_0" dir="s" state="M"/>

    <connection from=":J0_0" to="E0" fromLane="0" toLane="0" dir="s" state="M"/>
    <connection from=":J1_0" to="E1" fromLane="0" toLane="0" dir="s" state="M"/>
    <connection from=":J1_1" to="E1" fromLane="0" toLane="0" dir="s" state="M"/>
    <connection from=":J1_2" to="E1" fromLane="0" toLane="0" via=":J1_3_0" dir="l" state="m"/>
    <connection from=":J1_3" to="E1" fromLane="0" toLane="0" dir="l" state="M"/>
    <connection from=":J3_0" to="E2" fromLane="0" toLane="0" dir="s" state="M"/>
    <connection from=":J3_1" to="E3" fromLane="0" toLane="0" dir="L" state="M"/>
    <connection from=":J4_0" to="E4" fromLane="0" toLane="0" dir="r" state="M"/>
    <connection from=":J5_0" to="E7" fromLane="0" toLane="0" dir="R" state="M"/>
    <connection from=":J5_1" to="E5" fromLane="0" toLane="0" dir="s" state="M"/>
    <connection from=":J7_0" to="E8" fromLane="0" toLane="0" dir="l" state="M"/>

</net>
