<?xml version="1.0" encoding="UTF-8"?>

<!-- generated on 2025-10-28T09:44:41.328727+01:00 by Eclipse SUMO sumo v1_24_0+1586-d2f6babc5f7
This data file and the accompanying materials
are made available under the terms of the Eclipse Public License v2.0
which accompanies this distribution, and is available at
http://www.eclipse.org/legal/epl-v20.html
This file may also be made available under the following Secondary
Licenses when the conditions for such availability set forth in the Eclipse
Public License 2.0 are satisfied: GNU General Public License, version 2
or later which is available at
https://www.gnu.org/licenses/old-licenses/gpl-2.0-standalone.html
SPDX-License-Identifier: EPL-2.0 OR GPL-2.0-or-later
<sumoConfiguration xmlns:xsi="http://www.w3.org/2001/XMLSchema-instance" xsi:noNamespaceSchemaLocation="http://sumo.dlr.de/xsd/sumoConfiguration.xsd">

    <input>
        <net-file value="net2.net.xml"/>
        <route-files value="input_routes.rou.xml"/>
    </input>

    <output>
        <write-license value="true"/>
        <battery-output value="battery.xml"/>
        <battery-output.precision value="4"/>
        <tripinfo-output value="tripinfos.xml"/>
    </output>

    <processing>
        <default.speeddev value="0"/>
    </processing>

    <report>
        <xml-validation value="never"/>
        <duration-log.disable value="true"/>
        <no-step-log value="true"/>
    </report>

    <battery>
        <device.battery.probability value="1"/>
    </battery>

</sumoConfiguration>
-->

<battery-export xmlns:xsi="http://www.w3.org/2001/XMLSchema-instance" xsi:noNamespaceSchemaLocation="http://sumo.dlr.de/xsd/battery_file.xsd">
    <timestep time="0.00">
        <vehicle id="v0" energyConsumed="0.0000" totalEnergyConsumed="0.0000" totalEnergyRegenerated="0.0000" actualBatteryCapacity="17500.0000" maximumBatteryCapacity="35000.0000" chargingStationId="NULL" energyCharged="0.0000" energyChargedInTransit="0.0000" energyChargedStopped="0.0000" speed="0.0000" acceleration="0.0000" x="104.9500" y="10.0000" lane="SC_0" posOnLane="10.0000" timeStopped="0"/>
    </timestep>
    <timestep time="1.00">
        <vehicle id="v0" energyConsumed="0.0278" totalEnergyConsumed="0.0278" totalEnergyRegenerated="0.0000" actualBatteryCapacity="17499.9722" maximumBatteryCapacity="35000.0000" chargingStationId="NULL" energyCharged="0.0000" energyChargedInTransit="0.0000" energyChargedStopped="0.0000" speed="0.0000" acceleration="0.0000" x="104.9500" y="10.0000" lane="SC_0" posOnLane="10.0000" timeStopped="1"/>
    </timestep>
    <timestep time="2.00">
        <vehicle id="v0" energyConsumed="0.0278" totalEnergyConsumed="0.0556" totalEnergyRegenerated="0.0000" actualBatteryCapacity="17499.9444" maximumBatteryCapacity="35000.0000" chargingStationId="NULL" energyCharged="0.0000" energyChargedInTransit="0.0000" energyChargedStopped="0.0000" speed="0.0000" acceleration="0.0000" x="104.9500" y="10.0000" lane="SC_0" posOnLane="10.0000" timeStopped="2"/>
    </timestep>
    <timestep time="3.00">
        <vehicle id="v0" energyConsumed="0.0278" totalEnergyConsumed="0.0833" totalEnergyRegenerated="0.0000" actualBatteryCapacity="17499.9167" maximumBatteryCapacity="35000.0000" chargingStationId="NULL" energyCharged="0.0000" energyChargedInTransit="0.0000" energyChargedStopped="0.0000" speed="0.0000" acceleration="0.0000" x="104.9500" y="10.0000" lane="SC_0" posOnLane="10.0000" timeStopped="3"/>
    </timestep>
    <timestep time="4.00">
        <vehicle id="v0" energyConsumed="0.0278" totalEnergyConsumed="0.1111" totalEnergyRegenerated="0.0000" actualBatteryCapacity="17499.8889" maximumBatteryCapacity="35000.0000" chargingStationId="NULL" energyCharged="0.0000" energyChargedInTransit="0.0000" energyChargedStopped="0.0000" speed="0.0000" acceleration="0.0000" x="104.9500" y="10.0000" lane="SC_0" posOnLane="10.0000" timeStopped="4"/>
    </timestep>
    <timestep time="5.00">
        <vehicle id="v0" energyConsumed="0.0278" totalEnergyConsumed="0.1389" totalEnergyRegenerated="0.0000" actualBatteryCapacity="17499.8611" maximumBatteryCapacity="35000.0000" chargingStationId="NULL" energyCharged="0.0000" energyChargedInTransit="0.0000" energyChargedStopped="0.0000" speed="0.0000" acceleration="0.0000" x="104.9500" y="10.0000" lane="SC_0" posOnLane="10.0000" timeStopped="5"/>
    </timestep>
    <timestep time="6.00">
        <vehicle id="v0" energyConsumed="0.0278" totalEnergyConsumed="0.1667" totalEnergyRegenerated="0.0000" actualBatteryCapacity="17499.8333" maximumBatteryCapacity="35000.0000" chargingStationId="NULL" energyCharged="0.0000" energyChargedInTransit="0.0000" energyChargedStopped="0.0000" speed="0.0000" acceleration="0.0000" x="104.9500" y="10.0000" lane="SC_0" posOnLane="10.0000" timeStopped="6"/>
    </timestep>
    <timestep time="7.00">
        <vehicle id="v0" energyConsumed="0.0278" totalEnergyConsumed="0.1944" totalEnergyRegenerated="0.0000" actualBatteryCapacity="17499.8056" maximumBatteryCapacity="35000.0000" chargingStationId="NULL" energyCharged="0.0000" energyChargedInTransit="0.0000" energyChargedStopped="0.0000" speed="0.0000" acceleration="0.0000" x="104.9500" y="10.0000" lane="SC_0" posOnLane="10.0000" timeStopped="7"/>
    </timestep>
    <timestep time="8.00">
        <vehicle id="v0" energyConsumed="0.0278" totalEnergyConsumed="0.2222" totalEnergyRegenerated="0.0000" actualBatteryCapacity="17499.7778" maximumBatteryCapacity="35000.0000" chargingStationId="NULL" energyCharged="0.0000" energyChargedInTransit="0.0000" energyChargedStopped="0.0000" speed="0.0000" acceleration="0.0000" x="104.9500" y="10.0000" lane="SC_0" posOnLane="10.0000" timeStopped="8"/>
    </timestep>
    <timestep time="9.00">
        <vehicle id="v0" energyConsumed="0.0278" totalEnergyConsumed="0.2500" totalEnergyRegenerated="0.0000" actualBatteryCapacity="17499.7500" maximumBatteryCapacity="35000.0000" chargingStationId="NULL" energyCharged="0.0000" energyChargedInTransit="0.0000" energyChargedStopped="0.0000" speed="0.0000" acceleration="0.0000" x="104.9500" y="10.0000" lane="SC_0" posOnLane="10.0000" timeStopped="9"/>
    </timestep>
    <timestep time="10.00">
        <vehicle id="v0" energyConsumed="0.0278" totalEnergyConsumed="0.2778" totalEnergyRegenerated="0.0000" actualBatteryCapacity="17499.7222" maximumBatteryCapacity="35000.0000" chargingStationId="NULL" energyCharged="0.0000" energyChargedInTransit="0.0000" energyChargedStopped="0.0000" speed="0.0000" acceleration="0.0000" x="104.9500" y="10.0000" lane="SC_0" posOnLane="10.0000" timeStopped="10"/>
    </timestep>
    <timestep time="11.00">
        <vehicle id="v0" energyConsumed="0.0278" totalEnergyConsumed="0.3056" totalEnergyRegenerated="0.0000" actualBatteryCapacity="17499.6944" maximumBatteryCapacity="35000.0000" chargingStationId="NULL" energyCharged="0.0000" energyChargedInTransit="0.0000" energyChargedStopped="0.0000" speed="0.0000" acceleration="0.0000" x="104.9500" y="10.0000" lane="SC_0" posOnLane="10.0000" timeStopped="11"/>
    </timestep>
    <timestep time="12.00">
        <vehicle id="v0" energyConsumed="1.2559" totalEnergyConsumed="1.5614" totalEnergyRegenerated="0.0000" actualBatteryCapacity="17498.4386" maximumBatteryCapacity="35000.0000" chargingStationId="NULL" energyCharged="0.0000" energyChargedInTransit="0.0000" energyChargedStopped="0.0000" speed="1.9814" acceleration="1.9814" x="104.9500" y="11.9814" lane="SC_0" posOnLane="11.9814" timeStopped="0"/>
    </timestep>
    <timestep time="13.00">
        <vehicle id="v0" energyConsumed="3.3133" totalEnergyConsumed="4.8747" totalEnergyRegenerated="0.0000" actualBatteryCapacity="17495.1253" maximumBatteryCapacity="35000.0000" chargingStationId="NULL" energyCharged="0.0000" energyChargedInTransit="0.0000" energyChargedStopped="0.0000" speed="3.8330" acceleration="1.8516" x="104.9500" y="15.8144" lane="SC_0" posOnLane="15.8144" timeStopped="0"/>
    </timestep>
    <timestep time="14.00">
        <vehicle id="v0" energyConsumed="7.7204" totalEnergyConsumed="12.5950" totalEnergyRegenerated="0.0000" actualBatteryCapacity="17487.4050" maximumBatteryCapacity="35000.0000" chargingStationId="NULL" energyCharged="0.0000" energyChargedInTransit="0.0000" energyChargedStopped="0.0000" speed="6.3510" acceleration="2.5180" x="104.9500" y="22.1655" lane="SC_0" posOnLane="22.1655" timeStopped="0"/>
    </timestep>
    <timestep time="15.00">
        <vehicle id="v0" energyConsumed="9.7473" totalEnergyConsumed="22.3423" totalEnergyRegenerated="0.0000" actualBatteryCapacity="17477.6577" maximumBatteryCapacity="35000.0000" chargingStationId="NULL" energyCharged="0.0000" energyChargedInTransit="0.0000" energyChargedStopped="0.0000" speed="8.5137" acceleration="2.1626" x="104.9500" y="30.6791" lane="SC_0" posOnLane="30.6791" timeStopped="0"/>
    </timestep>
    <timestep time="16.00">
        <vehicle id="v0" energyConsumed="8.4792" totalEnergyConsumed="30.8215" totalEnergyRegenerated="0.0000" actualBatteryCapacity="17469.1785" maximumBatteryCapacity="35000.0000" chargingStationId="NULL" energyCharged="0.0000" energyChargedInTransit="0.0000" energyChargedStopped="0.0000" speed="9.9844" acceleration="1.4708" x="104.9500" y="40.6636" lane="SC_0" posOnLane="40.6636" timeStopped="0"/>
    </timestep>
    <timestep time="17.00">
        <vehicle id="v0" energyConsumed="13.5733" totalEnergyConsumed="44.3948" totalEnergyRegenerated="0.0000" actualBatteryCapacity="17455.6052" maximumBatteryCapacity="35000.0000" chargingStationId="NULL" energyCharged="0.0000" energyChargedInTransit="0.0000" energyChargedStopped="0.0000" speed="11.9996" acceleration="2.0152" x="104.9500" y="52.6632" lane="SC_0" posOnLane="52.6632" timeStopped="0"/>
    </timestep>
    <timestep time="18.00">
        <vehicle id="v0" energyConsumed="8.3088" totalEnergyConsumed="52.7036" totalEnergyRegenerated="0.0000" actualBatteryCapacity="17447.2964" maximumBatteryCapacity="35000.0000" chargingStationId="NULL" energyCharged="0.0000" energyChargedInTransit="0.0000" energyChargedStopped="0.0000" speed="13.0138" acceleration="1.0141" x="104.9500" y="65.6770" lane="SC_0" posOnLane="65.6770" timeStopped="0"/>
    </timestep>
    <timestep time="19.00">
        <vehicle id="v0" energyConsumed="1.1320" totalEnergyConsumed="53.8356" totalEnergyRegenerated="0.0000" actualBatteryCapacity="17446.1644" maximumBatteryCapacity="35000.0000" chargingStationId="NULL" energyCharged="0.0000" energyChargedInTransit="0.0000" energyChargedStopped="0.0000" speed="13.0203" acceleration="0.0065" x="104.9500" y="78.6973" lane="SC_0" posOnLane="78.6973" timeStopped="0"/>
    </timestep>
    <timestep time="20.00">
        <vehicle id="v0" energyConsumed="5.0791" totalEnergyConsumed="58.9147" totalEnergyRegenerated="0.0000" actualBatteryCapacity="17441.0853" maximumBatteryCapacity="35000.0000" chargingStationId="NULL" energyCharged="0.0000" energyChargedInTransit="0.0000" energyChargedStopped="0.0000" speed="13.5390" acceleration="0.5187" x="104.9500" y="92.2363" lane=":C_11_0" posOnLane="0.2863" timeStopped="0"/>
    </timestep>
    <timestep time="21.00">
        <vehicle id="v0" energyConsumed="-1.0305" totalEnergyConsumed="58.9147" totalEnergyRegenerated="1.0305" actualBatteryCapacity="17442.1158" maximumBatteryCapacity="35000.0000" chargingStationId="NULL" energyCharged="0.0000" energyChargedInTransit="0.0000" energyChargedStopped="0.0000" speed="13.2492" acceleration="-0.2898" x="104.9500" y="105.4855" lane=":C_11_0" posOnLane="13.5355" timeStopped="0"/>
    </timestep>
    <timestep time="22.00">
        <vehicle id="v0" energyConsumed="5.2299" totalEnergyConsumed="64.1446" totalEnergyRegenerated="1.0305" actualBatteryCapacity="17436.8859" maximumBatteryCapacity="35000.0000" chargingStationId="NULL" energyCharged="0.0000" energyChargedInTransit="0.0000" energyChargedStopped="0.0000" speed="13.7743" acceleration="0.5251" x="104.9500" y="119.2598" lane="CN_0" posOnLane="11.2098" timeStopped="0"/>
    </timestep>
    <timestep time="23.00">
        <vehicle id="v0" energyConsumed="-5.7171" totalEnergyConsumed="64.1446" totalEnergyRegenerated="6.7476" actualBatteryCapacity="17442.6030" maximumBatteryCapacity="35000.0000" chargingStationId="NULL" energyCharged="0.0000" energyChargedInTransit="0.0000" energyChargedStopped="0.0000" speed="12.8326" acceleration="-0.9417" x="104.9500" y="132.0924" lane="CN_0" posOnLane="24.0424" timeStopped="0"/>
    </timestep>
    <timestep time="24.00">
        <vehicle id="v0" energyConsumed="0.0216" totalEnergyConsumed="64.1662" totalEnergyRegenerated="6.7476" actualBatteryCapacity="17442.5814" maximumBatteryCapacity="35000.0000" chargingStationId="NULL" energyCharged="0.0000" energyChargedInTransit="0.0000" energyChargedStopped="0.0000" speed="12.6925" acceleration="-0.1402" x="104.9500" y="144.7849" lane="CN_0" posOnLane="36.7349" timeStopped="0"/>
    </timestep>
    <timestep time="25.00">
        <vehicle id="v0" energyConsumed="5.8682" totalEnergyConsumed="70.0344" totalEnergyRegenerated="6.7476" actualBatteryCapacity="17436.7132" maximumBatteryCapacity="35000.0000" chargingStationId="NULL" energyCharged="0.0000" energyChargedInTransit="0.0000" energyChargedStopped="0.0000" speed="13.3321" acceleration="0.6397" x="104.9500" y="158.1170" lane="CN_0" posOnLane="50.0670" timeStopped="0"/>
    </timestep>
    <timestep time="26.00">
        <vehicle id="v0" energyConsumed="-2.3497" totalEnergyConsumed="70.0344" totalEnergyRegenerated="9.0973" actualBatteryCapacity="17439.0629" maximumBatteryCapacity="35000.0000" chargingStationId="NULL" energyCharged="0.0000" energyChargedInTransit="0.0000" energyChargedStopped="0.0000" speed="12.8548" acceleration="-0.4773" x="104.9500" y="170.9718" lane="CN_0" posOnLane="62.9218" timeStopped="0"/>
    </timestep>
    <timestep time="27.00">
        <vehicle id="v0" energyConsumed="2.2627" totalEnergyConsumed="72.2971" totalEnergyRegenerated="9.0973" actualBatteryCapacity="17436.8002" maximumBatteryCapacity="35000.0000" chargingStationId="NULL" energyCharged="0.0000" energyChargedInTransit="0.0000" energyChargedStopped="0.0000" speed="13.0149" acceleration="0.1601" x="104.9500" y="183.9867" lane="CN_0" posOnLane="75.9367" timeStopped="0"/>
    </timestep>
    <timestep time="28.00">
        <vehicle id="v0" energyConsumed="-23.1959" totalEnergyConsumed="72.2971" totalEnergyRegenerated="32.2932" actualBatteryCapacity="17459.9961" maximumBatteryCapacity="35000.0000" chargingStationId="NULL" energyCharged="0.0000" energyChargedInTransit="0.0000" energyChargedStopped="0.0000" speed="8.9784" acceleration="-4.0365" x="104.9500" y="192.9651" lane="CN_0" posOnLane="84.9151" timeStopped="0"/>
    </timestep>
    <timestep time="29.00">
        <vehicle id="v0" energyConsumed="-13.2575" totalEnergyConsumed="72.2971" totalEnergyRegenerated="45.5507" actualBatteryCapacity="17473.2536" maximumBatteryCapacity="35000.0000" chargingStationId="NULL" energyCharged="0.0000" energyChargedInTransit="0.0000" energyChargedStopped="0.0000" speed="5.4681" acceleration="-3.5103" x="104.9500" y="198.4332" lane="CN_0" posOnLane="90.3832" timeStopped="0"/>
    </timestep>
    <timestep time="30.00">
        <vehicle id="v0" energyConsumed="-7.4205" totalEnergyConsumed="72.2971" totalEnergyRegenerated="52.9712" actualBatteryCapacity="17480.6741" maximumBatteryCapacity="35000.0000" chargingStationId="NULL" energyCharged="0.0000" energyChargedInTransit="0.0000" energyChargedStopped="0.0000" speed="1.3583" acceleration="-4.1097" x="104.9500" y="199.7915" lane="CN_0" posOnLane="91.7415" timeStopped="0"/>
    </timestep>
    <timestep time="31.00">
        <vehicle id="v0" energyConsumed="-0.4500" totalEnergyConsumed="72.2971" totalEnergyRegenerated="53.4212" actualBatteryCapacity="17481.1242" maximumBatteryCapacity="35000.0000" chargingStationId="NULL" energyCharged="0.0000" energyChargedInTransit="0.0000" energyChargedStopped="0.0000" speed="0.1711" acceleration="-1.1872" x="104.9500" y="199.9626" lane="CN_0" posOnLane="91.9126" timeStopped="0"/>
    </timestep>
    <timestep time="32.00">
        <vehicle id="v0" energyConsumed="0.0220" totalEnergyConsumed="72.3191" totalEnergyRegenerated="53.4212" actualBatteryCapacity="17481.1022" maximumBatteryCapacity="35000.0000" chargingStationId="NULL" energyCharged="0.0000" energyChargedInTransit="0.0000" energyChargedStopped="0.0000" speed="0.0277" acceleration="-0.1434" x="104.9500" y="199.9903" lane="CN_0" posOnLane="91.9403" timeStopped="1"/>
    </timestep>
    <timestep time="33.00">
        <vehicle id="v0" energyConsumed="0.0276" totalEnergyConsumed="72.3466" totalEnergyRegenerated="53.4212" actualBatteryCapacity="17481.0746" maximumBatteryCapacity="35000.0000" chargingStationId="NULL" energyCharged="0.0000" energyChargedInTransit="0.0000" energyChargedStopped="0.0000" speed="0.0000" acceleration="-0.0277" x="104.9500" y="199.9903" lane="CN_0" posOnLane="91.9403" timeStopped="2"/>
    </timestep>
    <timestep time="34.00">
        <vehicle id="v0" energyConsumed="0.0278" totalEnergyConsumed="72.3744" totalEnergyRegenerated="53.4212" actualBatteryCapacity="17481.0468" maximumBatteryCapacity="35000.0000" chargingStationId="NULL" energyCharged="0.0000" energyChargedInTransit="0.0000" energyChargedStopped="0.0000" speed="0.0000" acceleration="0.0000" x="104.9500" y="199.9903" lane="CN_0" posOnLane="91.9403" timeStopped="3"/>
    </timestep>
    <timestep time="35.00">
        <vehicle id="v0" energyConsumed="0.0278" totalEnergyConsumed="72.4022" totalEnergyRegenerated="53.4212" actualBatteryCapacity="17481.0190" maximumBatteryCapacity="35000.0000" chargingStationId="NULL" energyCharged="0.0000" energyChargedInTransit="0.0000" energyChargedStopped="0.0000" speed="0.0000" acceleration="0.0000" x="104.9500" y="199.9903" lane="CN_0" posOnLane="91.9403" timeStopped="4"/>
    </timestep>
    <timestep time="36.00">
        <vehicle id="v0" energyConsumed="0.0278" totalEnergyConsumed="72.4300" totalEnergyRegenerated="53.4212" actualBatteryCapacity="17480.9913" maximumBatteryCapacity="35000.0000" chargingStationId="NULL" energyCharged="0.0000" energyChargedInTransit="0.0000" energyChargedStopped="0.0000" speed="0.0000" acceleration="0.0000" x="104.9500" y="199.9903" lane="CN_0" posOnLane="91.9403" timeStopped="5"/>
    </timestep>
    <timestep time="37.00">
        <vehicle id="v0" energyConsumed="0.0278" totalEnergyConsumed="72.4578" totalEnergyRegenerated="53.4212" actualBatteryCapacity="17480.9635" maximumBatteryCapacity="35000.0000" chargingStationId="NULL" energyCharged="0.0000" energyChargedInTransit="0.0000" energyChargedStopped="0.0000" speed="0.0000" acceleration="0.0000" x="104.9500" y="199.9903" lane="CN_0" posOnLane="91.9403" timeStopped="6"/>
    </timestep>
    <timestep time="38.00">
        <vehicle id="v0" energyConsumed="0.0278" totalEnergyConsumed="72.4855" totalEnergyRegenerated="53.4212" actualBatteryCapacity="17480.9357" maximumBatteryCapacity="35000.0000" chargingStationId="NULL" energyCharged="0.0000" energyChargedInTransit="0.0000" energyChargedStopped="0.0000" speed="0.0000" acceleration="0.0000" x="104.9500" y="199.9903" lane="CN_0" posOnLane="91.9403" timeStopped="7"/>
    </timestep>
    <timestep time="39.00">
        <vehicle id="v0" energyConsumed="0.0278" totalEnergyConsumed="72.5133" totalEnergyRegenerated="53.4212" actualBatteryCapacity="17480.9079" maximumBatteryCapacity="35000.0000" chargingStationId="NULL" energyCharged="0.0000" energyChargedInTransit="0.0000" energyChargedStopped="0.0000" speed="0.0000" acceleration="0.0000" x="104.9500" y="199.9903" lane="CN_0" posOnLane="91.9403" timeStopped="8"/>
    </timestep>
    <timestep time="40.00">
        <vehicle id="v0" energyConsumed="0.0278" totalEnergyConsumed="72.5411" totalEnergyRegenerated="53.4212" actualBatteryCapacity="17480.8802" maximumBatteryCapacity="35000.0000" chargingStationId="NULL" energyCharged="0.0000" energyChargedInTransit="0.0000" energyChargedStopped="0.0000" speed="0.0000" acceleration="0.0000" x="104.9500" y="199.9903" lane="CN_0" posOnLane="91.9403" timeStopped="9"/>
    </timestep>
    <timestep time="41.00">
        <vehicle id="v0" energyConsumed="0.0278" totalEnergyConsumed="72.5689" totalEnergyRegenerated="53.4212" actualBatteryCapacity="17480.8524" maximumBatteryCapacity="35000.0000" chargingStationId="NULL" energyCharged="0.0000" energyChargedInTransit="0.0000" energyChargedStopped="0.0000" speed="0.0000" acceleration="0.0000" x="104.9500" y="199.9903" lane="CN_0" posOnLane="91.9403" timeStopped="10"/>
    </timestep>
    <timestep time="42.00">
        <vehicle id="v0" energyConsumed="0.0280" totalEnergyConsumed="72.5969" totalEnergyRegenerated="53.4212" actualBatteryCapacity="17480.8244" maximumBatteryCapacity="35000.0000" chargingStationId="NULL" energyCharged="0.0000" energyChargedInTransit="0.0000" energyChargedStopped="0.0000" speed="0.0044" acceleration="0.0044" x="101.6500" y="199.9947" lane="CN_1" posOnLane="91.9447" timeStopped="11"/>
    </timestep>
    <timestep time="43.00">
        <vehicle id="v0" energyConsumed="1.4884" totalEnergyConsumed="74.0852" totalEnergyRegenerated="53.4212" actualBatteryCapacity="17479.3360" maximumBatteryCapacity="35000.0000" chargingStationId="NULL" energyCharged="0.0000" energyChargedInTransit="0.0000" energyChargedStopped="0.0000" speed="2.2522" acceleration="2.2477" x="100.1444" y="201.5778" lane=":N_0_0" posOnLane="2.2469" timeStopped="0"/>
    </timestep>
    <timestep time="44.00">
        <vehicle id="v0" energyConsumed="2.2859" totalEnergyConsumed="76.3711" totalEnergyRegenerated="53.4212" actualBatteryCapacity="17477.0501" maximumBatteryCapacity="35000.0000" chargingStationId="NULL" energyCharged="0.0000" energyChargedInTransit="0.0000" energyChargedStopped="0.0000" speed="3.5568" acceleration="1.3046" x="98.3500" y="199.0163" lane="NC_1" posOnLane="0.9837" timeStopped="0"/>
    </timestep>
    <timestep time="45.00">
        <vehicle id="v0" energyConsumed="7.4769" totalEnergyConsumed="83.8480" totalEnergyRegenerated="53.4212" actualBatteryCapacity="17469.5732" maximumBatteryCapacity="35000.0000" chargingStationId="NULL" energyCharged="0.0000" energyChargedInTransit="0.0000" energyChargedStopped="0.0000" speed="6.1111" acceleration="2.5543" x="98.3500" y="192.9053" lane="NC_1" posOnLane="7.0947" timeStopped="0"/>
    </timestep>
    <timestep time="46.00">
        <vehicle id="v0" energyConsumed="10.9069" totalEnergyConsumed="94.7549" totalEnergyRegenerated="53.4212" actualBatteryCapacity="17458.6663" maximumBatteryCapacity="35000.0000" chargingStationId="NULL" energyCharged="0.0000" energyChargedInTransit="0.0000" energyChargedStopped="0.0000" speed="8.6366" acceleration="2.5256" x="98.3500" y="184.2686" lane="NC_1" posOnLane="15.7314" timeStopped="0"/>
    </timestep>
    <timestep time="47.00">
        <vehicle id="v0" energyConsumed="10.9278" totalEnergyConsumed="105.6828" totalEnergyRegenerated="53.4212" actualBatteryCapacity="17447.7385" maximumBatteryCapacity="35000.0000" chargingStationId="NULL" energyCharged="0.0000" energyChargedInTransit="0.0000" energyChargedStopped="0.0000" speed="10.6291" acceleration="1.9924" x="98.3500" y="173.6396" lane="NC_1" posOnLane="26.3604" timeStopped="0"/>
    </timestep>
    <timestep time="48.00">
        <vehicle id="v0" energyConsumed="14.5566" totalEnergyConsumed="120.2393" totalEnergyRegenerated="53.4212" actualBatteryCapacity="17433.1819" maximumBatteryCapacity="35000.0000" chargingStationId="NULL" energyCharged="0.0000" energyChargedInTransit="0.0000" energyChargedStopped="0.0000" speed="12.8104" acceleration="2.1814" x="98.3500" y="160.8291" lane="NC_1" posOnLane="39.1709" timeStopped="0"/>
    </timestep>
    <timestep time="49.00">
        <vehicle id="v0" energyConsumed="7.3336" totalEnergyConsumed="127.5729" totalEnergyRegenerated="53.4212" actualBatteryCapacity="17425.8483" maximumBatteryCapacity="35000.0000" chargingStationId="NULL" energyCharged="0.0000" energyChargedInTransit="0.0000" energyChargedStopped="0.0000" speed="13.6945" acceleration="0.8841" x="98.3500" y="147.1346" lane="NC_1" posOnLane="52.8654" timeStopped="0"/>
    </timestep>
    <timestep time="50.00">
        <vehicle id="v0" energyConsumed="-1.6732" totalEnergyConsumed="127.5729" totalEnergyRegenerated="55.0944" actualBatteryCapacity="17427.5215" maximumBatteryCapacity="35000.0000" chargingStationId="NULL" energyCharged="0.0000" energyChargedInTransit="0.0000" energyChargedStopped="0.0000" speed="13.2962" acceleration="-0.3983" x="98.3500" y="133.8384" lane="NC_1" posOnLane="66.1616" timeStopped="0"/>
    </timestep>
    <timestep time="51.00">
        <vehicle id="v0" energyConsumed="-4.0986" totalEnergyConsumed="127.5729" totalEnergyRegenerated="59.1930" actualBatteryCapacity="17431.6201" maximumBatteryCapacity="35000.0000" chargingStationId="NULL" energyCharged="0.0000" energyChargedInTransit="0.0000" energyChargedStopped="0.0000" speed="12.5175" acceleration="-0.7787" x="98.3500" y="121.3209" lane="NC_1" posOnLane="78.6791" timeStopped="0"/>
    </timestep>
    <timestep time="52.00">
        <vehicle id="v0" energyConsumed="-22.0172" totalEnergyConsumed="127.5729" totalEnergyRegenerated="81.2102" actualBatteryCapacity="17453.6373" maximumBatteryCapacity="35000.0000" chargingStationId="NULL" energyCharged="0.0000" energyChargedInTransit="0.0000" energyChargedStopped="0.0000" speed="8.1481" acceleration="-4.3694" x="98.3500" y="113.1728" lane="NC_1" posOnLane="86.8272" timeStopped="0"/>
    </timestep>
    <timestep time="53.00">
        <vehicle id="v0" energyConsumed="-12.8557" totalEnergyConsumed="127.5729" totalEnergyRegenerated="94.0659" actualBatteryCapacity="17466.4930" maximumBatteryCapacity="35000.0000" chargingStationId="NULL" energyCharged="0.0000" energyChargedInTransit="0.0000" energyChargedStopped="0.0000" speed="3.7378" acceleration="-4.4103" x="98.3500" y="109.4350" lane="NC_1" posOnLane="90.5650" timeStopped="0"/>
    </timestep>
    <timestep time="54.00">
        <vehicle id="v0" energyConsumed="-3.4127" totalEnergyConsumed="127.5729" totalEnergyRegenerated="97.4786" actualBatteryCapacity="17469.9057" maximumBatteryCapacity="35000.0000" chargingStationId="NULL" energyCharged="0.0000" energyChargedInTransit="0.0000" energyChargedStopped="0.0000" speed="0.3303" acceleration="-3.4075" x="98.3500" y="109.1047" lane="NC_1" posOnLane="90.8953" timeStopped="0"/>
    </timestep>
    <timestep time="55.00">
        <vehicle id="v0" energyConsumed="0.0033" totalEnergyConsumed="127.5762" totalEnergyRegenerated="97.4786" actualBatteryCapacity="17469.9024" maximumBatteryCapacity="35000.0000" chargingStationId="NULL" energyCharged="0.0000" energyChargedInTransit="0.0000" energyChargedStopped="0.0000" speed="0.0454" acceleration="-0.2849" x="98.3500" y="109.0593" lane="NC_1" posOnLane="90.9407" timeStopped="1"/>
    </timestep>
    <timestep time="56.00">
        <vehicle id="v0" energyConsumed="0.0276" totalEnergyConsumed="127.6038" totalEnergyRegenerated="97.4786" actualBatteryCapacity="17469.8748" maximumBatteryCapacity="35000.0000" chargingStationId="NULL" energyCharged="0.0000" energyChargedInTransit="0.0000" energyChargedStopped="0.0000" speed="0.0071" acceleration="-0.0383" x="98.3500" y="109.0522" lane="NC_1" posOnLane="90.9478" timeStopped="2"/>
    </timestep>
    <timestep time="57.00">
        <vehicle id="v0" energyConsumed="0.0278" totalEnergyConsumed="127.6316" totalEnergyRegenerated="97.4786" actualBatteryCapacity="17469.8470" maximumBatteryCapacity="35000.0000" chargingStationId="NULL" energyCharged="0.0000" energyChargedInTransit="0.0000" energyChargedStopped="0.0000" speed="0.0007" acceleration="-0.0064" x="98.3500" y="109.0515" lane="NC_1" posOnLane="90.9485" timeStopped="3"/>
    </timestep>
    <timestep time="58.00">
        <vehicle id="v0" energyConsumed="0.0278" totalEnergyConsumed="127.6594" totalEnergyRegenerated="97.4786" actualBatteryCapacity="17469.8192" maximumBatteryCapacity="35000.0000" chargingStationId="NULL" energyCharged="0.0000" energyChargedInTransit="0.0000" energyChargedStopped="0.0000" speed="0.0004" acceleration="-0.0003" x="98.3500" y="109.0511" lane="NC_1" posOnLane="90.9489" timeStopped="4"/>
    </timestep>
    <timestep time="59.00">
        <vehicle id="v0" energyConsumed="0.0278" totalEnergyConsumed="127.6872" totalEnergyRegenerated="97.4786" actualBatteryCapacity="17469.7914" maximumBatteryCapacity="35000.0000" chargingStationId="NULL" energyCharged="0.0000" energyChargedInTransit="0.0000" energyChargedStopped="0.0000" speed="0.0000" acceleration="-0.0004" x="98.3500" y="109.0511" lane="NC_1" posOnLane="90.9489" timeStopped="5"/>
    </timestep>
    <timestep time="60.00">
        <vehicle id="v0" energyConsumed="0.0278" totalEnergyConsumed="127.7150" totalEnergyRegenerated="97.4786" actualBatteryCapacity="17469.7637" maximumBatteryCapacity="35000.0000" chargingStationId="NULL" energyCharged="0.0000" energyChargedInTransit="0.0000" energyChargedStopped="0.0000" speed="0.0000" acceleration="0.0000" x="98.3500" y="109.0511" lane="NC_1" posOnLane="90.9489" timeStopped="6"/>
    </timestep>
    <timestep time="61.00">
        <vehicle id="v0" energyConsumed="0.0278" totalEnergyConsumed="127.7427" totalEnergyRegenerated="97.4786" actualBatteryCapacity="17469.7359" maximumBatteryCapacity="35000.0000" chargingStationId="NULL" energyCharged="0.0000" energyChargedInTransit="0.0000" energyChargedStopped="0.0000" speed="0.0000" acceleration="0.0000" x="98.3500" y="109.0511" lane="NC_1" posOnLane="90.9489" timeStopped="7"/>
    </timestep>
    <timestep time="62.00">
        <vehicle id="v0" energyConsumed="0.0278" totalEnergyConsumed="127.7705" totalEnergyRegenerated="97.4786" actualBatteryCapacity="17469.7081" maximumBatteryCapacity="35000.0000" chargingStationId="NULL" energyCharged="0.0000" energyChargedInTransit="0.0000" energyChargedStopped="0.0000" speed="0.0000" acceleration="0.0000" x="98.3500" y="109.0511" lane="NC_1" posOnLane="90.9489" timeStopped="8"/>