<?xml version="1.0" encoding="UTF-8"?>

<!-- generated on 2023-05-22 11:43:59 by Eclipse SUMO netedit Version v1_17_0+0367-9a0a48c
-->

<routes xmlns:xsi="http://www.w3.org/2001/XMLSchema-instance" xsi:noNamespaceSchemaLocation="http://sumo.dlr.de/xsd/routes_file.xsd">
    <!-- Vehicles, persons and containers (sorted by depart) -->
    <vType id="car" sigma="0"/>
    <vehicle id="v_0" type="car" depart="0.00" departPos="-30" departSpeed="max">
        <route edges="-E6 E19 E20 E17 E5.22"/>
    </vehicle>
    <vehicle id="v_1" type="car" depart="0.00" departPos="-30" departSpeed="max">
        <route edges="E1.17 E20 E17 E5.22"/>
    </vehicle>
</routes>
