<?xml version="1.0" encoding="UTF-8"?>

<!-- generated on 2025-08-01 13:22:20 by Eclipse SUMO netconvert Version v1_24_0+0105-e209ab84cb0
This data file and the accompanying materials
are made available under the terms of the Eclipse Public License v2.0
which accompanies this distribution, and is available at
http://www.eclipse.org/legal/epl-v20.html
This file may also be made available under the following Secondary
Licenses when the conditions for such availability set forth in the Eclipse
Public License 2.0 are satisfied: GNU General Public License, version 2
or later which is available at
https://www.gnu.org/licenses/old-licenses/gpl-2.0-standalone.html
SPDX-License-Identifier: EPL-2.0 OR GPL-2.0-or-later
<netconvertConfiguration xmlns:xsi="http://www.w3.org/2001/XMLSchema-instance" xsi:noNamespaceSchemaLocation="http://sumo.dlr.de/xsd/netconvertConfiguration.xsd">

    <input>
        <opendrive-files value="opendrive.xodr"/>
    </input>

    <output>
        <write-license value="true"/>
    </output>

    <processing>
        <geometry.min-dist value="10"/>
        <offset.disable-normalization value="true"/>
    </processing>

    <building_defaults>
        <default.junctions.radius value="0"/>
    </building_defaults>

    <junctions>
        <no-turnarounds.except-deadend value="true"/>
        <junctions.join value="true"/>
    </junctions>

    <report>
        <xml-validation value="never"/>
    </report>

</netconvertConfiguration>
-->

<net version="1.20" junctionCornerDetail="5" rectangularLaneCut="true" limitTurnSpeed="5.50" xmlns:xsi="http://www.w3.org/2001/XMLSchema-instance" xsi:noNamespaceSchemaLocation="http://sumo.dlr.de/xsd/net_file.xsd">

    <location netOffset="0.00,0.00" convBoundary="-101.02,-9.38,101.02,116.64" origBoundary="-102.05,-9.38,102.05,118.62" projParameter="!"/>

    <type id="driving" priority="1" speed="13.89" disallow="pedestrian tram rail_urban rail rail_electric rail_fast ship container cable_car subway aircraft wheelchair scooter drone" width="3.65"/>

    <edge id=":1_0" function="internal">
        <lane id=":1_0_0" index="0" disallow="pedestrian tram rail_urban rail rail_electric rail_fast ship container cable_car subway aircraft wheelchair scooter drone" speed="13.49" length="10.31" width="3.20" shape="-11.49,6.85 -13.87,4.87 -15.42,3.20 -17.12,2.04 -19.96,1.60"/>
    </edge>
    <edge id=":1_1" function="internal">
        <lane id=":1_1_0" index="0" disallow="pedestrian tram rail_urban rail rail_electric rail_fast ship container cable_car subway aircraft wheelchair scooter drone" speed="7.84" length="9.34" width="3.20" shape="-11.49,6.85 -16.63,2.59 -17.70,0.15"/>
    </edge>
    <edge id=":1_3" function="internal">
        <lane id=":1_3_0" index="0" disallow="pedestrian tram rail_urban rail rail_electric rail_fast ship container cable_car subway aircraft wheelchair scooter drone" speed="7.84" length="11.10" width="3.20" shape="-17.70,0.15 -18.27,-1.14 -16.42,-4.35 -11.08,-7.03"/>
    </edge>
    <edge id=":1_2" function="internal">
        <lane id=":1_2_0" index="0" disallow="pedestrian tram rail_urban rail rail_electric rail_fast ship container cable_car subway aircraft wheelchair scooter drone" speed="13.89" length="10.69" width="3.20" shape="-19.96,-1.60 -17.12,-2.22 -15.42,-3.71 -13.76,-5.50 -11.08,-7.03"/>
    </edge>
    <edge id=":2_0" function="internal">
        <lane id=":2_0_0" index="0" disallow="pedestrian tram rail_urban rail rail_electric rail_fast ship container cable_car subway aircraft wheelchair scooter drone" speed="3.65" length="4.67" width="3.20" shape="-101.02,1.60 -102.22,0.80 -102.62,0.00 -102.22,-0.80 -101.02,-1.60"/>
    </edge>
    <edge id=":3_0" function="internal">
        <lane id=":3_0_0" index="0" disallow="pedestrian tram rail_urban rail rail_electric rail_fast ship container cable_car subway aircraft wheelchair scooter drone" speed="3.65" length="4.67" width="3.20" shape="101.02,-1.60 102.22,-0.80 102.62,0.00 102.22,0.80 101.02,1.60"/>
    </edge>
    <edge id=":4_0" function="internal">
        <lane id=":4_0_0" index="0" disallow="pedestrian tram rail_urban rail rail_electric rail_fast ship container cable_car subway aircraft wheelchair scooter drone" speed="8.26" length="8.18" width="3.20" shape="17.94,1.60 16.54,1.91 15.05,2.85 13.47,4.41 11.79,6.60"/>
    </edge>
    <edge id=":4_1" function="internal">
        <lane id=":4_1_0" index="0" disallow="pedestrian tram rail_urban rail rail_electric rail_fast ship container cable_car subway aircraft wheelchair scooter drone" speed="13.89" length="8.90" width="3.20" shape="11.17,-6.77 13.38,-5.56 14.51,-3.83 15.67,-2.27 17.94,-1.60"/>
    </edge>
    <edge id=":4_2" function="internal">
        <lane id=":4_2_0" index="0" disallow="pedestrian tram rail_urban rail rail_electric rail_fast ship container cable_car subway aircraft wheelchair scooter drone" speed="7.63" length="10.62" width="3.20" shape="11.17,-6.77 14.40,-5.21 15.58,-2.46 14.71,1.48"/>
    </edge>
    <edge id=":4_3" function="internal">
        <lane id=":4_3_0" index="0" disallow="pedestrian tram rail_urban rail rail_electric rail_fast ship container cable_car subway aircraft wheelchair scooter drone" speed="7.63" length="5.90" width="3.20" shape="14.71,1.48 11.79,6.60"/>
    </edge>
    <edge id=":5_0" function="internal">
        <lane id=":5_0_0" index="0" disallow="pedestrian tram rail_urban rail rail_electric rail_fast ship container cable_car subway aircraft wheelchair scooter drone" speed="3.65" length="4.67" width="3.20" shape="53.38,115.88 53.14,117.30 52.57,117.99 51.68,117.95 50.46,117.18"/>
    </edge>
    <edge id=":6_0" function="internal">
        <lane id=":6_0_0" index="0" disallow="pedestrian tram rail_urban rail rail_electric rail_fast ship container cable_car subway aircraft wheelchair scooter drone" speed="13.89" length="10.63" width="3.20" shape="6.77,19.14 5.18,16.68 3.34,15.53 1.10,14.71 -1.70,13.28"/>
    </edge>
    <edge id=":6_1" function="internal">
        <lane id=":6_1_0" index="0" disallow="pedestrian tram rail_urban rail rail_electric rail_fast ship container cable_car subway aircraft wheelchair scooter drone" speed="8.49" length="9.38" width="3.20" shape="10.20,8.90 9.14,10.94 8.71,13.11 8.89,15.41 9.69,17.84"/>
    </edge>
    <edge id=":6_2" function="internal">
        <lane id=":6_2_0" index="0" disallow="pedestrian tram rail_urban rail rail_electric rail_fast ship container cable_car subway aircraft wheelchair scooter drone" speed="8.09" length="7.99" width="3.20" shape="10.20,8.90 7.28,12.32 4.32,14.19"/>
    </edge>
    <edge id=":6_3" function="internal">
        <lane id=":6_3_0" index="0" disallow="pedestrian tram rail_urban rail rail_electric rail_fast ship container cable_car subway aircraft wheelchair scooter drone" speed="8.09" length="6.28" width="3.20" shape="4.32,14.19 1.33,14.51 -1.70,13.28"/>
    </edge>

    <edge id="-60" from="1" to="2" priority="1" type="driving" shape="-17.74,0.00 -100.00,0.00">
        <lane id="-60_0" index="0" disallow="pedestrian tram rail_urban rail rail_electric rail_fast ship container cable_car subway aircraft wheelchair scooter drone" speed="13.89" length="81.06" width="3.20" shape="-19.96,1.60 -101.02,1.60" type="driving"/>
    </edge>
    <edge id="-61" from="3" to="4" priority="1" type="driving" shape="100.00,0.00 17.94,0.00">
        <lane id="-61_0" index="0" disallow="pedestrian tram rail_urban rail rail_electric rail_fast ship container cable_car subway aircraft wheelchair scooter drone" speed="13.89" length="83.08" width="3.20" shape="101.02,1.60 17.94,1.60" type="driving"/>
    </edge>
    <edge id="-62" from="5" to="6" priority="1" type="driving" shape="51.67,115.97 7.29,16.38">
        <lane id="-62_0" index="0" disallow="pedestrian tram rail_urban rail rail_electric rail_fast ship container cable_car subway aircraft wheelchair scooter drone" speed="13.89" length="107.33" width="3.20" shape="50.46,117.18 6.77,19.14" type="driving"/>
    </edge>
    <edge id="-63" from="2" to="1" priority="1" type="driving" shape="-100.00,0.00 -17.74,0.00">
        <lane id="-63_0" index="0" disallow="pedestrian tram rail_urban rail rail_electric rail_fast ship container cable_car subway aircraft wheelchair scooter drone" speed="13.89" length="81.06" width="3.20" shape="-101.02,-1.60 -19.96,-1.60" type="driving"/>
    </edge>
    <edge id="-64" from="4" to="3" priority="1" type="driving" shape="17.94,0.00 100.00,0.00">
        <lane id="-64_0" index="0" disallow="pedestrian tram rail_urban rail rail_electric rail_fast ship container cable_car subway aircraft wheelchair scooter drone" speed="13.89" length="83.08" width="3.20" shape="17.94,-1.60 101.02,-1.60" type="driving"/>
    </edge>
    <edge id="-65" from="6" to="5" priority="1" type="driving" shape="7.29,16.38 51.67,115.97">
        <lane id="-65_0" index="0" disallow="pedestrian tram rail_urban rail rail_electric rail_fast ship container cable_car subway aircraft wheelchair scooter drone" speed="13.89" length="107.33" width="3.20" shape="9.69,17.84 53.38,115.88" type="driving"/>
    </edge>
    <edge id="-66" from="4" to="6" priority="1" type="driving" shape="10.47,5.69 8.88,7.99">
        <lane id="-66_0" index="0" disallow="pedestrian tram rail_urban rail rail_electric rail_fast ship container cable_car subway aircraft wheelchair scooter drone" speed="13.89" length="2.80" width="3.20" shape="11.79,6.60 10.20,8.90" type="driving"/>
    </edge>
    <edge id="-67" from="1" to="4" priority="1" type="driving" shape="-10.56,-5.52 -2.54,-8.25 10.81,-5.21">
        <lane id="-67_0" index="0" disallow="pedestrian tram rail_urban rail rail_electric rail_fast ship container cable_car subway aircraft wheelchair scooter drone" speed="13.89" length="23.07" width="3.20" shape="-11.08,-7.03 -2.63,-9.92 11.17,-6.77" type="driving"/>
    </edge>
    <edge id="-68" from="6" to="1" priority="1" type="driving" shape="-0.82,11.94 -10.61,5.51">
        <lane id="-68_0" index="0" disallow="pedestrian tram rail_urban rail rail_electric rail_fast ship container cable_car subway aircraft wheelchair scooter drone" speed="13.89" length="11.71" width="3.20" shape="-1.70,13.28 -11.49,6.85" type="driving"/>
    </edge>

    <junction id="1" type="priority" x="-14.15" y="-0.01" incLanes="-68_0 -63_0" intLanes=":1_0_0 :1_3_0 :1_2_0" shape="-12.37,8.18 -10.61,5.51 -13.67,3.19 -15.51,1.06 -16.12,-0.87 -15.49,-2.61 -13.64,-4.16 -10.56,-5.52 -11.59,-8.55 -13.50,-7.60 -14.75,-6.45 -15.68,-5.27 -16.63,-4.23 -17.94,-3.48 -19.96,-3.20 -19.96,3.20 -16.81,3.94 -15.88,4.76 -15.01,5.78 -13.93,6.95" radius="0.00">
        <request index="0" response="000" foes="000" cont="0"/>
        <request index="1" response="100" foes="100" cont="1"/>
        <request index="2" response="000" foes="010" cont="0"/>
    </junction>
    <junction id="2" type="priority" x="-101.02" y="0.00" incLanes="-60_0" intLanes=":2_0_0" shape="-101.02,0.00 -101.02,3.20 -101.02,0.00">
        <request index="0" response="0" foes="0" cont="0"/>
    </junction>
    <junction id="3" type="priority" x="101.02" y="0.00" incLanes="-64_0" intLanes=":3_0_0" shape="101.02,0.00 101.02,-3.20 101.02,0.00">
        <request index="0" response="0" foes="0" cont="0"/>
    </junction>
    <junction id="4" type="priority" x="14.21" y="0.24" incLanes="-61_0 -67_0" intLanes=":4_0_0 :4_1_0 :4_3_0" shape="17.94,3.20 17.94,-3.20 15.34,-4.33 14.69,-5.42 14.05,-6.59 13.10,-7.63 11.52,-8.33 10.81,-5.21 13.53,-3.37 13.83,-1.78 13.42,0.26 12.30,2.75 10.47,5.69 13.10,7.51 14.96,5.12 15.80,4.28 16.58,3.68 17.29,3.32" radius="0.00">
        <request index="0" response="000" foes="100" cont="0"/>
        <request index="1" response="000" foes="000" cont="0"/>
        <request index="2" response="001" foes="001" cont="1"/>
    </junction>
    <junction id="5" type="priority" x="51.67" y="116.64" incLanes="-65_0" intLanes=":5_0_0" shape="51.92,116.53 54.84,115.23 51.92,116.53">
        <request index="0" response="0" foes="0" cont="0"/>
    </junction>
    <junction id="6" type="priority" x="4.00" y="12.23" incLanes="-62_0 -66_0" intLanes=":6_0_0 :6_1_0 :6_3_0" shape="5.31,19.79 11.15,17.19 10.37,14.51 10.31,13.26 10.49,12.06 10.89,10.91 11.51,9.81 8.88,7.99 7.25,10.07 5.62,11.58 4.00,12.53 2.39,12.90 0.78,12.70 -0.82,11.94 -2.58,14.61 -0.76,15.60 0.79,16.15 2.12,16.56 3.29,17.11 4.33,18.09" radius="0.00">
        <request index="0" response="000" foes="100" cont="0"/>
        <request index="1" response="000" foes="000" cont="0"/>
        <request index="2" response="001" foes="001" cont="1"/>
    </junction>

    <junction id=":1_3_0" type="internal" x="-17.70" y="0.15" incLanes=":1_1_0 -63_0" intLanes=":1_2_0"/>
    <junction id=":4_3_0" type="internal" x="14.71" y="1.48" incLanes=":4_2_0 -61_0" intLanes=":4_0_0"/>
    <junction id=":6_3_0" type="internal" x="4.32" y="14.19" incLanes=":6_2_0 -62_0" intLanes=":6_0_0"/>

    <connection from="-60" to="-63" fromLane="0" toLane="0" via=":2_0_0" dir="t" state="M"/>
    <connection from="-61" to="-66" fromLane="0" toLane="0" via=":4_0_0" dir="r" state="M"/>
    <connection from="-62" to="-68" fromLane="0" toLane="0" via=":6_0_0" dir="s" state="M"/>
    <connection from="-63" to="-67" fromLane="0" toLane="0" via=":1_2_0" dir="s" state="M"/>
    <connection from="-64" to="-61" fromLane="0" toLane="0" via=":3_0_0" dir="t" state="M"/>
    <connection from="-65" to="-62" fromLane="0" toLane="0" via=":5_0_0" dir="t" state="M"/>
    <connection from="-66" to="-65" fromLane="0" toLane="0" via=":6_1_0" dir="r" state="M"/>
    <connection from="-66" to="-68" fromLane="0" toLane="0" via=":6_2_0" dir="l" state="m"/>
    <connection from="-67" to="-64" fromLane="0" toLane="0" via=":4_1_0" dir="s" state="M"/>
    <connection from="-67" to="-66" fromLane="0" toLane="0" via=":4_2_0" dir="l" state="m"/>
    <connection from="-68" to="-60" fromLane="0" toLane="0" via=":1_0_0" dir="s" state="M"/>
    <connection from="-68" to="-67" fromLane="0" toLane="0" via=":1_1_0" dir="l" state="m"/>

    <connection from=":1_0" to="-60" fromLane="0" toLane="0" dir="s" state="M"/>
    <connection from=":1_1" to="-67" fromLane="0" toLane="0" via=":1_3_0" dir="l" state="m"/>
    <connection from=":1_3" to="-67" fromLane="0" toLane="0" dir="l" state="M"/>
    <connection from=":1_2" to="-67" fromLane="0" toLane="0" dir="s" state="M"/>
    <connection from=":2_0" to="-63" fromLane="0" toLane="0" dir="t" state="M"/>
    <connection from=":3_0" to="-61" fromLane="0" toLane="0" dir="t" state="M"/>
    <connection from=":4_0" to="-66" fromLane="0" toLane="0" dir="r" state="M"/>
    <connection from=":4_1" to="-64" fromLane="0" toLane="0" dir="s" state="M"/>
    <connection from=":4_2" to="-66" fromLane="0" toLane="0" via=":4_3_0" dir="l" state="m"/>
    <connection from=":4_3" to="-66" fromLane="0" toLane="0" dir="l" state="M"/>
    <connection from=":5_0" to="-62" fromLane="0" toLane="0" dir="t" state="M"/>
    <connection from=":6_0" to="-68" fromLane="0" toLane="0" dir="s" state="M"/>
    <connection from=":6_1" to="-65" fromLane="0" toLane="0" dir="r" state="M"/>
    <connection from=":6_2" to="-68" fromLane="0" toLane="0" via=":6_3_0" dir="l" state="m"/>
    <connection from=":6_3" to="-68" fromLane="0" toLane="0" dir="l" state="M"/>

</net>
