<?xml version="1.0" encoding="UTF-8"?>
<!-- generated on 2021-11-11 19:24:05.043984 by osmTaxiStop.py v1_10_0+2182-d82d4e6f675
  options: <doubleminus>fleet-size 1 -f out.rou.xml -s osm_bbox.osm.xml -o out.add.xml
-->
<additional xmlns:xsi="http://www.w3.org/2001/XMLSchema-instance" xsi:noNamespaceSchemaLocation="http://sumo.dlr.de/xsd/additional_file.xsd">
     <vType id="taxi" vClass="taxi">
        <param key="has.taxi.device" value="true"/>
    </vType>
    <trip id="taxi_chargingStation_3_0" type="taxi" depart="0.00"><stop busStop="chargingStation_3" triggered="person"/></trip>
</additional>
