<?xml version="1.0"?>

<!-- generated on 09/24/09 13:15:26 by SUMO duarouter Version dev-SVN-r7781
<configuration>

    <input>
        <net-file value="input_net.net.xml"/>
        <trip-defs value="input_trips.trips.xml"/>
    </input>

    <output>
        <output-file value="routes.rou.xml"/>
    </output>

</configuration>
-->

<route-alternatives>
   <vtype id="0" length="7.00" maxspeed="30.00" color="1.00,0.00,0.00">
      <carFollowing-Krauss accel="1.60" decel="5.50" sigma="0.90"/>
   </vtype>
   <vehicle id="0" type="0" depart="0">
      <routeDistribution last="0">
         <route cost="125.11" probability="1.00000000" edges="beg middle end rend"/>
      </routeDistribution>
   </vehicle>
   <vtype id="1" length="7.00" maxspeed="30.00" color="1.00,0.00,0.00">
      <carFollowing-Krauss accel="1.60" decel="5.50" sigma="0.90"/>
   </vtype>
   <vehicle id="1" type="1" depart="1">
      <routeDistribution last="0">
         <route cost="125.11" probability="1.00000000" edges="beg middle end rend"/>
      </routeDistribution>
   </vehicle>
   <vehicle id="2" type="0" depart="10">
      <routeDistribution last="0">
         <route cost="125.11" probability="1.00000000" edges="beg middle end rend"/>
      </routeDistribution>
   </vehicle>
   <vehicle id="3" type="1" depart="11">
      <routeDistribution last="0">
         <route cost="125.11" probability="1.00000000" edges="beg middle end rend"/>
      </routeDistribution>
   </vehicle>
   <vehicle id="4" type="0" depart="20">
      <routeDistribution last="0">
         <route cost="125.11" probability="1.00000000" edges="beg middle end rend"/>
      </routeDistribution>
   </vehicle>
   <vehicle id="5" type="1" depart="21">
      <routeDistribution last="0">
         <route cost="125.11" probability="1.00000000" edges="beg middle end rend"/>
      </routeDistribution>
   </vehicle>
   <vehicle id="6" type="0" depart="30">
      <routeDistribution last="0">
         <route cost="125.11" probability="1.00000000" edges="beg middle end rend"/>
      </routeDistribution>
   </vehicle>
   <vehicle id="7" type="1" depart="31">
      <routeDistribution last="0">
         <route cost="125.11" probability="1.00000000" edges="beg middle end rend"/>
      </routeDistribution>
   </vehicle>
   <vehicle id="8" type="0" depart="40">
      <routeDistribution last="0">
         <route cost="125.11" probability="1.00000000" edges="beg middle end rend"/>
      </routeDistribution>
   </vehicle>
   <vehicle id="9" type="1" depart="41">
      <routeDistribution last="0">
         <route cost="125.11" probability="1.00000000" edges="beg middle end rend"/>
      </routeDistribution>
   </vehicle>
   <vehicle id="10" type="0" depart="50">
      <routeDistribution last="0">
         <route cost="125.11" probability="1.00000000" edges="beg middle end rend"/>
      </routeDistribution>
   </vehicle>
   <vehicle id="11" type="1" depart="51">
      <routeDistribution last="0">
         <route cost="125.11" probability="1.00000000" edges="beg middle end rend"/>
      </routeDistribution>
   </vehicle>
   <vehicle id="12" type="0" depart="60">
      <routeDistribution last="0">
         <route cost="125.11" probability="1.00000000" edges="beg middle end rend"/>
      </routeDistribution>
   </vehicle>
   <vehicle id="13" type="1" depart="61">
      <routeDistribution last="0">
         <route cost="125.11" probability="1.00000000" edges="beg middle end rend"/>
      </routeDistribution>
   </vehicle>
   <vehicle id="14" type="0" depart="70">
      <routeDistribution last="0">
         <route cost="125.11" probability="1.00000000" edges="beg middle end rend"/>
      </routeDistribution>
   </vehicle>
   <vehicle id="15" type="1" depart="71">
      <routeDistribution last="0">
         <route cost="125.11" probability="1.00000000" edges="beg middle end rend"/>
      </routeDistribution>
   </vehicle>
   <vehicle id="16" type="0" depart="80">
      <routeDistribution last="0">
         <route cost="125.11" probability="1.00000000" edges="beg middle end rend"/>
      </routeDistribution>
   </vehicle>
   <vehicle id="17" type="1" depart="81">
      <routeDistribution last="0">
         <route cost="125.11" probability="1.00000000" edges="beg middle end rend"/>
      </routeDistribution>
   </vehicle>
   <vehicle id="18" type="0" depart="90">
      <routeDistribution last="0">
         <route cost="125.11" probability="1.00000000" edges="beg middle end rend"/>
      </routeDistribution>
   </vehicle>
   <vehicle id="19" type="1" depart="91">
      <routeDistribution last="0">
         <route cost="125.11" probability="1.00000000" edges="beg middle end rend"/>
      </routeDistribution>
   </vehicle>
</route-alternatives>
