<?xml version="1.0" encoding="UTF-8"?>

<!-- generated on Wed Nov  8 15:59:34 2017 by SUMO Version v0_31_0-948-g553d739
<?xml version="1.0" encoding="UTF-8"?>

<configuration xmlns:xsi="http://www.w3.org/2001/XMLSchema-instance" xsi:noNamespaceSchemaLocation="http://sumo.dlr.de/xsd/sumoConfiguration.xsd">

    <input>
        <net-file value="net.net.xml"/>
        <route-files value="input_routes.rou.xml"/>
    </input>

    <output>
        <fcd-output value="fcd.xml"/>
        <tripinfo-output value="tripinfos.xml"/>
        <lanechange-output value="lanechanges.xml"/>
        <lanechange-output.started value="true"/>
        <lanechange-output.ended value="true"/>
    </output>

    <processing>
        <lateral-resolution value="0.4"/>
    </processing>

    <report>
        <xml-validation value="never"/>
        <no-step-log value="true"/>
    </report>

</configuration>
-->

<lanechanges>
    <changeStarted id="A" type="t0" time="1.00" from="beg_0" to="beg_1" dir="1" speed="13.89" pos="13.89" reason="strategic|urgent" leaderGap="None" leaderSecureGap="None" followerGap="None" followerSecureGap="None" origLeaderGap="None" origLeaderSecureGap="None" latGap="1.90"/>
    <change id="A" type="t0" time="3.00" from="beg_0" to="beg_1" dir="1" speed="13.89" pos="41.67" reason="strategic|urgent" leaderGap="None" leaderSecureGap="None" followerGap="None" followerSecureGap="None" origLeaderGap="None" origLeaderSecureGap="None" latGap="0.80"/>
    <changeStarted id="A" type="t0" time="12.00" from="beg_1" to="beg_1" dir="1" speed="13.89" pos="166.68" reason="strategic|urgent" leaderGap="None" leaderSecureGap="None" followerGap="None" followerSecureGap="None" origLeaderGap="None" origLeaderSecureGap="None" latGap="0.40"/>
    <changeEnded id="A" type="t0" time="12.00" from="beg_1" to="beg_1" dir="1" speed="13.89" pos="166.68" reason="strategic|urgent" leaderGap="None" leaderSecureGap="None" followerGap="None" followerSecureGap="None" origLeaderGap="None" origLeaderSecureGap="None" latGap="0.40"/>
</lanechanges>
