<?xml version="1.0" encoding="UTF-8"?>

<!-- generated on 2022-07-07 10:55:35.553250 by randomTrips.py v1_13_0+1343-240e5d48340
<configuration>
    <flows value="10"/>
    <junction-taz value="True"/>
    <net-file value="net.net.xml"/>
    <route-file value="out.rou.xml"/>
</configuration>
-->

<routes xmlns:xsi="http://www.w3.org/2001/XMLSchema-instance" xsi:noNamespaceSchemaLocation="http://sumo.dlr.de/xsd/routes_file.xsd">
    <flow id="0" begin="0" end="3600" period="10" fromJunction="m3" toJunction="1"/>
    <flow id="1" begin="0" end="3600" period="10" fromJunction="2" toJunction="0"/>
    <flow id="2" begin="0" end="3600" period="10" fromJunction="m3" toJunction="0"/>
    <flow id="3" begin="0" end="3600" period="10" fromJunction="m4" toJunction="1"/>
    <flow id="4" begin="0" end="3600" period="10" fromJunction="m2" toJunction="1"/>
    <flow id="5" begin="0" end="3600" period="10" fromJunction="m1" toJunction="3"/>
    <flow id="6" begin="0" end="3600" period="10" fromJunction="1" toJunction="0"/>
    <flow id="7" begin="0" end="3600" period="10" fromJunction="m3" toJunction="3"/>
    <flow id="8" begin="0" end="3600" period="10" fromJunction="m1" toJunction="3"/>
    <flow id="9" begin="0" end="3600" period="10" fromJunction="4" toJunction="1"/>
</routes>
