<?xml version="1.0" encoding="UTF-8"?>

<!-- generated on 2024-05-29 08:50:12 by Eclipse SUMO netconvert Version v1_20_0+0251-82de900cd34
This data file and the accompanying materials
are made available under the terms of the Eclipse Public License v2.0
which accompanies this distribution, and is available at
http://www.eclipse.org/legal/epl-v20.html
This file may also be made available under the following Secondary
Licenses when the conditions for such availability set forth in the Eclipse
Public License 2.0 are satisfied: GNU General Public License, version 2
or later which is available at
https://www.gnu.org/licenses/old-licenses/gpl-2.0-standalone.html
SPDX-License-Identifier: EPL-2.0 OR GPL-2.0-or-later
<configuration xmlns:xsi="http://www.w3.org/2001/XMLSchema-instance" xsi:noNamespaceSchemaLocation="http://sumo.dlr.de/xsd/netconvertConfiguration.xsd">

    <input>
        <osm-files value="osm.xml.gz"/>
    </input>

    <output>
        <write-license value="true"/>
        <output-file value="net.net.xml"/>
        <ptstop-output value="additional.xml"/>
        <ptline-output value="ptlines.xml"/>
    </output>

    <projection>
        <proj.utm value="true"/>
    </projection>

    <junctions>
        <no-internal-links value="true"/>
    </junctions>

    <report>
        <xml-validation value="never"/>
    </report>

</configuration>
-->

<net version="1.20" junctionCornerDetail="5" limitTurnSpeed="5.50" xmlns:xsi="http://www.w3.org/2001/XMLSchema-instance" xsi:noNamespaceSchemaLocation="http://sumo.dlr.de/xsd/net_file.xsd">

    <location netOffset="-462672.01,-5248890.27" convBoundary="0.00,0.00,2316.78,1424.08" origBoundary="8.505312,47.392479,8.535960,47.405343" projParameter="+proj=utm +zone=32 +ellps=WGS84 +datum=WGS84 +units=m +no_defs"/>

    <type id="highway.footway" priority="1" numLanes="1" speed="2.78" allow="pedestrian" oneway="1" width="2.00"/>
    <type id="highway.path" priority="1" numLanes="1" speed="5.56" allow="pedestrian bicycle" oneway="0" width="2.00"/>
    <type id="highway.residential" priority="3" numLanes="1" speed="13.89" disallow="tram rail_urban rail rail_electric rail_fast ship container cable_car subway aircraft wheelchair scooter drone" oneway="0"/>
    <type id="highway.service" priority="1" numLanes="1" speed="5.56" allow="pedestrian delivery bicycle" oneway="0"/>
    <type id="highway.steps" priority="1" numLanes="1" speed="1.39" allow="pedestrian" oneway="1" width="2.00"/>
    <type id="highway.unclassified" priority="4" numLanes="1" speed="13.89" disallow="tram rail_urban rail rail_electric rail_fast ship container cable_car subway aircraft wheelchair scooter drone" oneway="0"/>
    <type id="railway.rail" priority="20" numLanes="1" speed="44.44" allow="rail" oneway="1"/>
    <type id="railway.tram" priority="17" numLanes="1" speed="13.89" allow="tram" oneway="1"/>

    <edge id="-1096073140#0" from="2890008017" to="2890008025" priority="4" type="highway.unclassified" shape="346.88,557.78 358.21,552.28 371.57,546.78">
        <lane id="-1096073140#0_0" index="0" disallow="tram rail_urban rail rail_electric rail_fast ship container cable_car subway aircraft wheelchair scooter drone" speed="13.89" length="27.04" shape="348.50,555.21 357.56,550.82 370.82,545.36"/>
    </edge>
    <edge id="-1096073140#1" from="10037625374" to="2890008017" priority="4" type="highway.unclassified">
        <lane id="-1096073140#1_0" index="0" disallow="tram rail_urban rail rail_electric rail_fast ship container cable_car subway aircraft wheelchair scooter drone" speed="13.89" length="6.16" shape="340.64,559.03 343.85,557.47"/>
    </edge>
    <edge id="-1096073141" from="112332539" to="10037625374" priority="4" type="highway.unclassified" shape="90.27,709.23 99.91,705.93 138.14,683.45 209.88,632.08 231.76,617.31 242.39,609.96 253.94,603.09 272.09,593.75 290.93,584.96 324.20,568.79 341.34,560.47">
        <lane id="-1096073141_0" index="0" disallow="tram rail_urban rail rail_electric rail_fast ship container cable_car subway aircraft wheelchair scooter drone" speed="13.89" length="292.78" shape="89.75,707.71 99.24,704.47 137.27,682.11 208.96,630.76 230.86,615.99 241.52,608.62 253.17,601.69 271.38,592.31 290.25,583.52 323.50,567.35 340.64,559.03"/>
    </edge>
    <edge id="-1122079184" from="10262717855" to="10262717856" priority="1" type="highway.service">
        <lane id="-1122079184_0" index="0" allow="pedestrian delivery bicycle" speed="5.56" length="8.56" shape="671.31,514.54 671.63,510.70"/>
    </edge>
    <edge id="-1122079192" from="10262717875" to="10262717876" priority="1" type="highway.path">
        <lane id="-1122079192_0" index="0" allow="pedestrian bicycle" speed="5.56" length="3.58" width="2.00" shape="698.45,515.98 698.65,515.99"/>
    </edge>
    <edge id="-1122079195#0" from="10262717876" to="5582587869" priority="1" type="highway.service">
        <lane id="-1122079195#0_0" index="0" allow="pedestrian delivery bicycle" speed="5.56" length="8.47" shape="700.73,513.69 700.76,513.34"/>
    </edge>
    <edge id="-1122079195#1" from="10262717886" to="10262717876" priority="1" type="highway.service">
        <lane id="-1122079195#1_0" index="0" allow="pedestrian delivery bicycle" speed="5.56" length="3.82" shape="700.15,519.23 700.17,519.03"/>
    </edge>
    <edge id="-1225386536#0" from="11363828409" to="11363828410" priority="1" type="highway.service">
        <lane id="-1225386536#0_0" index="0" allow="pedestrian delivery bicycle" speed="5.56" length="4.56" shape="728.85,512.62 728.84,512.42"/>
    </edge>
    <edge id="-1225386536#1" from="11363828407" to="11363828409" priority="1" type="highway.service" shape="735.59,520.44 730.69,519.95 730.48,513.67">
        <lane id="-1225386536#1_0" index="0" allow="pedestrian delivery bicycle" speed="5.56" length="11.20" shape="735.43,522.03 729.14,521.40 728.97,516.36"/>
    </edge>
    <edge id="-12369753#0" from="11363828410" to="2062220261" priority="4" type="highway.unclassified">
        <lane id="-12369753#0_0" index="0" disallow="tram rail_urban rail rail_electric rail_fast ship container cable_car subway aircraft wheelchair scooter drone" speed="8.33" length="10.38" shape="725.65,511.00 723.32,511.14"/>
    </edge>
    <edge id="-12369753#1" from="5562301621" to="11363828410" priority="4" type="highway.unclassified" shape="1093.46,433.52 1048.42,446.49 993.93,462.65 949.00,475.04 847.62,491.97 757.16,505.99 737.60,508.68 730.35,509.11">
        <lane id="-12369753#1_0" index="0" disallow="tram rail_urban rail rail_electric rail_fast ship container cable_car subway aircraft wheelchair scooter drone" speed="8.33" length="371.65" shape="1093.91,435.06 1048.86,448.03 994.37,464.19 949.35,476.60 847.88,493.55 757.39,507.57 737.76,510.27 735.04,510.44"/>
    </edge>
    <edge id="-135448935" from="1487627886" to="1487640241" priority="1" type="highway.service">
        <lane id="-135448935_0" index="0" allow="pedestrian delivery bicycle" speed="5.56" length="28.27" shape="800.04,549.13 828.30,548.29"/>
    </edge>
    <edge id="-171943679#0" from="5582587869" to="2062220261" priority="4" type="highway.unclassified">
        <lane id="-171943679#0_0" index="0" disallow="tram rail_urban rail rail_electric rail_fast ship container cable_car subway aircraft wheelchair scooter drone" speed="13.89" length="17.15" shape="707.48,507.44 717.22,507.98"/>
    </edge>
    <edge id="-171943679#1" from="10262717856" to="5582587869" priority="4" type="highway.unclassified" shape="673.63,506.14 675.01,506.26 702.85,508.78">
        <lane id="-171943679#1_0" index="0" disallow="tram rail_urban rail rail_electric rail_fast ship container cable_car subway aircraft wheelchair scooter drone" speed="13.89" length="29.35" shape="678.43,504.96 698.27,506.76"/>
    </edge>
    <edge id="-171943679#2" from="318914891" to="10262717856" priority="4" type="highway.unclassified" shape="555.06,505.93 564.00,505.10 577.24,503.80 600.64,501.78 607.18,501.56 623.38,502.08 673.63,506.14">
        <lane id="-171943679#2_0" index="0" disallow="tram rail_urban rail rail_electric rail_fast ship container cable_car subway aircraft wheelchair scooter drone" speed="13.89" length="118.93" shape="557.48,504.10 563.85,503.50 577.10,502.21 600.54,500.18 607.18,499.96 623.47,500.48 669.06,504.17"/>
    </edge>
    <edge id="-171943679#3" from="2890008025" to="318914891" priority="4" type="highway.unclassified" shape="371.57,546.78 395.17,537.03 417.27,529.32 459.27,518.68 545.25,507.27 555.06,505.93">
        <lane id="-171943679#3_0" index="0" disallow="tram rail_urban rail rail_electric rail_fast ship container cable_car subway aircraft wheelchair scooter drone" speed="13.89" length="188.90" shape="371.10,545.24 394.60,535.53 416.81,527.79 458.96,517.10 545.04,505.68 552.31,504.69"/>
    </edge>
    <edge id="-173903184#0" from="3876472208" to="1388820605" priority="3" type="highway.residential" shape="619.38,590.67 657.87,594.69 673.76,596.65 688.88,599.44 731.37,610.84">
        <lane id="-173903184#0_0" index="0" disallow="tram rail_urban rail rail_electric rail_fast ship container cable_car subway aircraft wheelchair scooter drone" speed="8.33" length="114.08" shape="622.03,589.34 658.05,593.10 674.00,595.07 689.23,597.88 731.79,609.30"/>
    </edge>
    <edge id="-173903184#1" from="112333972" to="3876472208" priority="3" type="highway.residential" shape="260.04,714.57 264.92,708.11 283.01,684.86 294.39,673.04 304.52,664.86 312.27,660.29 326.02,651.93 353.48,639.89 387.72,625.45 426.74,609.19 439.68,603.99 449.49,601.26 461.07,598.00 472.85,595.87 511.34,589.52 548.36,587.30 560.37,587.16 578.44,587.73 592.17,588.24 606.02,589.11 619.38,590.67">
        <lane id="-173903184#1_0" index="0" disallow="tram rail_urban rail rail_electric rail_fast ship container cable_car subway aircraft wheelchair scooter drone" speed="8.33" length="396.87" shape="258.76,713.60 263.65,707.14 281.80,683.81 293.30,671.86 303.61,663.55 311.44,658.92 325.28,650.50 352.84,638.42 387.10,623.98 426.13,607.71 439.17,602.47 449.06,599.72 460.71,596.44 472.58,594.29 511.16,587.93 548.30,585.70 560.39,585.56 578.50,586.13 592.25,586.64 606.16,587.51 616.99,588.78"/>
    </edge>
    <edge id="-42208485#0" from="6167083702" to="1376021561" priority="4" type="highway.unclassified" shape="334.43,483.41 350.39,476.81 373.73,469.27 398.28,463.30 447.20,453.61 467.61,450.25 471.81,449.56 488.86,447.57 495.77,446.78 525.25,443.46 546.21,440.99 554.12,440.01 581.21,436.84 587.97,435.98 593.86,435.35 597.47,434.91 603.82,434.15 620.70,432.27 652.83,428.49 680.54,423.95 698.76,419.41 727.16,411.19">
        <lane id="-42208485#0_0" index="0" disallow="pedestrian tram rail_urban rail rail_electric rail_fast ship container cable_car subway aircraft wheelchair scooter drone" speed="13.89" length="400.55" shape="338.00,480.20 349.84,475.30 373.29,467.73 397.93,461.74 446.91,452.04 467.35,448.67 471.59,447.97 488.68,445.98 495.59,445.19 525.07,441.87 546.02,439.40 553.93,438.42 581.02,435.25 587.78,434.39 593.68,433.76 597.28,433.32 603.63,432.56 620.52,430.68 652.60,426.90 680.22,422.38 698.34,417.87 726.72,409.65"/>
    </edge>
    <edge id="-42208485#1" from="3983125015" to="6167083702" priority="4" type="highway.unclassified" shape="34.32,686.48 44.78,677.55 68.86,659.07 100.83,634.54 115.00,623.66 154.37,592.73 171.16,579.61 173.25,577.93 175.37,576.22 193.71,561.68 220.53,540.44 249.59,522.40 284.77,505.52 321.92,488.74 325.45,487.07 334.43,483.41">
        <lane id="-42208485#1_0" index="0" disallow="pedestrian tram rail_urban rail rail_electric rail_fast ship container cable_car subway aircraft wheelchair scooter drone" speed="13.89" length="364.25" shape="33.28,685.26 43.77,676.31 67.88,657.80 99.86,633.27 114.02,622.40 153.39,591.47 170.17,578.35 172.25,576.68 174.37,574.97 192.72,560.43 219.61,539.13 248.82,520.99 284.09,504.07 321.26,487.29 324.81,485.60 329.31,483.76"/>
    </edge>
    <edge id="-658595446#0" from="6167083703" to="6167083702" priority="1" type="highway.service">
        <lane id="-658595446#0_0" index="0" allow="pedestrian delivery bicycle" speed="5.56" length="1.86" shape="333.44,485.43 333.37,485.24"/>
    </edge>
    <edge id="-658595446#1" from="6167083704" to="6167083703" priority="1" type="highway.service">
        <lane id="-658595446#1_0" index="0" allow="pedestrian delivery bicycle" speed="5.56" length="7.75" shape="335.17,489.99 334.47,488.13"/>
    </edge>
    <edge id="-658595446#2" from="6167083705" to="6167083704" priority="1" type="highway.service">
        <lane id="-658595446#2_0" index="0" allow="pedestrian delivery bicycle" speed="5.56" length="5.25" shape="337.73,497.37 336.96,495.04"/>
    </edge>
    <edge id="102997069" from="1189294010" to="1189293934" priority="20" type="railway.rail" spreadType="center" shape="614.18,311.57 632.85,358.61 653.58,403.50 675.07,442.88 691.23,469.94 712.17,501.42 734.05,531.56 761.80,566.18 780.83,588.48 837.15,644.66 873.97,676.01 908.73,702.57 950.35,730.46 997.20,758.53 1038.82,779.41 1084.05,799.37 1124.86,814.80 1159.88,826.53 1236.98,851.02 1799.34,1026.90 1851.46,1043.97 1897.63,1060.86 1941.76,1080.12 1995.68,1107.39 2029.44,1127.97 2053.80,1143.80 2087.26,1167.41 2148.15,1217.06 2204.74,1274.88 2238.27,1313.61 2267.76,1353.85 2313.22,1424.08">
        <lane id="102997069_0" index="0" allow="rail rail_electric rail_fast" speed="34.72" length="2114.59" shape="614.18,311.57 632.85,358.61 653.58,403.50 675.07,442.88 691.23,469.94 712.17,501.42 734.05,531.56 761.80,566.18 780.83,588.48 837.15,644.66 873.97,676.01 908.73,702.57 950.35,730.46 997.20,758.53 1038.82,779.41 1084.05,799.37 1124.86,814.80 1159.88,826.53 1236.98,851.02 1799.34,1026.90 1851.46,1043.97 1897.63,1060.86 1941.76,1080.12 1995.68,1107.39 2029.44,1127.97 2053.80,1143.80 2087.26,1167.41 2148.15,1217.06 2204.74,1274.88 2238.27,1313.61 2267.76,1353.85 2313.22,1424.08"/>
    </edge>
    <edge id="1096073140#0" from="2890008025" to="2890008017" priority="4" type="highway.unclassified" shape="371.57,546.78 358.21,552.28 346.88,557.78">
        <lane id="1096073140#0_0" index="0" disallow="tram rail_urban rail rail_electric rail_fast ship container cable_car subway aircraft wheelchair scooter drone" speed="13.89" length="27.04" shape="372.04,548.32 358.87,553.74 349.90,558.09"/>
    </edge>
    <edge id="1096073140#1" from="2890008017" to="10037625374" priority="4" type="highway.unclassified">
        <lane id="1096073140#1_0" index="0" disallow="tram rail_urban rail rail_electric rail_fast ship container cable_car subway aircraft wheelchair scooter drone" speed="13.89" length="6.16" shape="345.25,560.35 342.04,561.91"/>
    </edge>
    <edge id="1096073141" from="10037625374" to="112332539" priority="4" type="highway.unclassified" shape="341.34,560.47 324.20,568.79 290.93,584.96 272.09,593.75 253.94,603.09 242.39,609.96 231.76,617.31 209.88,632.08 138.14,683.45 99.91,705.93 90.27,709.23">
        <lane id="1096073141_0" index="0" disallow="tram rail_urban rail rail_electric rail_fast ship container cable_car subway aircraft wheelchair scooter drone" speed="13.89" length="292.78" shape="342.04,561.91 324.90,570.23 291.62,586.41 272.79,595.19 254.72,604.49 243.25,611.31 232.66,618.63 210.79,633.39 139.02,684.80 100.58,707.39 90.79,710.74"/>
    </edge>
    <edge id="1122079184" from="10262717856" to="10262717855" priority="1" type="highway.service">
        <lane id="1122079184_0" index="0" allow="pedestrian delivery bicycle" speed="5.56" length="8.56" shape="674.82,510.98 674.50,514.81"/>
    </edge>
    <edge id="1122079188" from="10262717871" to="10262717870" priority="1" type="highway.footway" spreadType="center">
        <lane id="1122079188_0" index="0" allow="pedestrian" speed="2.78" length="2.15" width="2.00" shape="690.15,532.20 689.99,534.20"/>
    </edge>
    <edge id="1122079189" from="10262717872" to="10262717871" priority="1" type="highway.steps" spreadType="center">
        <lane id="1122079189_0" index="0" allow="pedestrian" speed="1.39" length="14.23" width="2.00" shape="691.15,517.99 690.17,531.91"/>
    </edge>
    <edge id="1122079190" from="10262717874" to="10262717872" priority="1" type="highway.footway" spreadType="center" shape="693.42,516.83 691.21,516.75 691.16,517.86">
        <lane id="1122079190_0" index="0" allow="pedestrian" speed="2.78" length="3.86" width="2.00" shape="694.13,516.86 693.93,516.85"/>
    </edge>
    <edge id="1122079191" from="10262717875" to="10262717874" priority="1" type="highway.steps" spreadType="center">
        <lane id="1122079191_0" index="0" allow="pedestrian" speed="1.39" length="4.90" width="2.00" shape="696.85,516.93 693.57,516.84"/>
    </edge>
    <edge id="1122079192" from="10262717876" to="10262717875" priority="1" type="highway.path">
        <lane id="1122079192_0" index="0" allow="pedestrian bicycle" speed="5.56" length="3.58" width="2.00" shape="698.53,517.99 698.33,517.97"/>
    </edge>
    <edge id="1122079195#0" from="5582587869" to="10262717876" priority="1" type="highway.service">
        <lane id="1122079195#0_0" index="0" allow="pedestrian delivery bicycle" speed="5.56" length="8.47" shape="703.95,513.67 703.91,514.02"/>
    </edge>
    <edge id="1122079195#1" from="10262717876" to="10262717886" priority="1" type="highway.service">
        <lane id="1122079195#1_0" index="0" allow="pedestrian delivery bicycle" speed="5.56" length="3.82" shape="703.36,519.35 703.34,519.55"/>
    </edge>
    <edge id="1221742462" from="6167083702" to="11330956203" priority="1" type="highway.footway" spreadType="center">
        <lane id="1221742462_0" index="0" allow="pedestrian" speed="2.78" length="4.53" width="2.00" shape="333.27,480.37 333.20,480.19"/>
    </edge>
    <edge id="1221742465" from="11330956206" to="3638394039" priority="1" type="highway.footway" spreadType="center">
        <lane id="1221742465_0" index="0" allow="pedestrian" speed="2.78" length="2.56" width="2.00" shape="607.23,494.72 607.23,494.92"/>
    </edge>
    <edge id="1225386536#0" from="11363828410" to="11363828409" priority="1" type="highway.service">
        <lane id="1225386536#0_0" index="0" allow="pedestrian delivery bicycle" speed="5.56" length="4.56" shape="732.04,512.33 732.05,512.53"/>
    </edge>
    <edge id="1225386536#1" from="11363828409" to="11363828407" priority="1" type="highway.service" shape="730.48,513.67 730.69,519.95 735.59,520.44">
        <lane id="1225386536#1_0" index="0" allow="pedestrian delivery bicycle" speed="5.56" length="11.20" shape="732.17,516.25 732.25,518.50 735.75,518.85"/>
    </edge>
    <edge id="12369753#0" from="2062220261" to="11363828410" priority="4" type="highway.unclassified">
        <lane id="12369753#0_0" index="0" disallow="tram rail_urban rail rail_electric rail_fast ship container cable_car subway aircraft wheelchair scooter drone" speed="8.33" length="10.38" shape="723.13,507.94 725.46,507.80"/>
    </edge>
    <edge id="12369753#1" from="11363828410" to="5562301621" priority="4" type="highway.unclassified" shape="730.35,509.11 737.60,508.68 757.16,505.99 847.62,491.97 949.00,475.04 993.93,462.65 1048.42,446.49 1093.46,433.52">
        <lane id="12369753#1_0" index="0" disallow="tram rail_urban rail rail_electric rail_fast ship container cable_car subway aircraft wheelchair scooter drone" speed="8.33" length="371.65" shape="734.85,507.24 737.45,507.09 756.93,504.41 847.37,490.39 948.66,473.47 993.49,461.12 1047.97,444.96 1093.02,431.98"/>
    </edge>
    <edge id="1279971412" from="11881811092" to="4885628518" priority="17" type="railway.tram" spreadType="center" shape="0.00,739.83 2.72,729.18 7.07,718.76 12.86,708.45 16.77,702.77 22.62,695.71 27.50,690.41 33.10,685.31 40.95,679.09 102.81,630.92 161.83,585.19 186.17,566.21 193.01,560.76 219.40,539.73 242.24,524.53 254.25,518.24 273.21,509.16 325.58,485.03 350.45,475.36 375.97,467.39 413.86,458.78 444.91,452.18 471.56,448.08 502.32,444.22 545.94,439.40 627.96,430.30 631.59,429.90 652.66,427.13 681.41,421.54 703.12,416.24 725.81,410.26 743.43,404.08 760.69,396.96 818.73,371.33 833.42,365.18 841.77,361.68 863.47,354.58 878.41,350.95 895.12,347.84 912.76,345.75 949.82,344.59 964.36,342.88 988.50,336.72 1003.08,331.74 1018.83,325.56 1034.57,317.45 1045.27,310.66 1050.61,306.56 1074.03,288.26 1098.03,267.25 1220.18,151.60 1328.71,35.57 1336.25,28.22 1343.73,22.82 1347.51,20.85 1385.33,2.28 1389.38,0.00">
        <lane id="1279971412_0" index="0" allow="tram" speed="8.33" length="1633.78" shape="0.00,739.83 2.72,729.18 7.07,718.76 12.86,708.45 16.77,702.77 22.62,695.71 27.50,690.41 33.10,685.31 40.95,679.09 102.81,630.92 161.83,585.19 186.17,566.21 193.01,560.76 219.40,539.73 242.24,524.53 254.25,518.24 273.21,509.16 325.58,485.03 350.45,475.36 375.97,467.39 413.86,458.78 444.91,452.18 471.56,448.08 502.32,444.22 545.94,439.40 627.96,430.30 631.59,429.90 652.66,427.13 681.41,421.54 703.12,416.24 725.81,410.26 743.43,404.08 760.69,396.96 818.73,371.33 833.42,365.18 841.77,361.68 863.47,354.58 878.41,350.95 895.12,347.84 912.76,345.75 949.82,344.59 964.36,342.88 988.50,336.72 1003.08,331.74 1018.83,325.56 1034.57,317.45 1045.27,310.66 1050.61,306.56 1074.03,288.26 1098.03,267.25 1220.18,151.60 1328.71,35.57 1336.25,28.22 1343.73,22.82 1347.51,20.85 1385.33,2.28 1389.38,0.00"/>
    </edge>
    <edge id="1279971413#0" from="11881811093" to="6167083703" priority="17" type="railway.tram" spreadType="center" shape="1373.51,12.36 1359.34,18.86 1344.65,25.87 1338.16,30.47 1333.98,34.51 1220.28,155.30 1081.95,286.59 1066.59,300.99 1053.44,312.28 1039.33,321.83 1023.63,330.03 1017.47,332.68 1009.02,335.89 994.19,340.83 973.82,345.22 950.02,347.58 912.98,348.74 895.58,350.80 879.04,353.88 864.30,357.47 842.82,364.49 819.93,374.08 761.87,399.71 744.50,406.89 726.70,413.12 703.86,419.13 682.04,424.46 653.31,429.83 632.11,432.53 603.34,435.73 597.64,436.39 558.94,440.91 502.68,447.20 471.97,451.05 445.45,455.14 414.51,461.71 376.75,470.28 351.45,478.19 334.86,484.64">
        <lane id="1279971413#0_0" index="0" allow="tram" speed="8.33" length="1185.99" shape="1373.51,12.36 1359.34,18.86 1344.65,25.87 1338.16,30.47 1333.98,34.51 1220.28,155.30 1081.95,286.59 1066.59,300.99 1053.44,312.28 1039.33,321.83 1023.63,330.03 1017.47,332.68 1009.02,335.89 994.19,340.83 973.82,345.22 950.02,347.58 912.98,348.74 895.58,350.80 879.04,353.88 864.30,357.47 842.82,364.49 819.93,374.08 761.87,399.71 744.50,406.89 726.70,413.12 703.86,419.13 682.04,424.46 653.31,429.83 632.11,432.53 603.34,435.73 597.64,436.39 558.94,440.91 502.68,447.20 471.97,451.05 445.45,455.14 414.51,461.71 376.75,470.28 351.45,478.19 339.29,482.92"/>
    </edge>
    <edge id="1279971413#1" from="6167083703" to="2288259724" priority="17" type="railway.tram" spreadType="center" shape="334.86,484.64 326.76,487.79 322.60,489.71 274.50,511.86 255.61,520.91 243.78,527.11 221.17,542.15 194.62,562.85 159.47,590.25 42.80,681.29 35.18,687.58 30.36,692.02 24.53,698.10 19.66,704.04 15.42,710.07 8.69,722.63 5.56,730.22">
        <lane id="1279971413#1_0" index="0" allow="tram" speed="8.33" length="416.27" shape="330.46,486.35 326.76,487.79 322.60,489.71 274.50,511.86 255.61,520.91 243.78,527.11 221.17,542.15 194.62,562.85 159.47,590.25 42.80,681.29 35.18,687.58 30.36,692.02 24.53,698.10 19.66,704.04 15.42,710.07 8.69,722.63 5.56,730.22"/>
    </edge>
    <edge id="135448935" from="1487640241" to="1487627886" priority="1" type="highway.service">
        <lane id="135448935_0" index="0" allow="pedestrian delivery bicycle" speed="5.56" length="28.27" shape="828.40,551.49 800.14,552.33"/>
    </edge>
    <edge id="171943679#0" from="2062220261" to="5582587869" priority="4" type="highway.unclassified">
        <lane id="171943679#0_0" index="0" disallow="tram rail_urban rail rail_electric rail_fast ship container cable_car subway aircraft wheelchair scooter drone" speed="13.89" length="17.15" shape="717.05,511.17 707.30,510.63"/>
    </edge>
    <edge id="171943679#1" from="5582587869" to="10262717856" priority="4" type="highway.unclassified" shape="702.85,508.78 675.01,506.26 673.63,506.14">
        <lane id="171943679#1_0" index="0" disallow="tram rail_urban rail rail_electric rail_fast ship container cable_car subway aircraft wheelchair scooter drone" speed="13.89" length="29.35" shape="697.98,509.95 678.17,508.15"/>
    </edge>
    <edge id="171943679#2" from="10262717856" to="318914891" priority="4" type="highway.unclassified" shape="673.63,506.14 623.38,502.08 607.18,501.56 600.64,501.78 577.24,503.80 564.00,505.10 555.06,505.93">
        <lane id="171943679#2_0" index="0" disallow="tram rail_urban rail rail_electric rail_fast ship container cable_car subway aircraft wheelchair scooter drone" speed="13.89" length="118.93" shape="668.80,507.36 623.29,503.68 607.18,503.16 600.74,503.37 577.39,505.39 564.15,506.69 557.78,507.28"/>
    </edge>
    <edge id="171943679#3" from="318914891" to="2890008025" priority="4" type="highway.unclassified" shape="555.06,505.93 545.25,507.27 459.27,518.68 417.27,529.32 395.17,537.03 371.57,546.78">
        <lane id="171943679#3_0" index="0" disallow="tram rail_urban rail rail_electric rail_fast ship container cable_car subway aircraft wheelchair scooter drone" speed="13.89" length="188.90" shape="552.74,507.86 545.46,508.85 459.57,520.25 417.73,530.85 395.74,538.52 372.32,548.20"/>
    </edge>
    <edge id="173903184#0" from="1388820605" to="3876472208" priority="3" type="highway.residential" shape="731.37,610.84 688.88,599.44 673.76,596.65 657.87,594.69 619.38,590.67">
        <lane id="173903184#0_0" index="0" disallow="tram rail_urban rail rail_electric rail_fast ship container cable_car subway aircraft wheelchair scooter drone" speed="8.33" length="114.08" shape="730.96,612.39 688.52,601.00 673.52,598.24 657.69,596.28 621.69,592.52"/>
    </edge>
    <edge id="173903184#1" from="3876472208" to="112333972" priority="3" type="highway.residential" shape="619.38,590.67 606.02,589.11 592.17,588.24 578.44,587.73 560.37,587.16 548.36,587.30 511.34,589.52 472.85,595.87 461.07,598.00 449.49,601.26 439.68,603.99 426.74,609.19 387.72,625.45 353.48,639.89 326.02,651.93 312.27,660.29 304.52,664.86 294.39,673.04 283.01,684.86 264.92,708.11 260.04,714.57">
        <lane id="173903184#1_0" index="0" disallow="tram rail_urban rail rail_electric rail_fast ship container cable_car subway aircraft wheelchair scooter drone" speed="8.33" length="396.87" shape="616.62,591.96 605.87,590.70 592.09,589.84 578.39,589.32 560.36,588.76 548.42,588.90 511.51,591.12 473.12,597.44 461.43,599.56 449.92,602.80 440.20,605.51 427.34,610.67 388.34,626.93 354.11,641.36 326.76,653.35 313.09,661.66 305.44,666.18 295.47,674.22 284.22,685.91 266.19,709.09 261.31,715.53"/>
    </edge>
    <edge id="182380266" from="6167083694" to="2986359964" priority="1" type="highway.footway" spreadType="center">
        <lane id="182380266_0" index="0" allow="pedestrian" speed="2.78" length="3.44" width="2.00" shape="328.54,497.58 328.62,497.76"/>
    </edge>
    <edge id="195801654" from="2062220263" to="10262717877" priority="1" type="highway.steps" spreadType="center" shape="723.86,518.74 717.73,518.56 708.93,542.17 699.75,567.91 691.29,594.24">
        <lane id="195801654_0" index="0" allow="pedestrian" speed="1.39" length="86.32" width="2.00" shape="723.86,518.74 717.73,518.56 708.93,542.17 699.75,567.91 691.29,594.24"/>
    </edge>
    <edge id="195801656" from="2062220259" to="2062220260" priority="1" type="highway.steps" spreadType="center" shape="721.38,493.69 721.34,500.90 720.80,504.79">
        <lane id="195801656_0" index="0" allow="pedestrian" speed="1.39" length="11.14" width="2.00" shape="721.38,493.85 721.34,500.90 721.16,502.15"/>
    </edge>
    <edge id="195801658#0" from="2062220260" to="2062220261" priority="1" type="highway.footway" spreadType="center">
        <lane id="195801658#0_0" index="0" allow="pedestrian" speed="2.78" length="5.01" width="2.00" shape="720.60,506.00 720.57,506.20"/>
    </edge>
    <edge id="195801658#1" from="2062220261" to="2062220262" priority="1" type="highway.footway" spreadType="center">
        <lane id="195801658#1_0" index="0" allow="pedestrian" speed="2.78" length="3.45" width="2.00" shape="719.54,512.44 719.50,512.64"/>
    </edge>
    <edge id="195801659" from="2062220256" to="2062220259" priority="1" type="highway.footway" spreadType="center" shape="738.04,457.62 731.13,465.43 725.28,482.41 721.38,493.69">
        <lane id="195801659_0" index="0" allow="pedestrian" speed="2.78" length="40.32" width="2.00" shape="738.04,457.62 731.13,465.43 725.28,482.41 721.43,493.53"/>
    </edge>
    <edge id="285333380" from="2890008021" to="5888525689" priority="1" type="highway.steps" spreadType="center">
        <lane id="285333380_0" index="0" allow="pedestrian" speed="1.39" length="65.63" width="2.00" shape="363.31,563.18 385.54,619.89"/>
    </edge>
    <edge id="285333381" from="6167118973" to="5637859872" priority="1" type="highway.steps" spreadType="center" shape="300.02,427.39 312.35,454.77 316.54,463.38 321.77,484.17">
        <lane id="285333381_0" index="0" allow="pedestrian" speed="1.39" length="61.04" width="2.00" shape="300.02,427.39 312.35,454.77 316.54,463.38 321.12,481.55"/>
    </edge>
    <edge id="285333384" from="2890008018" to="5635232686" priority="1" type="highway.footway" spreadType="center" shape="352.11,535.93 349.91,540.14 350.65,541.24 357.50,539.88 358.99,540.65 358.63,542.20 351.19,548.03 352.32,550.28">
        <lane id="285333384_0" index="0" allow="pedestrian" speed="2.78" length="28.31" width="2.00" shape="351.90,536.33 349.91,540.14 350.65,541.24 357.50,539.88 358.99,540.65 358.63,542.20 351.19,548.03 351.29,548.23"/>
    </edge>
    <edge id="291785270" from="10108152745" to="5635232702" priority="1" type="highway.steps" spreadType="center">
        <lane id="291785270_0" index="0" allow="pedestrian" speed="1.39" length="41.63" width="2.00" shape="555.07,450.53 557.56,491.93"/>
    </edge>