<?xml version="1.0" encoding="UTF-8"?>

<!-- generated on 10.12.2018 12:39:05 by Eclipse SUMO netedit Version v1_0_0+1208-d42a3cd999
<configuration xmlns:xsi="http://www.w3.org/2001/XMLSchema-instance" xsi:noNamespaceSchemaLocation="http://sumo.dlr.de/xsd/netconvertConfiguration.xsd">

    <input>
        <sumo-net-file value="C:/Users/alva_pa/.texttest/tmp/netedit.gui.10Dec123754.8076/netedit.gui/additionalElements/parkingarea/load/friendlypos\input_net.net.xml"/>
    </input>

    <output>
        <output-file value="C:/Users/alva_pa/.texttest/tmp/netedit.gui.10Dec123754.8076/netedit.gui/additionalElements/parkingarea/load/friendlypos\net.net.xml"/>
    </output>

    <processing>
        <geometry.max-grade.fix value="false"/>
        <offset.disable-normalization value="true"/>
        <lefthand value="false"/>
    </processing>

    <junctions>
        <no-turnarounds value="true"/>
        <junctions.corner-detail value="5"/>
        <junctions.limit-turn-speed value="5.5"/>
        <rectangular-lane-cut value="false"/>
    </junctions>

    <pedestrian>
        <walkingareas value="false"/>
    </pedestrian>

    <netedit>
        <sumo-additionals-file value="C:/Users/alva_pa/.texttest/tmp/netedit.gui.10Dec123754.8076/netedit.gui/additionalElements/parkingarea/load/friendlypos\input_additionals.add.xml"/>
        <additionals-output value="C:/Users/alva_pa/.texttest/tmp/netedit.gui.10Dec123754.8076/netedit.gui/additionalElements/parkingarea/load/friendlypos\additionals.xml"/>
        <shapes-output value="C:/Users/alva_pa/.texttest/tmp/netedit.gui.10Dec123754.8076/netedit.gui/additionalElements/parkingarea/load/friendlypos\shapes.xml"/>
    </netedit>

    <visualisation>
        <gui-settings-file value="C:/Users/alva_pa/.texttest/tmp/netedit.gui.10Dec123754.8076/netedit.gui/additionalElements/parkingarea/load/friendlypos\gui-settings.xml"/>
        <window-size value="700,500"/>
        <window-pos value="50,50"/>
        <gui-testing value="true"/>
        <gui-testing-debug value="true"/>
        <gui-testing-debug-gl value="true"/>
    </visualisation>

    <report>
        <no-warnings value="true"/>
        <error-log value="C:/Users/alva_pa/.texttest/tmp/netedit.gui.10Dec123754.8076/netedit.gui/additionalElements/parkingarea/load/friendlypos\log.txt"/>
    </report>

</configuration>
-->

<additional xmlns:xsi="http://www.w3.org/2001/XMLSchema-instance" xsi:noNamespaceSchemaLocation="http://sumo.dlr.de/xsd/additional_file.xsd">
    <parkingArea id="parkingArea_0" width="12.00" length="5.00" lane="gneE0_0" startPos="5.00" endPos="10.00"/>
    <parkingArea id="parkingArea_1" name="parkingArea" width="12.00" length="5.00" lane="gneE1_0" friendlyPos="1" startPos="30.00" endPos="40.00"/>
    <parkingArea id="parkingArea_2" name="parkingArea" width="12.00" length="5.00" lane="gneE1_0" friendlyPos="1" startPos="49.90" endPos="50.00"/>
    <parkingArea id="parkingArea_3" name="parkingArea" width="12.00" length="5.00" lane="gneE1_0" friendlyPos="1" startPos="19.90" endPos="20.00"/>
    <parkingArea id="parkingArea_4" name="parkingArea" width="12.00" length="5.00" lane="gneE1_0" friendlyPos="1" startPos="19.90" endPos="20.00"/>
</additional>
