<?xml version="1.0" encoding="UTF-8"?>

<!-- generated on 2022-04-12 12:58:33 by Eclipse SUMO netedit Version v1_12_0+2097-a9d6d94fee1
-->

<routes xmlns:xsi="http://www.w3.org/2001/XMLSchema-instance" xsi:noNamespaceSchemaLocation="http://sumo.dlr.de/xsd/routes_file.xsd">
    <!-- Vehicles, persons and containers (sorted by depart) -->
    <flow id="customID" begin="0.00" from="gneE2" to="gneE5" end="3600.00" vehsPerHour="1800.00"/>
    <flow id="duplicatedVehicle" begin="0.00" from="gneE4" to="gneE5" end="3600.00" vehsPerHour="1800.00"/>
</routes>
