<?xml version="1.0"?>

<!-- generated on 09/03/07 15:07:52 by SUMO sumo Version 0.9.6
<configuration>

   <input>
      <net-file>net.net.xml</net-file>
      <route-files>input_routes.rou.xml</route-files>
      <additional-files>input_additional.add.xml</additional-files>
   </input>

   <time>
      <begin>0</begin>
      <end>400</end>
   </time>

   <processing>
      <no-duration-log>true</no-duration-log>
      <no-step-log>true</no-step-log>
   </processing>

</configuration>
-->

<tls-switch-states>
   <tlsstate time="0" id="0" subid="0">GGGGRRRRGGGGRRRR</tlsstate>
   <tlsstate time="20" id="0" subid="0">YYGGRRRRYYGGRRRR</tlsstate>
   <tlsstate time="24" id="0" subid="0">RRGGRRRRRRGGRRRR</tlsstate>
   <tlsstate time="27" id="0" subid="0">RRYYRRRRRRYYRRRR</tlsstate>
   <tlsstate time="31" id="0" subid="0">RRRRGGGGRRRRGGGG</tlsstate>
   <tlsstate time="51" id="0" subid="0">RRRRYYGGRRRRYYGG</tlsstate>
   <tlsstate time="55" id="0" subid="0">RRRRRRGGRRRRRRGG</tlsstate>
   <tlsstate time="58" id="0" subid="0">RRRRRRYYRRRRRRYY</tlsstate>
   <tlsstate time="62" id="0" subid="0">GGGGRRRRGGGGRRRR</tlsstate>
   <tlsstate time="82" id="0" subid="0">YYGGRRRRYYGGRRRR</tlsstate>
   <tlsstate time="86" id="0" subid="0">RRGGRRRRRRGGRRRR</tlsstate>
   <tlsstate time="89" id="0" subid="0">RRYYRRRRRRYYRRRR</tlsstate>
   <tlsstate time="93" id="0" subid="0">RRRRGGGGRRRRGGGG</tlsstate>
   <tlsstate time="100" id="0" subid="S1">GGGGRRRRGGGGRRRR</tlsstate>
</tls-switch-states>
