<?xml version="1.0" encoding="UTF-8"?>

<!-- generated on 2023-11-10 15:21:30 by Eclipse SUMO netedit Version v1_19_0+0072-041d30c218b
-->

<routes xmlns:xsi="http://www.w3.org/2001/XMLSchema-instance" xsi:noNamespaceSchemaLocation="http://sumo.dlr.de/xsd/routes_file.xsd">
    <!-- Vehicles, persons and containers (sorted by depart) -->
    <flow id="flow" begin="0.00" from="Edge0" to="Edge2" end="36.00" number="18">
        <stop chargingStation="chargingStationA" duration="60.00"/>
    </flow>
</routes>
