<?xml version="1.0" encoding="UTF-8"?>

<!-- generated on 2022-02-18 13:21:40 by Eclipse SUMO duarouter Version v1_12_0+0671-fa0d9f5
This data file and the accompanying materials
are made available under the terms of the Eclipse Public License v2.0
which accompanies this distribution, and is available at
http://www.eclipse.org/legal/epl-v20.html
This file may also be made available under the following Secondary
Licenses when the conditions for such availability set forth in the Eclipse
Public License 2.0 are satisfied: GNU General Public License, version 2
or later which is available at
https://www.gnu.org/licenses/old-licenses/gpl-2.0-standalone.html
SPDX-License-Identifier: EPL-2.0 OR GPL-2.0-or-later
<configuration xmlns:xsi="http://www.w3.org/2001/XMLSchema-instance" xsi:noNamespaceSchemaLocation="http://sumo.dlr.de/xsd/duarouterConfiguration.xsd">

    <input>
        <net-file value="input_net.net.xml"/>
        <route-files value="input_routes.rou.xml"/>
    </input>

    <output>
        <output-file value="routes.rou.xml"/>
        <write-license value="true"/>
        <alternatives-output value="routes.rou.alt.xml"/>
    </output>

    <processing>
        <randomize-flows value="true"/>
    </processing>

    <report>
        <xml-validation value="never"/>
        <xml-validation.routes value="never"/>
        <no-step-log value="true"/>
    </report>

</configuration>
-->

<routes xmlns:xsi="http://www.w3.org/2001/XMLSchema-instance" xsi:noNamespaceSchemaLocation="http://sumo.dlr.de/xsd/routes_file.xsd">
    <person id="p.4" depart="1.80">
        <walk edges="beg middle end"/>
    </person>
    <person id="p.3" depart="2.58">
        <walk edges="beg middle end"/>
    </person>
    <person id="p.2" depart="6.73">
        <walk edges="beg middle end"/>
    </person>
    <person id="p.1" depart="9.51">
        <walk edges="beg middle end"/>
    </person>
    <person id="p.0" depart="9.65">
        <walk edges="beg middle end"/>
    </person>
</routes>
