<?xml version="1.0" encoding="UTF-8"?>

<!-- generated on 2025-10-04 10:55:07.435137 by Eclipse SUMO tazRel2POI.py v1_24_0+1141-67b960968ae
<configuration>
    <taz-file value="input_districts.xml"/>
    <taz-relation-file value="input_tazrel.xml"/>
    <output-file value="pois.add.xml"/>
    <size-metric value="out"/>
</configuration>
-->

<additional xmlns:xsi="http://www.w3.org/2001/XMLSchema-instance" xsi:noNamespaceSchemaLocation="http://sumo.dlr.de/xsd/additional_file.xsd">
    <poi id="0_2" x="7.12" y="842.71" width="44.0">
        <param key="in" value="29.0"/>
        <param key="out" value="44.0"/>
        <param key="all" value="73.0"/>
    </poi>
    <poi id="0_3" x="0.0" y="1200.0" width="19.0">
        <param key="in" value="23.0"/>
        <param key="out" value="19.0"/>
        <param key="all" value="42.0"/>
    </poi>
    <poi id="1_2" x="400.0" y="800.0" width="483.0">
        <param key="in" value="505.0"/>
        <param key="out" value="483.0"/>
        <param key="all" value="988.0"/>
    </poi>
    <poi id="1_3" x="400.0" y="1200.0" width="516.0">
        <param key="in" value="540.0"/>
        <param key="out" value="516.0"/>
        <param key="all" value="1056.0"/>
    </poi>
    <poi id="1_4" x="400.0" y="1600.0" width="532.0">
        <param key="in" value="502.0"/>
        <param key="out" value="532.0"/>
        <param key="all" value="1034.0"/>
    </poi>
    <poi id="1_5" x="400.0" y="2000.0" width="33.0">
        <param key="in" value="24.0"/>
        <param key="out" value="33.0"/>
        <param key="all" value="57.0"/>
    </poi>
    <poi id="2_2" x="800.0" y="800.0" width="784.0">
        <param key="in" value="777.0"/>
        <param key="out" value="784.0"/>
        <param key="all" value="1561.0"/>
    </poi>
    <poi id="2_3" x="800.0" y="1200.0" width="336.0">
        <param key="in" value="318.0"/>
        <param key="out" value="336.0"/>
        <param key="all" value="654.0"/>
    </poi>
    <poi id="2_4" x="800.0" y="1600.0" width="561.0">
        <param key="in" value="603.0"/>
        <param key="out" value="561.0"/>
        <param key="all" value="1164.0"/>
    </poi>
    <poi id="2_5" x="800.0" y="2000.0" width="144.0">
        <param key="in" value="127.0"/>
        <param key="out" value="144.0"/>
        <param key="all" value="271.0"/>
    </poi>
    <poi id="3_1" x="1200.0" y="400.0" width="267.0">
        <param key="in" value="271.0"/>
        <param key="out" value="267.0"/>
        <param key="all" value="538.0"/>
    </poi>
    <poi id="3_2" x="1200.0" y="800.0" width="674.0">
        <param key="in" value="695.0"/>
        <param key="out" value="674.0"/>
        <param key="all" value="1369.0"/>
    </poi>
    <poi id="3_3" x="1200.0" y="1200.0" width="629.0">
        <param key="in" value="630.0"/>
        <param key="out" value="629.0"/>
        <param key="all" value="1259.0"/>
    </poi>
    <poi id="3_4" x="1200.0" y="1600.0" width="347.0">
        <param key="in" value="354.0"/>
        <param key="out" value="347.0"/>
        <param key="all" value="701.0"/>
    </poi>
    <poi id="4_0" x="1600.0" y="0.0" width="220.0">
        <param key="in" value="199.0"/>
        <param key="out" value="220.0"/>
        <param key="all" value="419.0"/>
    </poi>
    <poi id="4_1" x="1600.0" y="400.0" width="453.0">
        <param key="in" value="437.0"/>
        <param key="out" value="453.0"/>
        <param key="all" value="890.0"/>
    </poi>
    <poi id="4_2" x="1600.0" y="800.0" width="480.0">
        <param key="in" value="435.0"/>
        <param key="out" value="480.0"/>
        <param key="all" value="915.0"/>
    </poi>
    <poi id="4_3" x="1600.0" y="1200.0" width="310.0">
        <param key="in" value="345.0"/>
        <param key="out" value="310.0"/>
        <param key="all" value="655.0"/>
    </poi>
    <poi id="4_4" x="1600.0" y="1600.0" width="129.0">
        <param key="in" value="145.0"/>
        <param key="out" value="129.0"/>
        <param key="all" value="274.0"/>
    </poi>
    <poi id="5_1" x="2000.0" y="400.0" width="86.0">
        <param key="in" value="92.0"/>
        <param key="out" value="86.0"/>
        <param key="all" value="178.0"/>
    </poi>
    <poi id="5_2" x="2000.0" y="800.0" width="153.0">
        <param key="in" value="149.0"/>
        <param key="out" value="153.0"/>
        <param key="all" value="302.0"/>
    </poi>
</additional>
