<?xml version="1.0" encoding="UTF-8"?>

<!-- generated on 2022-07-11 13:17:55.212352 by randomTrips.py v1_13_0+1473-c6298c0b157
<configuration>
    <insertion-density value="10.0"/>
    <net-file value="net.net.xml"/>
</configuration>
-->

<routes xmlns:xsi="http://www.w3.org/2001/XMLSchema-instance" xsi:noNamespaceSchemaLocation="http://sumo.dlr.de/xsd/routes_file.xsd">
    <trip id="0" depart="0.00" from="3si" to="1o"/>
    <trip id="1" depart="62.13" from="2fi" to="1si"/>
    <trip id="2" depart="124.26" from="3si" to="3si"/>
    <trip id="3" depart="186.39" from="4si" to="1o"/>
    <trip id="4" depart="248.52" from="2si" to="1o"/>
    <trip id="5" depart="310.64" from="1si" to="3o"/>
    <trip id="6" depart="372.77" from="1fi" to="1si"/>
    <trip id="7" depart="434.90" from="3si" to="3o"/>
    <trip id="8" depart="497.03" from="1si" to="3o"/>
    <trip id="9" depart="559.16" from="4fi" to="1o"/>
    <trip id="10" depart="621.29" from="4fi" to="3si"/>
    <trip id="11" depart="683.42" from="2fi" to="1si"/>
    <trip id="12" depart="745.55" from="4si" to="2o"/>
    <trip id="13" depart="807.68" from="1fi" to="1o"/>
    <trip id="14" depart="869.81" from="4fi" to="3o"/>
    <trip id="15" depart="931.93" from="4fi" to="3si"/>
    <trip id="16" depart="994.06" from="3fi" to="4si"/>
    <trip id="17" depart="1056.19" from="2si" to="3o"/>
    <trip id="18" depart="1118.32" from="4fi" to="3o"/>
    <trip id="19" depart="1180.45" from="4fi" to="3o"/>
    <trip id="20" depart="1242.58" from="3si" to="1o"/>
    <trip id="21" depart="1304.71" from="1si" to="2o"/>
    <trip id="22" depart="1366.84" from="1fi" to="1si"/>
    <trip id="23" depart="1428.97" from="1fi" to="2o"/>
    <trip id="24" depart="1491.09" from="3si" to="2o"/>
    <trip id="25" depart="1553.22" from="2fi" to="1si"/>
    <trip id="26" depart="1615.35" from="2fi" to="4si"/>
    <trip id="27" depart="1677.48" from="3si" to="3o"/>
    <trip id="28" depart="1739.61" from="1si" to="3si"/>
    <trip id="29" depart="1801.74" from="1si" to="2si"/>
    <trip id="30" depart="1863.87" from="4si" to="3si"/>
    <trip id="31" depart="1926.00" from="3fi" to="3si"/>
    <trip id="32" depart="1988.13" from="4fi" to="4o"/>
    <trip id="33" depart="2050.26" from="1si" to="1o"/>
    <trip id="34" depart="2112.38" from="2fi" to="2o"/>
    <trip id="35" depart="2174.51" from="1si" to="4si"/>
    <trip id="36" depart="2236.64" from="4si" to="2o"/>
    <trip id="37" depart="2298.77" from="3si" to="2si"/>
    <trip id="38" depart="2360.90" from="4si" to="2si"/>
    <trip id="39" depart="2423.03" from="2fi" to="1si"/>
    <trip id="40" depart="2485.16" from="3fi" to="2o"/>
    <trip id="41" depart="2547.29" from="3fi" to="4si"/>
    <trip id="42" depart="2609.42" from="2si" to="1si"/>
    <trip id="43" depart="2671.54" from="4si" to="3o"/>
    <trip id="44" depart="2733.67" from="1fi" to="1o"/>
    <trip id="45" depart="2795.80" from="1fi" to="3si"/>
    <trip id="46" depart="2857.93" from="4fi" to="2si"/>
    <trip id="47" depart="2920.06" from="1fi" to="2si"/>
    <trip id="48" depart="2982.19" from="4si" to="3o"/>
    <trip id="49" depart="3044.32" from="4si" to="4o"/>
    <trip id="50" depart="3106.45" from="1fi" to="3si"/>
    <trip id="51" depart="3168.58" from="3si" to="3o"/>
    <trip id="52" depart="3230.71" from="2fi" to="3si"/>
    <trip id="53" depart="3292.83" from="1fi" to="2si"/>
    <trip id="54" depart="3354.96" from="2si" to="4si"/>
    <trip id="55" depart="3417.09" from="4si" to="2o"/>
    <trip id="56" depart="3479.22" from="3fi" to="1si"/>
    <trip id="57" depart="3541.35" from="4si" to="4o"/>
</routes>
