<edges>

	<edge id="1" xfrom="0" yfrom="0" xto="100" yto="0" nolanes="3" speed="28.">
		<split lanes="1 2" pos="0"/>
		<split lanes="0 1 2" pos="50"/>
	</edge>

</edges>




