<?xml version="1.0" encoding="UTF-8"?>

<!-- generated on 2022-01-20 11:39:48 by Eclipse SUMO netedit Version v1_11_0+1305-0448234e9dc
-->

<additional xmlns:xsi="http://www.w3.org/2001/XMLSchema-instance" xsi:noNamespaceSchemaLocation="http://sumo.dlr.de/xsd/additional_file.xsd">
    <busStop id="bs_0" lane="gneE0_0" startPos="16.00" endPos="26.00"/>
</additional>
