<edges xmlns:xsi="http://www.w3.org/2001/XMLSchema-instance" xsi:noNamespaceSchemaLocation="http://sumo-sim.org/xsd/edges_file.xsd">
    <edge id="beg" speed="27.80" from="beg" to="center"/>
    <edge id="middle" speed="27.80" from="center" to="c2"/>
    <edge id="end" speed="27.80" from="c2" to="end"/>
</edges>

