<?xml version="1.0" encoding="UTF-8"?>

<!-- generated on Thu Mar 26 16:23:52 2015 by SUMO netconvert Version dev-SVN-r18156I
<?xml version="1.0" encoding="UTF-8"?>

<configuration xmlns:xsi="http://www.w3.org/2001/XMLSchema-instance" xsi:noNamespaceSchemaLocation="http://sumo.dlr.de/xsd/netconvertConfiguration.xsd">

    <input>
        <osm-files value="./polyconvert/typemap/osm_ambiguous_type/osm.xml"/>
    </input>

    <output>
        <output-file value="./polyconvert/typemap/osm_ambiguous_type/input_net.net.xml"/>
    </output>

    <projection>
        <proj.utm value="true"/>
    </projection>

    <processing>
        <no-internal-links value="true"/>
    </processing>

    <report>
        <verbose value="true"/>
    </report>

</configuration>
-->

<net version="0.13" xmlns:xsi="http://www.w3.org/2001/XMLSchema-instance" xsi:noNamespaceSchemaLocation="http://sumo.dlr.de/xsd/net_file.xsd">

    <location netOffset="-606096.01,-5781161.13" convBoundary="0.00,0.00,75.97,23.33" origBoundary="10.551405,52.170720,10.552523,52.170915" projParameter="+proj=utm +zone=32 +ellps=WGS84 +datum=WGS84 +units=m +no_defs"/>

    <edge id="0" from="247376524" to="246561357" priority="1" type="highway.footway" spreadType="center" shape="75.97,23.33 36.80,11.30 0.00,0.00">
        <lane id="0_0" index="0" allow="pedestrian" speed="2.78" length="79.47" shape="75.97,23.33 36.80,11.30 0.00,0.00"/>
    </edge>

    <junction id="246561357" type="unregulated" x="0.00" y="0.00" incLanes="0_0" intLanes="" shape="-0.47,1.53 0.47,-1.53"/>
    <junction id="247376524" type="unregulated" x="75.97" y="23.33" incLanes="" intLanes="" shape="76.44,21.80 75.50,24.86"/>

</net>
