<?xml version="1.0" encoding="UTF-8"?>

<!-- generated on Tue Feb 26 13:51:19 2013 by SUMO polyconvert Version dev-SVN-r13402
<?xml version="1.0" encoding="UTF-8"?>

<configuration xmlns:xsi="http://www.w3.org/2001/XMLSchema-instance" xsi:noNamespaceSchemaLocation="http://sumo.sf.net/xsd/polyconvertConfiguration.xsd">

    <input>
        <net-file value="input_net.net.xml"/>
        <osm-files value="osm.xml"/>
        <type-file value="typemap.xml"/>
    </input>

    <output>
        <output-file value="pois.poi.xml"/>
    </output>

    <report>
        <verbose value="true"/>
    </report>

</configuration>
-->

<shapes>
    <poly id="0" type="admin_level.10" color="0.82,0.82,0.80" fill="0" layer="-11.00" shape="12826.88,1931.03 12787.71,1919.00 12750.92,1907.70"/>
    <poly id="0#1" type="boundary.administrative" color="0.50,0.00,0.20" fill="0" layer="-12.00" shape="12826.88,1931.03 12787.71,1919.00 12750.92,1907.70"/>
    <poly id="1" type="unknown" color="0.20,0.50,1.00" fill="0" layer="-1.00" shape="12826.88,1931.03 12787.71,1919.00 12750.92,1907.70"/>
</shapes>
