<?xml version="1.0" encoding="UTF-8"?>

<!-- generated on 09.08.2019 16:04:38 by Eclipse SUMO netedit Version v1_2_0+1516-9ccee75372
-->

<additional xmlns:xsi="http://www.w3.org/2001/XMLSchema-instance" xsi:noNamespaceSchemaLocation="http://sumo.dlr.de/xsd/additional_file.xsd">
    <busStop id="busStop" lane="gneE5_0" startPos="20" endPos="30"/>
</additional>
