<?xml version="1.0"?>
<routes>
   <vtype model="SUMO_KRAUSS" id="0" accel="2.60" decel="4.50" sigma="0.5" length="3" minGap="2" maxspeed="70.00" tau="1.00"/>
</routes>
