<routes xmlns:xsi="http://www.w3.org/2001/XMLSchema-instance" xsi:noNamespaceSchemaLocation="http://sumo.dlr.de/xsd/routes_file.xsd">

<vType id="bicycle" vClass="bicycle"/>
<vType id="truck" vClass="truck" />
<vType id="passenger" vClass="passenger" />

<route id="NE" edges="NS1 WE2"/>  
<route id="NW" edges="NS1 EW2"/>  
<route id="NS" edges="NS1 NS2"/>  
<route id="SE" edges="SN1 WE2"/>  
<route id="SW" edges="SN1 EW2"/>  
<route id="SN" edges="SN1 SN2"/>  
<route id="WN" edges="WE1 SN2"/>  
<route id="WS" edges="WE1 NS2"/>  
<route id="WE" edges="WE1 WE2"/>  
<route id="EN" edges="EW1 SN2"/>  
<route id="ES" edges="EW1 NS2"/>  
<route id="EW" edges="EW1 EW2"/>  


<vehicle id="ES1" type="bicycle" route="ES" depart="0">
    <stop lane=":C_2_0" endPos="21" duration="100" />
</vehicle>
<vehicle id="SN1" type="bicycle" route="SN" depart="0">
    <stop lane=":C_8_0" endPos="27" duration="20" />
</vehicle>

</routes>
