<?xml version="1.0"?>

<!-- generated on 10/20/09 22:38:05 by SUMO sumo Version dev-SVN-r7871
<configuration>

    <input>
        <net-file value="net.net.xml"/>
        <additional-files value="input_routes.rou.xml,input_additional.add.xml,input_additional2.add.xml"/>
    </input>

    <time>
        <begin value="0"/>
        <end value="150"/>
    </time>

    <report>
        <no-duration-log value="true"/>
        <no-step-log value="true"/>
    </report>

</configuration>
-->

<netstats>
   <interval begin="0" end="60" id="dump_60">
      <edge id="3/1to2/1" traveltime="39.05" sampledSeconds="29.95" density="1.28" occupancy="0.64" noStops="0" speed="10.00" entered="1" emitted="0" left="0" flow="46.02"/>
      <edge id="4/1to3/1" traveltime="39.05" sampledSeconds="29.05" density="1.24" occupancy="0.62" noStops="0" speed="10.00" entered="0" emitted="1" left="1" flow="44.64"/>
   </interval>
   <interval begin="60" end="120" id="dump_60">
      <edge id="1/1to0/1" traveltime="39.05" sampledSeconds="0.85" density="0.04" occupancy="0.02" noStops="0" speed="10.00" entered="1" emitted="0" left="1" flow="1.31"/>
      <edge id="2/1to1/1" traveltime="39.05" sampledSeconds="39.05" density="1.67" occupancy="0.83" noStops="0" speed="10.00" entered="1" emitted="0" left="1" flow="60.00"/>
      <edge id="3/1to2/1" traveltime="39.05" sampledSeconds="9.10" density="0.39" occupancy="0.19" noStops="0" speed="10.00" entered="0" emitted="0" left="1" flow="13.98"/>
   </interval>
   <interval begin="120" end="150" id="dump_60">
   </interval>
</netstats>
