<routes xmlns:xsi="http://www.w3.org/2001/XMLSchema-instance" xsi:noNamespaceSchemaLocation="http://sumo.dlr.de/xsd/routes_file.xsd">
    <vType id="car" sigma="0"/>
    <route id="r1" edges="a b"/>
    <vehicle id="lead2" type="car" depart="0" route="r1" departSpeed="max" departLane="1" speedFactor="0.8"/>
    <vehicle id="lead1" type="car" depart="3" route="r1" departSpeed="max" departLane="1" speedFactor="1"/>
    <vehicle id="ego" type="car" depart="6" route="r1" departSpeed="max" departLane="1" speedFactor="1.2"/>
</routes>
