<routes xmlns:xsi="http://www.w3.org/2001/XMLSchema-instance" xsi:noNamespaceSchemaLocation="https://sumo.dlr.de/xsd/routes_file.xsd">

<vType id="bicycle" vClass="bicycle" laneChangeModel="SL2015" lcAssertive="1" lcImpatience="1" lcTimeToImpatience="1" accel="0.5" decel="1.0" latAlignment="compact" lcTurnAlignmentDistance="10" sigma="0" length="2" minGap="1" maxSpeed="6" speedFactor="1.2" speedDev="0.4" color="0,1,0" guiShape="bicycle"/>
<vType id="bicycle_bikeboxleft" vClass="bicycle" laneChangeModel="SL2015" lcAssertive="1" lcImpatience="1" lcTimeToImpatience="1" accel="0.5" decel="1.0" latAlignment="compact" lcTurnAlignmentDistance="10" sigma="0" length="2" minGap="1" maxSpeed="6" speedFactor="1.2" speedDev="0.4" color="0,1,0" guiShape="bicycle"/>
<vType id="delivery" vClass="delivery" laneChangeModel="SL2015" latAlignment="center" lcTurnAlignmentDistance="25" accel="0.8" decel="5.0" sigma="0.5" tau="1.5" length="10" minGap="3.0" maxSpeed="25" speedFactor="0.8" speedDev="0.1" guiShape="delivery"/>
<vType id="passenger" vClass="passenger" laneChangeModel="SL2015" latAlignment="center" lcTurnAlignmentDistance="50" accel="1.5" decel="8.0" sigma="0.5" tau="1.0" length="5" minGap="1.5" maxSpeed="45" speedFactor="1.05" speedDev="0.1" guiShape="passenger"/>
<vType id="passenger_bike_box_left" vClass="passenger" laneChangeModel="SL2015" latAlignment="center" lcTurnAlignmentDistance="50" accel="1.5" decel="8.0" sigma="0.5" tau="1.0" length="5" minGap="1.5" maxSpeed="45" speedFactor="1.05" speedDev="0.1" guiShape="passenger"/>
<vType id="passenger_bike_box_straightright" vClass="passenger" laneChangeModel="SL2015" latAlignment="center" lcTurnAlignmentDistance="50" accel="1.5" decel="8.0" sigma="0.5" tau="1.0" length="5" minGap="1.5" maxSpeed="45" speedFactor="1.05" speedDev="0.1" guiShape="passenger"/>


<route id="SN" edges="SN1 SN2"/>  
    <vehicle id="SN_bike" type="bicycle" route="SN" depart="0" departLane="0" departPos="-5">
        <stop lane=":C_8_0" endPos="23" duration="300" />    
    </vehicle>

<route id="WN" edges="WE1 SN2"/>  
    <vehicle id="WN_passenger" type="passenger" route="WN" depart="70" departLane="2" departPos="-5"/>

<route id="EW" edges="EW1 EW2"/>  
    <vehicle id="EW_bike" type="bicycle" route="EW" depart="70" departLane="0" departPos="-5"/>







</routes>
