<?xml version="1.0" encoding="UTF-8"?>

<!-- generated on 2024-01-11 11:41:57.470702 by stationDistricts.py v1_19_0+0600-ff1c1c26d16
<configuration>
    <net-file value="input_net.net.xml"/>
    <stop-file value="input_additional.add.xml"/>
    <output value="out2.add.xml"/>
    <split-output value="out.add.xml"/>
</configuration>
-->

<edges xmlns:xsi="http://www.w3.org/2001/XMLSchema-instance" xsi:noNamespaceSchemaLocation="http://sumo.dlr.de/xsd/edgediff_file.xsd">
    <edge id="248740648#4">
        <split pos="1425.1746095575097" id="248740648#4.1425"/>
    </edge>
    <edge id="441932173#3">
        <split pos="1802.675321434127" id="441932173#3.1802"/>
    </edge>
</edges>
