<?xml version="1.0" encoding="UTF-8"?>

<!-- generated on Tue 24 Jul 2012 02:13:05 PM CEST by Netedit Version dev-SVN-r12491
<?xml version="1.0" encoding="UTF-8"?>

<configuration xmlns:xsi="http://www.w3.org/2001/XMLSchema-instance" xsi:noNamespaceSchemaLocation="http://sumo.dlr.de/xsd/netedit.exeConfiguration.xsd">

    <output>
        <plain-output-prefix value="/home/erdm_ja/delphi-extern/sumo/tests/netconvert/bugs/ticket731/input_plain"/>
    </output>

    <processing>
        <no-turnarounds value="true"/>
        <offset.disable-normalization value="true"/>
    </processing>

</configuration>
-->

<nodes version="0.13" xmlns:xsi="http://www.w3.org/2001/XMLSchema-instance" xsi:noNamespaceSchemaLocation="http://sumo.dlr.de/xsd/nodes_file.xsd">
    <location netOffset="0.00,0.00" convBoundary="10000000000.00,10000000000.00,-10000000000.00,-10000000000.00" origBoundary="10000000000.00,10000000000.00,-10000000000.00,-10000000000.00" projParameter="!"/>

    <node id="merge" x="0.00" y="0.00" type="unregulated"/>
    <node id="end"   x="0.00" y="100.00" type="priority"/>
    <node id="enter_right" x="20.00" y="-100.00" type="unregulated"/>
    <node id="enter_left" x="-20.00" y="-100.00" type="unregulated"/>
</nodes>
