<?xml version="1.0" encoding="UTF-8"?>

<!-- generated on Mon Feb 17 15:30:46 2020 by Eclipse SUMO netconvert Version v1_5_0+0130-ceb0a01
This data file and the accompanying materials
are made available under the terms of the Eclipse Public License v2.0
which accompanies this distribution, and is available at
http://www.eclipse.org/legal/epl-v20.html
SPDX-License-Identifier: EPL-2.0
<configuration xmlns:xsi="http://www.w3.org/2001/XMLSchema-instance" xsi:noNamespaceSchemaLocation="http://sumo.dlr.de/xsd/netconvertConfiguration.xsd">

    <input>
        <node-files value="input_plain.nod.xml"/>
        <edge-files value="input_plain.edg.xml"/>
    </input>

    <output>
        <write-license value="true"/>
    </output>

    <report>
        <xml-validation value="never"/>
        <aggregate-warnings value="5"/>
    </report>

</configuration>
-->

<net version="1.6" junctionCornerDetail="5" limitTurnSpeed="5.50" xmlns:xsi="http://www.w3.org/2001/XMLSchema-instance" xsi:noNamespaceSchemaLocation="http://sumo.dlr.de/xsd/net_file.xsd">

    <location netOffset="0.00,100.00" convBoundary="0.00,0.00,200.00,100.00" origBoundary="-10000000000.00,-10000000000.00,10000000000.00,10000000000.00" projParameter="!"/>

    <edge id=":C_0" function="internal">
        <lane id=":C_0_0" index="0" speed="6.51" length="9.03" shape="101.60,92.80 101.95,95.25 103.00,97.00 104.75,98.05 107.20,98.40"/>
    </edge>
    <edge id=":C_1" function="internal">
        <lane id=":C_1_0" index="0" speed="13.89" length="11.20" shape="96.00,98.40 107.20,98.40"/>
    </edge>

    <edge id="CE" from="C" to="E" priority="-1">
        <lane id="CE_0" index="0" speed="13.89" length="92.80" shape="107.20,98.40 200.00,98.40"/>
    </edge>
    <edge id="SC" from="S" to="C" priority="-1">
        <lane id="SC_0" index="0" speed="13.89" length="92.80" shape="101.60,0.00 101.60,92.80"/>
    </edge>
    <edge id="WC" from="W" to="C" priority="-1">
        <lane id="WC_0" index="0" speed="13.89" length="96.00" shape="0.00,98.40 96.00,98.40"/>
    </edge>

    <junction id="C" type="zipper" x="100.00" y="100.00" incLanes="SC_0 WC_0" intLanes=":C_0_0 :C_1_0" shape="107.20,100.00 107.20,96.80 104.98,96.36 104.20,95.80 103.64,95.02 103.31,94.02 103.20,92.80 100.00,92.80 99.56,95.02 99.00,95.80 98.22,96.36 97.22,96.69 96.00,96.80 96.00,100.00">
        <request index="0" response="10" foes="10" cont="0"/>
        <request index="1" response="01" foes="01" cont="0"/>
    </junction>
    <junction id="E" type="dead_end" x="200.00" y="100.00" incLanes="CE_0" intLanes="" shape="200.00,96.80 200.00,100.00"/>
    <junction id="S" type="dead_end" x="100.00" y="0.00" incLanes="" intLanes="" shape="100.00,0.00 103.20,0.00"/>
    <junction id="W" type="dead_end" x="0.00" y="100.00" incLanes="" intLanes="" shape="0.00,100.00 0.00,96.80"/>

    <connection from="SC" to="CE" fromLane="0" toLane="0" via=":C_0_0" dir="r" state="Z"/>
    <connection from="WC" to="CE" fromLane="0" toLane="0" via=":C_1_0" dir="s" state="Z"/>

    <connection from=":C_0" to="CE" fromLane="0" toLane="0" dir="r" state="M"/>
    <connection from=":C_1" to="CE" fromLane="0" toLane="0" dir="s" state="M"/>

</net>
