<?xml version="1.0" encoding="UTF-8"?>

<!-- generated on 2021-07-01 10:38:26 by Eclipse SUMO netedit Version v1_9_2+0791-d417f99328
<configuration xmlns:xsi="http://www.w3.org/2001/XMLSchema-instance" xsi:noNamespaceSchemaLocation="http://sumo.dlr.de/xsd/netconvertConfiguration.xsd">

    <input>
        <sumo-net-file value="C:\Users\SUMO-Test\.texttest\tmp\netedit.gui.01Jul103411.2356\netedit.gui\additionalElements\parkingspace\load\width\input_net.net.xml"/>
    </input>

    <output>
        <output-file value="C:\Users\SUMO-Test\.texttest\tmp\netedit.gui.01Jul103411.2356\netedit.gui\additionalElements\parkingspace\load\width\net.net.xml"/>
    </output>

    <processing>
        <geometry.min-radius.fix.railways value="false"/>
        <geometry.max-grade.fix value="false"/>
        <offset.disable-normalization value="true"/>
        <lefthand value="false"/>
    </processing>

    <junctions>
        <no-turnarounds value="true"/>
        <junctions.corner-detail value="5"/>
        <junctions.limit-turn-speed value="5.5"/>
        <rectangular-lane-cut value="false"/>
    </junctions>

    <pedestrian>
        <walkingareas value="false"/>
    </pedestrian>

    <netedit>
        <additional-files value="C:\Users\SUMO-Test\.texttest\tmp\netedit.gui.01Jul103411.2356\netedit.gui\additionalElements\parkingspace\load\width\additionals.xml"/>
        <additionals-output value="C:\Users\SUMO-Test\.texttest\tmp\netedit.gui.01Jul103411.2356\netedit.gui\additionalElements\parkingspace\load\width\additionals.xml"/>
        <route-files value="C:\Users\SUMO-Test\.texttest\tmp\netedit.gui.01Jul103411.2356\netedit.gui\additionalElements\parkingspace\load\width\routes.xml"/>
        <demandelements-output value="C:\Users\SUMO-Test\.texttest\tmp\netedit.gui.01Jul103411.2356\netedit.gui\additionalElements\parkingspace\load\width\routes.xml"/>
        <data-files value="C:\Users\SUMO-Test\.texttest\tmp\netedit.gui.01Jul103411.2356\netedit.gui\additionalElements\parkingspace\load\width\datas.xml"/>
        <dataelements-output value="C:\Users\SUMO-Test\.texttest\tmp\netedit.gui.01Jul103411.2356\netedit.gui\additionalElements\parkingspace\load\width\datas.xml"/>
    </netedit>

    <visualisation>
        <gui-settings-file value="C:\Users\SUMO-Test\.texttest\tmp\netedit.gui.01Jul103411.2356\netedit.gui\additionalElements\parkingspace\load\width\gui-settings.xml"/>
        <window-size value="936,697"/>
        <window-pos value="50,50"/>
        <gui-testing value="true"/>
        <gui-testing-debug value="true"/>
        <gui-testing-debug-gl value="true"/>
        <gui-testing.setting-output value="C:\Users\SUMO-Test\.texttest\tmp\netedit.gui.01Jul103411.2356\netedit.gui\additionalElements\parkingspace\load\width\guisettingsoutput.xml"/>
    </visualisation>

    <report>
        <no-warnings value="true"/>
        <aggregate-warnings value="5"/>
        <error-log value="C:\Users\SUMO-Test\.texttest\tmp\netedit.gui.01Jul103411.2356\netedit.gui\additionalElements\parkingspace\load\width\log.txt"/>
    </report>

</configuration>
-->

<additional xmlns:xsi="http://www.w3.org/2001/XMLSchema-instance" xsi:noNamespaceSchemaLocation="http://sumo.dlr.de/xsd/additional_file.xsd">
    <parkingArea id="parkingArea_0" lane="gneE1_0" startPos="20.00" endPos="30.00">
        <space x="20.00" y="15.00" z="1.00" width="3.30" length="6.00" angle="45.00"/>
        <space x="25.00" y="15.00" z="1.00" width="4.1" length="6.00" angle="45.00"/>
    </parkingArea>
</additional>
