<?xml version="1.0" encoding="UTF-8"?>

<!-- generated on Tue Nov  5 17:15:49 2013 by SUMO duarouter Version dev-SVN-r15021
<?xml version="1.0" encoding="UTF-8"?>

<configuration xmlns:xsi="http://www.w3.org/2001/XMLSchema-instance" xsi:noNamespaceSchemaLocation="http://sumo-sim.org/xsd/duarouterConfiguration.xsd">

    <input>
        <net-file value="input_net.net.xml"/>
        <route-files value="input_routes.rou.xml"/>
    </input>

    <output>
        <output-file value="routes.rou.xml"/>
    </output>

    <processing>
        <ignore-errors value="true"/>
        <repair value="true"/>
    </processing>

    <report>
        <no-step-log value="true"/>
    </report>

</configuration>
-->

<routes xmlns:xsi="http://www.w3.org/2001/XMLSchema-instance" xsi:noNamespaceSchemaLocation="http://sumo-sim.org/xsd/routes_file.xsd">
    <vehicle id="0_0" depart="0.00">
        <routeDistribution last="0">
            <route cost="125.90" probability="1.00000000" edges="absBeg middle end absEnd"/>
        </routeDistribution>
    </vehicle>
</routes>
