<?xml version="1.0"?>

<!-- generated on 05/14/09 12:19:15 by SUMO sumo Version dev-SVN-r7168
<configuration>

   <input>
      <net-file>net.net.xml</net-file>
      <route-files>input_routes.rou.xml</route-files>
      <additional-files>input_additional.add.xml</additional-files>
   </input>

   <time>
      <begin>100</begin>
      <end>300</end>
   </time>

   <processing>
      <no-duration-log>true</no-duration-log>
      <no-step-log>true</no-step-log>
   </processing>

</configuration>
-->

<tls-switch-states>
    <tlsstate time="100" id="0" subid="off" phase="0">oooooooooooooooo</tlsstate>
    <tlsstate time="200" id="0" subid="0" phase="0">GGggrrrrGGggrrrr</tlsstate>
    <tlsstate time="211" id="0" subid="0" phase="1">yyggrrrryyggrrrr</tlsstate>
    <tlsstate time="215" id="0" subid="0" phase="2">rrGGrrrrrrGGrrrr</tlsstate>
    <tlsstate time="221" id="0" subid="0" phase="3">rryyrrrrrryyrrrr</tlsstate>
    <tlsstate time="225" id="0" subid="0" phase="4">rrrrGGggrrrrGGgg</tlsstate>
    <tlsstate time="256" id="0" subid="0" phase="5">rrrryyggrrrryygg</tlsstate>
    <tlsstate time="260" id="0" subid="0" phase="6">rrrrrrGGrrrrrrGG</tlsstate>
    <tlsstate time="266" id="0" subid="0" phase="7">rrrrrryyrrrrrryy</tlsstate>
    <tlsstate time="270" id="0" subid="0" phase="0">GGggrrrrGGggrrrr</tlsstate>
</tls-switch-states>
