<?xml version="1.0"?>

<!-- generated on 09/08/09 09:46:44 by SUMO duarouter Version dev-SVN-r7683
<configuration>

    <input
        net-file="input_net.net.xml"
        trip-defs="input_trips.trips.xml"
    />

    <output
        output-file="routes.rou.xml"
    />

</configuration>
-->

<route-alternatives>
   <vehicle id="0" depart="0">
      <routeDistribution last="0">
         <route cost="125.11" probability="1.00000000" edges="beg middle end rend"/>
      </routeDistribution>
   </vehicle>
   <vehicle id="1" depart="0">
      <routeDistribution last="0">
         <route cost="125.11" probability="1.00000000" edges="beg middle end rend"/>
      </routeDistribution>
   </vehicle>
   <vehicle id="2" depart="0">
      <routeDistribution last="0">
         <route cost="125.11" probability="1.00000000" edges="beg middle end rend"/>
      </routeDistribution>
   </vehicle>
   <vehicle id="3" depart="0">
      <routeDistribution last="0">
         <route cost="125.11" probability="1.00000000" edges="beg middle end rend"/>
      </routeDistribution>
   </vehicle>
   <vehicle id="4" depart="0">
      <routeDistribution last="0">
         <route cost="125.11" probability="1.00000000" edges="beg middle end rend"/>
      </routeDistribution>
   </vehicle>
   <vehicle id="5" depart="0">
      <routeDistribution last="0">
         <route cost="125.11" probability="1.00000000" edges="beg middle end rend"/>
      </routeDistribution>
   </vehicle>
   <vehicle id="6" depart="0">
      <routeDistribution last="0">
         <route cost="125.11" probability="1.00000000" edges="beg middle end rend"/>
      </routeDistribution>
   </vehicle>
   <vehicle id="7" depart="0">
      <routeDistribution last="0">
         <route cost="125.11" probability="1.00000000" edges="beg middle end rend"/>
      </routeDistribution>
   </vehicle>
   <vehicle id="8" depart="0">
      <routeDistribution last="0">
         <route cost="125.11" probability="1.00000000" edges="beg middle end rend"/>
      </routeDistribution>
   </vehicle>
   <vehicle id="9" depart="0">
      <routeDistribution last="0">
         <route cost="125.11" probability="1.00000000" edges="beg middle end rend"/>
      </routeDistribution>
   </vehicle>
</route-alternatives>
