<?xml version="1.0" encoding="UTF-8"?>

<!-- generated on 2022-06-03 15:52:36 by Eclipse SUMO netedit Version v1_13_0+0610-e5b7f68bfcb
-->

<additional xmlns:xsi="http://www.w3.org/2001/XMLSchema-instance" xsi:noNamespaceSchemaLocation="http://sumo.dlr.de/xsd/additional_file.xsd">
    <!-- Detectors -->
    <e2Detector id="e2_0" name="detectorName" lanes="gneE2_0 gneE3_0" pos="10.00" endPos="13.00" period="300.00" file="e2_0.xml"/>
</additional>
