<?xml version="1.0" encoding="UTF-8"?>
<additional>

    <rerouter id="parkA0A1" edges="A0A1">
        <interval begin="0.0" end="86400">
            <!-- in order of distance --> 
            <parkingAreaReroute id="parkA0A1" visible="true"/> <!-- dist: 0.0 -->
            <parkingAreaReroute id="parkA1A2" visible="false"/> <!-- dist: 182.7 -->
            <parkingAreaReroute id="parkB1B2" visible="false"/> <!-- dist: 273.3 -->
            <parkingAreaReroute id="parkA2A3" visible="false"/> <!-- dist: 274.8 -->
            <parkingAreaReroute id="parkB0B1" visible="false"/> <!-- dist: 363.9 -->
            <parkingAreaReroute id="parkB2B3" visible="false"/> <!-- dist: 363.9 -->
        </interval>
    </rerouter>

    <rerouter id="parkA1A2" edges="A1A2">
        <interval begin="0.0" end="86400">
            <!-- in order of distance --> 
            <parkingAreaReroute id="parkA1A2" visible="true"/> <!-- dist: 0.0 -->
            <parkingAreaReroute id="parkA2A3" visible="false"/> <!-- dist: 182.7 -->
            <!--parkingAreaReroute id="parkB2B3" visible="false"/> <!- dist: 271.8 -->
            <!--parkingAreaReroute id="parkB1B2" visible="false"/> <!- dist: 362.4 -->
            <parkingAreaReroute id="parkC2C3" visible="false"/> <!-- dist: 362.4 -->
            <parkingAreaReroute id="parkA0A1" visible="false"/> <!-- dist: 365.4 -->
        </interval>
    </rerouter>

    <rerouter id="parkA2A3" edges="A2A3">
        <interval begin="0.0" end="86400">
            <!-- in order of distance --> 
            <parkingAreaReroute id="parkA2A3" visible="true"/> <!-- dist: 0.0 -->
            <parkingAreaReroute id="parkA1A2" visible="false"/> <!-- dist: 365.4 -->
            <!--parkingAreaReroute id="parkB2B3" visible="false"/> <!- dist: 365.4 -->
            <parkingAreaReroute id="parkB1B2" visible="false"/> <!-- dist: 456.0 -->
            <parkingAreaReroute id="parkC2C3" visible="false"/> <!-- dist: 456.0 -->
            <parkingAreaReroute id="parkA0A1" visible="false"/> <!-- dist: 459.0 -->
        </interval>
    </rerouter>

    <rerouter id="parkB0B1" edges="B0B1">
        <interval begin="0.0" end="86400">
            <!-- in order of distance --> 
            <parkingAreaReroute id="parkB0B1" visible="true"/> <!-- dist: 0.0 -->
            <parkingAreaReroute id="parkB1B2" visible="false"/> <!-- dist: 181.2 -->
            <parkingAreaReroute id="parkA1A2" visible="false"/> <!-- dist: 271.8 -->
            <parkingAreaReroute id="parkB2B3" visible="false"/> <!-- dist: 271.8 -->
            <parkingAreaReroute id="parkC1C2" visible="false"/> <!-- dist: 271.8 -->
            <parkingAreaReroute id="parkC0C1" visible="false"/> <!-- dist: 362.4 -->
        </interval>
    </rerouter>

    <rerouter id="parkB1B2" edges="B1B2">
        <interval begin="0.0" end="86400">
            <!-- in order of distance --> 
            <parkingAreaReroute id="parkB1B2" visible="true"/> <!-- dist: 0.0 -->
            <parkingAreaReroute id="parkB2B3" visible="false"/> <!-- dist: 181.2 -->
            <parkingAreaReroute id="parkC2C3" visible="false"/> <!-- dist: 271.8 -->
            <parkingAreaReroute id="parkA2A3" visible="false"/> <!-- dist: 273.3 -->
            <parkingAreaReroute id="parkA1A2" visible="false"/> <!-- dist: 362.4 -->
            <parkingAreaReroute id="parkB0B1" visible="false"/> <!-- dist: 362.4 -->
        </interval>
    </rerouter>

    <rerouter id="parkB2B3" edges="B2B3">
        <interval begin="0.0" end="86400">
            <!-- in order of distance --> 
            <parkingAreaReroute id="parkB2B3" visible="true"/> <!-- dist: 0.0 -->
            <parkingAreaReroute id="parkB1B2" visible="false"/> <!-- dist: 362.4 -->
            <parkingAreaReroute id="parkC2C3" visible="false"/> <!-- dist: 362.4 -->
            <parkingAreaReroute id="parkA2A3" visible="false"/> <!-- dist: 363.9 -->
            <parkingAreaReroute id="parkA1A2" visible="false"/> <!-- dist: 453.0 -->
            <parkingAreaReroute id="parkB0B1" visible="false"/> <!-- dist: 453.0 -->
        </interval>
    </rerouter>

    <rerouter id="parkC0C1" edges="C0C1">
        <interval begin="0.0" end="86400">
            <!-- in order of distance --> 
            <parkingAreaReroute id="parkC0C1" visible="true"/> <!-- dist: 0.0 -->
            <parkingAreaReroute id="parkC1C2" visible="false"/> <!-- dist: 181.2 -->
            <parkingAreaReroute id="parkB1B2" visible="false"/> <!-- dist: 271.8 -->
            <parkingAreaReroute id="parkC2C3" visible="false"/> <!-- dist: 271.8 -->
            <parkingAreaReroute id="parkD1D2" visible="false"/> <!-- dist: 271.8 -->
            <parkingAreaReroute id="parkA1A2" visible="false"/> <!-- dist: 362.4 -->
        </interval>
    </rerouter>

    <rerouter id="parkC1C2" edges="C1C2">
        <interval begin="0.0" end="86400">
            <!-- in order of distance --> 
            <parkingAreaReroute id="parkC1C2" visible="true"/> <!-- dist: 0.0 -->
            <parkingAreaReroute id="parkC2C3" visible="false"/> <!-- dist: 181.2 -->
            <parkingAreaReroute id="parkB2B3" visible="false"/> <!-- dist: 271.8 -->
            <parkingAreaReroute id="parkD2D3" visible="false"/> <!-- dist: 273.3 -->
            <parkingAreaReroute id="parkB1B2" visible="false"/> <!-- dist: 362.4 -->
            <parkingAreaReroute id="parkC0C1" visible="false"/> <!-- dist: 362.4 -->
        </interval>
    </rerouter>

    <rerouter id="parkC2C3" edges="C2C3">
        <interval begin="0.0" end="86400">
            <!-- in order of distance --> 
            <parkingAreaReroute id="parkC2C3" visible="true"/> <!-- dist: 0.0 -->
            <parkingAreaReroute id="parkB2B3" visible="false"/> <!-- dist: 362.4 -->
            <parkingAreaReroute id="parkC1C2" visible="false"/> <!-- dist: 362.4 -->
            <parkingAreaReroute id="parkD2D3" visible="false"/> <!-- dist: 363.9 -->
            <parkingAreaReroute id="parkB1B2" visible="false"/> <!-- dist: 453.0 -->
            <parkingAreaReroute id="parkC0C1" visible="false"/> <!-- dist: 453.0 -->
        </interval>
    </rerouter>

    <rerouter id="parkD0D1" edges="D0D1">
        <interval begin="0.0" end="86400">
            <!-- in order of distance --> 
            <parkingAreaReroute id="parkD0D1" visible="true"/> <!-- dist: 0.0 -->
            <parkingAreaReroute id="parkD1D2" visible="false"/> <!-- dist: 182.7 -->
            <parkingAreaReroute id="parkC1C2" visible="false"/> <!-- dist: 273.3 -->
            <parkingAreaReroute id="parkD2D3" visible="false"/> <!-- dist: 274.8 -->
            <parkingAreaReroute id="parkB1B2" visible="false"/> <!-- dist: 363.9 -->
            <parkingAreaReroute id="parkC0C1" visible="false"/> <!-- dist: 363.9 -->
        </interval>
    </rerouter>

    <rerouter id="parkD1D2" edges="D1D2">
        <interval begin="0.0" end="86400">
            <!-- in order of distance --> 
            <parkingAreaReroute id="parkD1D2" visible="true"/> <!-- dist: 0.0 -->
            <parkingAreaReroute id="parkD2D3" visible="false"/> <!-- dist: 182.7 -->
            <parkingAreaReroute id="parkC2C3" visible="false"/> <!-- dist: 271.8 -->
            <parkingAreaReroute id="parkB2B3" visible="false"/> <!-- dist: 362.4 -->
            <parkingAreaReroute id="parkC1C2" visible="false"/> <!-- dist: 362.4 -->
            <parkingAreaReroute id="parkD0D1" visible="false"/> <!-- dist: 365.4 -->
        </interval>
    </rerouter>

    <rerouter id="parkD2D3" edges="D2D3">
        <interval begin="0.0" end="86400">
            <!-- in order of distance --> 
            <parkingAreaReroute id="parkD2D3" visible="true"/> <!-- dist: 0.0 -->
            <parkingAreaReroute id="parkC2C3" visible="false"/> <!-- dist: 365.4 -->
            <parkingAreaReroute id="parkD1D2" visible="false"/> <!-- dist: 365.4 -->
            <parkingAreaReroute id="parkB2B3" visible="false"/> <!-- dist: 456.0 -->
            <parkingAreaReroute id="parkC1C2" visible="false"/> <!-- dist: 456.0 -->
            <parkingAreaReroute id="parkD0D1" visible="false"/> <!-- dist: 459.0 -->
        </interval>
    </rerouter>
</additional>
