<?xml version="1.0" encoding="UTF-8"?>

<!-- generated on Tue Feb 21 16:44:12 2017 by SUMO netconvert Version dev-SVN-r23047
<?xml version="1.0" encoding="UTF-8"?>

<configuration xmlns:xsi="http://www.w3.org/2001/XMLSchema-instance" xsi:noNamespaceSchemaLocation="http://sumo.dlr.de/xsd/netconvertConfiguration.xsd">

    <input>
        <node-files value="input_nodes.nod.xml"/>
        <edge-files value="input_edges.edg.xml"/>
    </input>

    <output>
        <output-file value="net.net.xml"/>
    </output>

    <report>
        <xml-validation value="never"/>
    </report>

</configuration>
-->

<net version="0.27" xmlns:xsi="http://www.w3.org/2001/XMLSchema-instance" xsi:noNamespaceSchemaLocation="http://sumo.dlr.de/xsd/net_file.xsd">

    <location netOffset="0.00,0.00" convBoundary="0.00,0.00,100.00,0.00" origBoundary="0.00,0.00,100.00,0.00" projParameter="!"/>

    <edge id="allows_now" from="1" to="2" priority="-1">
        <lane id="allows_now_0" index="0" allow="ship custom1 custom2" speed="13.90" length="100.00" shape="0.00,-1.65 100.00,-1.65"/>
    </edge>

    <junction id="1" type="dead_end" x="0.00" y="0.00" incLanes="" intLanes="" shape="0.00,-0.05 0.00,-3.25"/>
    <junction id="2" type="dead_end" x="100.00" y="0.00" incLanes="allows_now_0" intLanes="" shape="100.00,-3.25 100.00,-0.05"/>

</net>
