<?xml version="1.0" encoding="UTF-8"?>
<routes xmlns:xsi="http://www.w3.org/2001/XMLSchema-instance" xsi:noNamespaceSchemaLocation="http://sumo.dlr.de/xsd/routes_file.xsd">
    <vTypeDistribution id="dist1">
        <vType id="fast" maxSpeed="30" sigma="0" probability="70"/>
        <vType id="slow" maxSpeed="10" sigma="0" probability="30" vClass="truck"/>
    </vTypeDistribution>
  
    <route id="r0" edges="beg middle end rend"/>
    <flow id="flow0"  type="dist1" begin="0" end="100" route="r0" vehsPerHour="2000"/>

</routes>
