<?xml version="1.0" encoding="UTF-8"?>

<!-- generated on Tue Jul 22 15:02:56 2014 by SUMO sumo Version dev-SVN-r16762
<?xml version="1.0" encoding="UTF-8"?>

<configuration xmlns:xsi="http://www.w3.org/2001/XMLSchema-instance" xsi:noNamespaceSchemaLocation="http://sumo-sim.org/xsd/sumoConfiguration.xsd">

    <input>
        <net-file value="net.net.xml"/>
        <route-files value="input_routes.rou.xml"/>
        <additional-files value="input_additional.add.xml"/>
    </input>

    <report>
        <xml-validation value="never"/>
        <no-duration-log value="true"/>
        <no-step-log value="true"/>
    </report>

</configuration>
-->

<tls-switch-states>
    <tlsstate time="0.00" id="0" programID="0" phase="0" state="GGggrrrrGGggrrrr"/>
    <tlsstate time="9.00" id="0" programID="0" phase="1" state="yyggrrrryyggrrrr"/>
    <tlsstate time="13.00" id="0" programID="0" phase="2" state="rrGGrrrrrrGGrrrr"/>
    <tlsstate time="19.00" id="0" programID="0" phase="3" state="rryyrrrrrryyrrrr"/>
    <tlsstate time="23.00" id="0" programID="0" phase="4" state="rrrrGGggrrrrGGgg"/>
    <tlsstate time="32.00" id="0" programID="0" phase="5" state="rrrryyggrrrryygg"/>
    <tlsstate time="36.00" id="0" programID="0" phase="6" state="rrrrrrGGrrrrrrGG"/>
    <tlsstate time="42.00" id="0" programID="0" phase="7" state="rrrrrryyrrrrrryy"/>
    <tlsstate time="46.00" id="0" programID="0" phase="0" state="GGggrrrrGGggrrrr"/>
    <tlsstate time="55.00" id="0" programID="0" phase="1" state="yyggrrrryyggrrrr"/>
    <tlsstate time="59.00" id="0" programID="0" phase="2" state="rrGGrrrrrrGGrrrr"/>
    <tlsstate time="65.00" id="0" programID="0" phase="3" state="rryyrrrrrryyrrrr"/>
    <tlsstate time="69.00" id="0" programID="0" phase="4" state="rrrrGGggrrrrGGgg"/>
    <tlsstate time="79.00" id="0" programID="0" phase="5" state="rrrryyggrrrryygg"/>
    <tlsstate time="83.00" id="0" programID="0" phase="6" state="rrrrrrGGrrrrrrGG"/>
    <tlsstate time="89.00" id="0" programID="0" phase="7" state="rrrrrryyrrrrrryy"/>
    <tlsstate time="93.00" id="0" programID="0" phase="0" state="GGggrrrrGGggrrrr"/>
    <tlsstate time="102.00" id="0" programID="0" phase="1" state="yyggrrrryyggrrrr"/>
    <tlsstate time="106.00" id="0" programID="0" phase="2" state="rrGGrrrrrrGGrrrr"/>
    <tlsstate time="112.00" id="0" programID="0" phase="3" state="rryyrrrrrryyrrrr"/>
    <tlsstate time="116.00" id="0" programID="0" phase="4" state="rrrrGGggrrrrGGgg"/>
    <tlsstate time="140.00" id="0" programID="0" phase="5" state="rrrryyggrrrryygg"/>
    <tlsstate time="144.00" id="0" programID="0" phase="6" state="rrrrrrGGrrrrrrGG"/>
    <tlsstate time="150.00" id="0" programID="0" phase="7" state="rrrrrryyrrrrrryy"/>
    <tlsstate time="154.00" id="0" programID="0" phase="0" state="GGggrrrrGGggrrrr"/>
    <tlsstate time="180.00" id="0" programID="0" phase="1" state="yyggrrrryyggrrrr"/>
    <tlsstate time="184.00" id="0" programID="0" phase="2" state="rrGGrrrrrrGGrrrr"/>
    <tlsstate time="190.00" id="0" programID="0" phase="3" state="rryyrrrrrryyrrrr"/>
    <tlsstate time="194.00" id="0" programID="0" phase="4" state="rrrrGGggrrrrGGgg"/>
    <tlsstate time="244.00" id="0" programID="0" phase="5" state="rrrryyggrrrryygg"/>
    <tlsstate time="248.00" id="0" programID="0" phase="6" state="rrrrrrGGrrrrrrGG"/>
    <tlsstate time="254.00" id="0" programID="0" phase="7" state="rrrrrryyrrrrrryy"/>
    <tlsstate time="258.00" id="0" programID="0" phase="0" state="GGggrrrrGGggrrrr"/>
    <tlsstate time="277.00" id="0" programID="0" phase="1" state="yyggrrrryyggrrrr"/>
    <tlsstate time="281.00" id="0" programID="0" phase="2" state="rrGGrrrrrrGGrrrr"/>
    <tlsstate time="287.00" id="0" programID="0" phase="3" state="rryyrrrrrryyrrrr"/>
    <tlsstate time="291.00" id="0" programID="0" phase="4" state="rrrrGGggrrrrGGgg"/>
    <tlsstate time="351.00" id="0" programID="0" phase="5" state="rrrryyggrrrryygg"/>
    <tlsstate time="355.00" id="0" programID="0" phase="6" state="rrrrrrGGrrrrrrGG"/>
    <tlsstate time="361.00" id="0" programID="0" phase="7" state="rrrrrryyrrrrrryy"/>
    <tlsstate time="365.00" id="0" programID="0" phase="0" state="GGggrrrrGGggrrrr"/>
    <tlsstate time="374.00" id="0" programID="0" phase="1" state="yyggrrrryyggrrrr"/>
    <tlsstate time="378.00" id="0" programID="0" phase="2" state="rrGGrrrrrrGGrrrr"/>
    <tlsstate time="384.00" id="0" programID="0" phase="3" state="rryyrrrrrryyrrrr"/>
    <tlsstate time="388.00" id="0" programID="0" phase="4" state="rrrrGGggrrrrGGgg"/>
    <tlsstate time="448.00" id="0" programID="0" phase="5" state="rrrryyggrrrryygg"/>
    <tlsstate time="452.00" id="0" programID="0" phase="6" state="rrrrrrGGrrrrrrGG"/>
    <tlsstate time="458.00" id="0" programID="0" phase="7" state="rrrrrryyrrrrrryy"/>
    <tlsstate time="462.00" id="0" programID="0" phase="0" state="GGggrrrrGGggrrrr"/>
    <tlsstate time="471.00" id="0" programID="0" phase="1" state="yyggrrrryyggrrrr"/>
    <tlsstate time="475.00" id="0" programID="0" phase="2" state="rrGGrrrrrrGGrrrr"/>
    <tlsstate time="481.00" id="0" programID="0" phase="3" state="rryyrrrrrryyrrrr"/>
    <tlsstate time="485.00" id="0" programID="0" phase="4" state="rrrrGGggrrrrGGgg"/>
    <tlsstate time="537.00" id="0" programID="0" phase="5" state="rrrryyggrrrryygg"/>
    <tlsstate time="541.00" id="0" programID="0" phase="6" state="rrrrrrGGrrrrrrGG"/>
    <tlsstate time="547.00" id="0" programID="0" phase="7" state="rrrrrryyrrrrrryy"/>
    <tlsstate time="551.00" id="0" programID="0" phase="0" state="GGggrrrrGGggrrrr"/>
    <tlsstate time="560.00" id="0" programID="0" phase="1" state="yyggrrrryyggrrrr"/>
    <tlsstate time="564.00" id="0" programID="0" phase="2" state="rrGGrrrrrrGGrrrr"/>
    <tlsstate time="570.00" id="0" programID="0" phase="3" state="rryyrrrrrryyrrrr"/>
    <tlsstate time="574.00" id="0" programID="0" phase="4" state="rrrrGGggrrrrGGgg"/>
    <tlsstate time="583.00" id="0" programID="0" phase="5" state="rrrryyggrrrryygg"/>
</tls-switch-states>
