<additional>
    <vType id="truck" vClass="truck"/>
</additional>
