<?xml version="1.0" encoding="UTF-8"?>

<!-- generated on 2023-06-06 16:57:50.833038 by randomTrips.py v1_17_0+0748-dcc79ba
<configuration>
    <net-file value="net2.net.xml"/>
    <additional-files value="input_additional.add.xml"/>
    <route-file value="out.rou.xml"/>
    <persontrips value="True"/>
    <trip-attributes value="departPos=&quot;random&quot; color=&quot;red&quot; modes=&quot;public&quot;"/>
    <end value="10.0"/>
    <min-distance value="1.0"/>
    <from-stops value="busStop"/>
</configuration>
-->

<routes xmlns:xsi="http://www.w3.org/2001/XMLSchema-instance" xsi:noNamespaceSchemaLocation="http://sumo.dlr.de/xsd/routes_file.xsd">
    <person id="0" depart="0.00" departPos="random" color="red">
        <stop busStop="bs_3" duration="0"/>
        <personTrip to="beg" modes="public"/>
    </person>
    <person id="1" depart="1.00" departPos="random" color="red">
        <stop busStop="bs_0" duration="0"/>
        <personTrip to="left2end" modes="public"/>
    </person>
    <person id="2" depart="2.00" departPos="random" color="red">
        <stop busStop="bs_2" duration="0"/>
        <personTrip to="beg" modes="public"/>
    </person>
    <person id="3" depart="3.00" departPos="random" color="red">
        <stop busStop="bs_0" duration="0"/>
        <personTrip to="left" modes="public"/>
    </person>
    <person id="4" depart="4.00" departPos="random" color="red">
        <stop busStop="bs_3" duration="0"/>
        <personTrip to="left2end" modes="public"/>
    </person>
    <person id="5" depart="5.00" departPos="random" color="red">
        <stop busStop="bs_0" duration="0"/>
        <personTrip to="left" modes="public"/>
    </person>
    <person id="6" depart="6.00" departPos="random" color="red">
        <stop busStop="bs_3" duration="0"/>
        <personTrip to="beg" modes="public"/>
    </person>
    <person id="7" depart="7.00" departPos="random" color="red">
        <stop busStop="bs_4" duration="0"/>
        <personTrip to="beg" modes="public"/>
    </person>
    <person id="8" depart="8.00" departPos="random" color="red">
        <stop busStop="bs_0" duration="0"/>
        <personTrip to="end" modes="public"/>
    </person>
    <person id="9" depart="9.00" departPos="random" color="red">
        <stop busStop="bs_2" duration="0"/>
        <personTrip to="left2end" modes="public"/>
    </person>
</routes>
