<routes xmlns:xsi="http://www.w3.org/2001/XMLSchema-instance" xsi:noNamespaceSchemaLocation="http://sumo.dlr.de/xsd/routes_file.xsd">
    <vType id="DEFAULT_VEHTYPE" sigma="0"/>
    <flow id="v" begin="triggered" number="3" line="LV" departPos="5">
        <route edges="beg middle end"/>
    </flow>
    <personFlow id="p1" begin="1" period="5" number="3" departPos="5">
        <ride from="beg" to="end" lines="LV"/>
    </personFlow>
</routes>
