<additional xmlns:xsi="http://www.w3.org/2001/XMLSchema-instance" xsi:noNamespaceSchemaLocation="http://sumo.dlr.de/xsd/additional_file.xsd">
    <route id="r1" edges="beg middle end rend"/>
    <vType id="t2" accel="1" sigma="0"/>
    <calibrator id="c1" lane="middle_0" pos="0" output="detector.xml">
        <flow begin="0"    end="3600" route="r1" speed="10.0" type="t2"/>
    </calibrator>

    <edgeData id="expect_speed_10"  begin="0"       end="3600"  file="aggregated_25.xml"/>
</additional>
