<?xml version="1.0" encoding="UTF-8"?>
<routes xmlns:xsi="http://www.w3.org/2001/XMLSchema-instance" xsi:noNamespaceSchemaLocation="http://sumo.dlr.de/xsd/routes_file.xsd">
   <vType id="DEFAULT_VEHTYPE" sigma="0"/>
  
    <route id="r0" edges="beg middle end rend"/>
    <flow id="flow0"  begin="0"    end="3600" route="r0" vehsPerHour="2000"/>

</routes>
