<?xml version="1.0" encoding="UTF-8"?>

<!-- generated on 10/27/2019 10:16:44 AM by Eclipse SUMO netedit Version v1_3_1+0712-b5fac1c722
<configuration xmlns:xsi="http://www.w3.org/2001/XMLSchema-instance" xsi:noNamespaceSchemaLocation="http://sumo.dlr.de/xsd/netconvertConfiguration.xsd">

    <input>
        <sumo-net-file value="C:\Users\SUMO-Test\.texttest\tmp\netedit.gui.1_from_26Oct155707.568\netedit.gui\demandElements\flow\inspect\arrivalPosLat\float\input_net.net.xml"/>
    </input>

    <output>
        <output-file value="C:\Users\SUMO-Test\.texttest\tmp\netedit.gui.1_from_26Oct155707.568\netedit.gui\demandElements\flow\inspect\arrivalPosLat\float\net.net.xml"/>
    </output>

    <processing>
        <geometry.max-grade.fix value="false"/>
        <offset.disable-normalization value="true"/>
        <lefthand value="false"/>
    </processing>

    <junctions>
        <no-turnarounds value="true"/>
        <junctions.corner-detail value="5"/>
        <junctions.limit-turn-speed value="5.5"/>
        <rectangular-lane-cut value="false"/>
    </junctions>

    <pedestrian>
        <walkingareas value="false"/>
    </pedestrian>

    <netedit>
        <additional-files value="C:\Users\SUMO-Test\.texttest\tmp\netedit.gui.1_from_26Oct155707.568\netedit.gui\demandElements\flow\inspect\arrivalPosLat\float\additionals.xml"/>
        <additionals-output value="C:\Users\SUMO-Test\.texttest\tmp\netedit.gui.1_from_26Oct155707.568\netedit.gui\demandElements\flow\inspect\arrivalPosLat\float\additionals.xml"/>
        <route-files value="C:\Users\SUMO-Test\.texttest\tmp\netedit.gui.1_from_26Oct155707.568\netedit.gui\demandElements\flow\inspect\arrivalPosLat\float\routes.xml"/>
        <demandelements-output value="C:\Users\SUMO-Test\.texttest\tmp\netedit.gui.1_from_26Oct155707.568\netedit.gui\demandElements\flow\inspect\arrivalPosLat\float\routes.xml"/>
    </netedit>

    <visualisation>
        <gui-settings-file value="C:\Users\SUMO-Test\.texttest\tmp\netedit.gui.1_from_26Oct155707.568\netedit.gui\demandElements\flow\inspect\arrivalPosLat\float\gui-settings.xml"/>
        <window-size value="700,500"/>
        <window-pos value="50,50"/>
        <gui-testing value="true"/>
        <gui-testing-debug value="true"/>
        <gui-testing-debug-gl value="true"/>
        <gui-testing.setting-output value="C:\Users\SUMO-Test\.texttest\tmp\netedit.gui.1_from_26Oct155707.568\netedit.gui\demandElements\flow\inspect\arrivalPosLat\float\guisettingsoutput.xml"/>
    </visualisation>

    <report>
        <no-warnings value="true"/>
        <error-log value="C:\Users\SUMO-Test\.texttest\tmp\netedit.gui.1_from_26Oct155707.568\netedit.gui\demandElements\flow\inspect\arrivalPosLat\float\log.txt"/>
    </report>

</configuration>
-->

<routes xmlns:xsi="http://www.w3.org/2001/XMLSchema-instance" xsi:noNamespaceSchemaLocation="http://sumo.dlr.de/xsd/routes_file.xsd">
    <flow id="flow_0" begin="0.00" arrivalPosLat="0.00" from="gneE2" to="gneE5" end="3600.00" vehsPerHour="3600.00"/>
</routes>
