<?xml version="1.0" encoding="UTF-8"?>

<!-- generated on Wed Sep 16 11:03:55 2020 by Eclipse SUMO netconvert Version v1_7_0+0093-7f2a58188e
<configuration xmlns:xsi="http://www.w3.org/2001/XMLSchema-instance" xsi:noNamespaceSchemaLocation="http://sumo.dlr.de/xsd/netconvertConfiguration.xsd">

    <input>
        <sumo-net-file value="straight_double.net.xml"/>
    </input>

    <output>
        <plain-output-prefix value="input_plain"/>
    </output>

    <processing>
        <geometry.min-radius.fix.railways value="false"/>
        <geometry.max-grade.fix value="false"/>
        <offset.disable-normalization value="true"/>
        <lefthand value="false"/>
    </processing>

    <junctions>
        <no-turnarounds value="true"/>
        <junctions.corner-detail value="0"/>
        <junctions.limit-turn-speed value="-1"/>
        <rectangular-lane-cut value="false"/>
    </junctions>

    <pedestrian>
        <walkingareas value="false"/>
    </pedestrian>

    <report>
        <aggregate-warnings value="5"/>
    </report>

</configuration>
-->

<connections version="1.6" xmlns:xsi="http://www.w3.org/2001/XMLSchema-instance" xsi:noNamespaceSchemaLocation="http://sumo.dlr.de/xsd/connections_file.xsd">
    <connection from="CE" to="EC" fromLane="1" toLane="1"/>

    <connection from="CN" to="NC" fromLane="1" toLane="1"/>

    <connection from="CS" to="SC" fromLane="1" toLane="2"/>

    <connection from="CW" to="WC" fromLane="1" toLane="1"/>

    <connection from="EC" to="CN" fromLane="0" toLane="0"/>
    <connection from="EC" to="CW" fromLane="0" toLane="0"/>
    <connection from="EC" to="CW" fromLane="1" toLane="1"/>
    <connection from="EC" to="CS" fromLane="1" toLane="1"/>

    <connection from="NC" to="CW" fromLane="0" toLane="0"/>
    <connection from="NC" to="CS" fromLane="0" toLane="0"/>
    <connection from="NC" to="CS" fromLane="1" toLane="1"/>
    <connection from="NC" to="CE" fromLane="1" toLane="1"/>

    <connection from="SC" to="CN" fromLane="0" toLane="0"/>
    <connection from="SC" to="CE" fromLane="1" toLane="0"/>
    <connection from="SC" to="CN" fromLane="1" toLane="0"/>
    <connection from="SC" to="CN" fromLane="2" toLane="1"/>
    <connection from="SC" to="CW" fromLane="2" toLane="1"/>

    <connection from="WC" to="CS" fromLane="0" toLane="0"/>
    <connection from="WC" to="CE" fromLane="0" toLane="0"/>
    <connection from="WC" to="CE" fromLane="1" toLane="1"/>
    <connection from="WC" to="CN" fromLane="1" toLane="1"/>

</connections>
