<?xml version="1.0" encoding="UTF-8"?>

<!-- generated on 2025-12-03T15:58:59.881125+01:00 by Eclipse SUMO netedit v1_25_0+0312-f508c03ca92
This data file and the accompanying materials
are made available under the terms of the Eclipse Public License v2.0
which accompanies this distribution, and is available at
http://www.eclipse.org/legal/epl-v20.html
This file may also be made available under the following Secondary
Licenses when the conditions for such availability set forth in the Eclipse
Public License 2.0 are satisfied: GNU General Public License, version 2
or later which is available at
https://www.gnu.org/licenses/old-licenses/gpl-2.0-standalone.html
SPDX-License-Identifier: EPL-2.0 OR GPL-2.0-or-later
-->

<additional xmlns:xsi="http://www.w3.org/2001/XMLSchema-instance" xsi:noNamespaceSchemaLocation="http://sumo.dlr.de/xsd/additional_file.xsd">
    <!-- StoppingPlaces -->
    <parkingArea id="parkingArea_B" lane="EdgeCenter1_1" startPos="29.00" endPos="39.00" length="5.00">
        <space name="nameB" x="15.00" y="10.00" z="20.00" width="2.00" length="12.00" angle="12.00" slope="32.50">
            <param key="KeyB1" value="valueB1"/>
            <param key="KeyB2" value="valueB2"/>
            <param key="KeyB3" value="valueB3"/>
        </space>
    </parkingArea>
</additional>
