<?xml version="1.0" encoding="iso-8859-1"?>

<configuration xmlns:xsi="http://www.w3.org/2001/XMLSchema-instance" xsi:noNamespaceSchemaLocation="http://sumo.sf.net/xsd/sumoConfiguration.xsd">

    <input>
        <net-file value="cross_sat.net.xml"/>
        <route-files value="..\..\cross.rou.xml"/>
        <additional-files value="cross_sat.det.xml"/>
    </input>

    <output>
        <tripinfo-output value="..\..\tripinfo.txt"/>
    </output>

</configuration>
