<?xml version="1.0" encoding="UTF-8"?>

<!-- generated on 13.09.2019 15:35:05 by Eclipse SUMO netedit Version v1_3_1+0293-e31b3a23a0
<configuration xmlns:xsi="http://www.w3.org/2001/XMLSchema-instance" xsi:noNamespaceSchemaLocation="http://sumo.dlr.de/xsd/netconvertConfiguration.xsd">

    <input>
        <sumo-net-file value="C:/Users/alva_pa/.texttest/tmp/netedit.gui.13Sep153422.4236/netedit.gui/demandElements/stop/stopLane/inspect/extension\input_net.net.xml"/>
    </input>

    <output>
        <output-file value="C:/Users/alva_pa/.texttest/tmp/netedit.gui.13Sep153422.4236/netedit.gui/demandElements/stop/stopLane/inspect/extension\net.net.xml"/>
    </output>

    <processing>
        <geometry.max-grade.fix value="false"/>
        <offset.disable-normalization value="true"/>
        <lefthand value="false"/>
    </processing>

    <junctions>
        <no-turnarounds value="true"/>
        <junctions.corner-detail value="5"/>
        <junctions.limit-turn-speed value="5.5"/>
        <rectangular-lane-cut value="false"/>
    </junctions>

    <pedestrian>
        <walkingareas value="false"/>
    </pedestrian>

    <netedit>
        <additional-files value="C:/Users/alva_pa/.texttest/tmp/netedit.gui.13Sep153422.4236/netedit.gui/demandElements/stop/stopLane/inspect/extension\additionals.xml"/>
        <additionals-output value="C:/Users/alva_pa/.texttest/tmp/netedit.gui.13Sep153422.4236/netedit.gui/demandElements/stop/stopLane/inspect/extension\additionals.xml"/>
        <route-files value="C:/Users/alva_pa/.texttest/tmp/netedit.gui.13Sep153422.4236/netedit.gui/demandElements/stop/stopLane/inspect/extension\routes.xml"/>
        <demandelements-output value="C:/Users/alva_pa/.texttest/tmp/netedit.gui.13Sep153422.4236/netedit.gui/demandElements/stop/stopLane/inspect/extension\routes.xml"/>
    </netedit>

    <visualisation>
        <gui-settings-file value="C:/Users/alva_pa/.texttest/tmp/netedit.gui.13Sep153422.4236/netedit.gui/demandElements/stop/stopLane/inspect/extension\gui-settings.xml"/>
        <window-size value="700,500"/>
        <window-pos value="50,50"/>
        <gui-testing value="true"/>
        <gui-testing-debug value="true"/>
        <gui-testing-debug-gl value="true"/>
    </visualisation>

    <report>
        <no-warnings value="true"/>
        <error-log value="C:/Users/alva_pa/.texttest/tmp/netedit.gui.13Sep153422.4236/netedit.gui/demandElements/stop/stopLane/inspect/extension\log.txt"/>
    </report>

</configuration>
-->

<routes xmlns:xsi="http://www.w3.org/2001/XMLSchema-instance" xsi:noNamespaceSchemaLocation="http://sumo.dlr.de/xsd/routes_file.xsd">
    <person id="person_0" depart="0.00" color="cyan">
        <walk edges="gneE0 gneE1"/>
        <stop lane="gneE1_0" startPos="25.00" endPos="35.00" duration="60.00" extension="3.50"/>
    </person>
</routes>
