<?xml version="1.0" encoding="UTF-8"?>

<!-- generated on 2021-09-02 15:11:07 by Eclipse SUMO polyconvert Version v1_10_0+0471-3899c6d
This data file and the accompanying materials
are made available under the terms of the Eclipse Public License v2.0
which accompanies this distribution, and is available at
http://www.eclipse.org/legal/epl-v20.html
SPDX-License-Identifier: EPL-2.0
<configuration xmlns:xsi="http://www.w3.org/2001/XMLSchema-instance" xsi:noNamespaceSchemaLocation="http://sumo.dlr.de/xsd/polyconvertConfiguration.xsd">

    <input>
        <net-file value="input_net.net.xml"/>
        <osm-files value="osm.xml"/>
        <type-file value="/scr1/sumo/data/typemap/osmPolyconvert.typ.xml"/>
    </input>

    <output>
        <write-license value="true"/>
        <output-file value="pois.poi.xml"/>
    </output>

    <processing>
        <poi-layer-offset value="5"/>
    </processing>

    <report>
        <verbose value="true"/>
        <xml-validation value="never"/>
    </report>

</configuration>
-->

<additional xmlns:xsi="http://www.w3.org/2001/XMLSchema-instance" xsi:noNamespaceSchemaLocation="http://sumo.dlr.de/xsd/additional_file.xsd">
    <location netOffset="-399345.66,-5809365.64" convBoundary="-10479.35,-2992.58,3720.62,3921.44" origBoundary="13.364829,52.398418,13.574340,52.459643" projParameter="+proj=utm +zone=33 +ellps=WGS84 +datum=WGS84 +units=m +no_defs"/>

    <poly id="12875811" type="amenity" color="237,199,199" fill="1" layer="-1.00" shape="889.844946,301.186070 850.539024,291.502818 844.227340,296.871712 883.492082,333.337833 878.621706,352.074027 789.791684,261.281635 826.193456,242.494416 828.359862,234.294499 840.616958,205.516535 868.775841,183.392158 902.644816,183.872855 934.033966,205.945480 945.164338,236.585214 941.166712,269.857405 922.314170,290.045592 889.844946,301.186070"/>
    <poly id="12875811#1" type="building" color="255,230,230" fill="1" layer="-1.00" shape="889.844946,301.186070 850.539024,291.502818 844.227340,296.871712 883.492082,333.337833 878.621706,352.074027 789.791684,261.281635 826.193456,242.494416 828.359862,234.294499 840.616958,205.516535 868.775841,183.392158 902.644816,183.872855 934.033966,205.945480 945.164338,236.585214 941.166712,269.857405 922.314170,290.045592 889.844946,301.186070"/>
    <poly id="24059329" type="landuse" color="194,194,130" fill="1" layer="-3.00" shape="568.955137,48.557688 584.707641,19.118158 548.455306,-100.312609 465.439065,-77.068405 478.864975,60.674398 568.955137,48.557688"/>
    <poly id="24153480" type="building" color="255,230,230" fill="1" layer="-1.00" shape="1085.247036,348.461508 1110.944595,319.990524 1099.619872,308.570254 1075.079979,336.439247 1085.247036,348.461508"/>
    <poly id="24153488" type="building" color="255,230,230" fill="1" layer="-1.00" shape="1133.090402,382.786303 1154.842508,357.978265 1146.430257,350.649191 1124.684957,375.457129 1133.090402,382.786303"/>
    <poly id="24153502" type="building" color="255,230,230" fill="1" layer="-1.00" shape="998.593027,364.771884 956.453771,416.876450 914.839506,379.867751 925.262026,366.927213 931.567862,371.995429 954.191751,391.876041 986.117505,353.964926 998.593027,364.771884"/>
    <poly id="24153509" type="building" color="255,230,230" fill="1" layer="-1.00" shape="948.020391,378.348743 988.730885,327.886472 969.322975,312.313267 925.262026,366.927213 931.567862,371.995429 934.918375,367.843919 948.020391,378.348743"/>
    <poly id="24153519" type="building" color="255,230,230" fill="1" layer="-1.00" shape="1037.090767,485.272750 1047.065195,473.710144 1001.020553,434.164649 991.046146,445.727348 1037.090767,485.272750"/>
    <poly id="24153527" type="building" color="255,230,230" fill="1" layer="-1.00" shape="1060.743741,470.740212 1079.032230,448.906092 1068.848650,440.422486 1050.567196,462.267628 1060.743741,470.740212"/>
    <poly id="24153530" type="building" color="255,230,230" fill="1" layer="-1.00" shape="1030.393716,407.220920 1021.466818,398.667423 1002.661619,421.179840 1012.734195,428.541764 1030.393716,407.220920"/>
    <poly id="24153543" type="building" color="255,230,230" fill="1" layer="-1.00" shape="1082.210765,428.880317 1099.332989,409.896105 1100.957475,403.465321 1099.073627,397.094488 1092.023899,394.911834 1087.454211,399.655400 1070.325195,418.639791 1082.210765,428.880317"/>
    <poly id="24153549" type="building" color="255,230,230" fill="1" layer="-1.00" shape="1038.737321,386.667582 1026.839834,375.848807 1050.174475,346.257089 1059.692901,354.798651 1066.801758,359.895267 1070.468317,367.976858 1065.915492,373.888410 1058.948221,375.776516 1053.032426,371.824036 1038.737321,386.667582"/>
    <poly id="24153556" type="building" color="255,230,230" fill="1" layer="-1.00" shape="859.554239,460.446353 902.924786,410.096193 891.019066,399.889876 847.648542,450.240141 859.554239,460.446353"/>
    <poly id="24153558" type="building" color="255,230,230" fill="1" layer="-1.00" shape="909.750918,474.303617 931.974152,447.649064 915.938244,433.999333 895.426814,458.872306 909.750918,474.303617"/>
    <poly id="24153573" type="building" color="255,230,230" fill="1" layer="-1.00" shape="896.018287,545.626705 906.320973,535.514738 848.098628,485.458303 812.171858,527.535200 823.473065,537.786986 849.675044,505.810498 896.018287,545.626705"/>
    <poly id="24153587" type="university" color="237,199,199" fill="1" layer="-2.00" shape="801.299719,452.049666 768.308208,494.645831 742.812479,475.369665 702.615016,450.562229 670.724429,432.573689 719.243280,378.601049 729.972087,389.442867 706.580271,416.122127 719.027791,425.193186 741.893965,401.428758 753.219343,412.848213 733.818727,434.784087 745.710174,445.613420 767.425788,422.462224 778.142640,432.725792 756.427025,455.876942 770.095918,467.827379 792.396220,444.664407 801.299719,452.049666"/>
    <poly id="24153587#1" type="building" color="255,230,230" fill="1" layer="-1.00" shape="801.299719,452.049666 768.308208,494.645831 742.812479,475.369665 702.615016,450.562229 670.724429,432.573689 719.243280,378.601049 729.972087,389.442867 706.580271,416.122127 719.027791,425.193186 741.893965,401.428758 753.219343,412.848213 733.818727,434.784087 745.710174,445.613420 767.425788,422.462224 778.142640,432.725792 756.427025,455.876942 770.095918,467.827379 792.396220,444.664407 801.299719,452.049666"/>
    <poly id="24153599" type="building" color="255,230,230" fill="1" layer="-1.00" shape="824.460604,385.196847 837.550238,368.630243 797.776639,336.247218 785.820938,351.043981 824.460604,385.196847"/>
    <poly id="24153617" type="building" color="255,230,230" fill="1" layer="-1.00" shape="817.423881,441.240628 849.920982,402.727255 838.643258,393.643235 823.787889,409.667120 796.485484,387.512167 800.476797,382.768948 782.638996,366.830758 784.899978,363.291004 765.267301,345.052734 751.593373,361.642541 779.516304,385.531544 776.717898,391.407717 814.725415,423.247857 806.718884,431.555327 817.423881,441.240628"/>
    <poly id="24153620" type="building" color="255,230,230" fill="1" layer="-1.00" shape="773.356654,340.815910 787.089936,327.140172 746.624468,289.530899 732.938450,305.531281 773.356654,340.815910"/>
    <poly id="24153627" type="building" color="255,230,230" fill="1" layer="-1.00" shape="503.308101,324.181181 517.354060,383.289664 568.416480,396.814307 598.668121,363.007076 585.022074,352.213814 564.535698,378.256007 529.303905,367.913746 520.159101,320.343965 503.308101,324.181181"/>
    <poly id="24153633" type="building" color="255,230,230" fill="1" layer="-1.00" shape="556.226852,221.448750 550.050213,155.971128 579.378008,153.215209 585.554257,218.692863 556.226852,221.448750"/>
    <poly id="24153683" type="building" color="255,230,230" fill="1" layer="-1.00" shape="618.418730,357.942843 661.712662,305.233200 694.371350,332.519181 702.915054,321.863983 672.600110,295.108849 689.697762,274.966496 633.307160,228.947590 621.894023,241.986812 667.645084,281.234452 652.766357,296.102149 610.575822,259.686245 588.388937,288.088434 609.180128,305.723846 623.426680,288.543385 638.301288,302.215837 603.556002,344.848805 618.418730,357.942843"/>
    <poly id="24153689" type="amenity" color="237,199,199" fill="1" layer="-1.00" shape="1006.921016,207.270904 1016.448561,196.117882 948.920422,138.771705 939.399933,149.935842 1006.921016,207.270904"/>
    <poly id="24153689#1" type="building" color="255,230,230" fill="1" layer="-1.00" shape="1006.921016,207.270904 1016.448561,196.117882 948.920422,138.771705 939.399933,149.935842 1006.921016,207.270904"/>
    <poly id="24153690" type="amenity" color="237,199,199" fill="1" layer="-1.00" shape="981.679559,236.434160 995.072828,220.707483 979.958250,207.906732 966.565216,223.644572 981.679559,236.434160"/>
    <poly id="24153690#1" type="building" color="255,230,230" fill="1" layer="-1.00" shape="981.679559,236.434160 995.072828,220.707483 979.958250,207.906732 966.565216,223.644572 981.679559,236.434160"/>
    <poly id="24153691" type="amenity" color="237,199,199" fill="1" layer="-1.00" shape="914.256296,155.764678 912.476604,138.120404 857.330946,143.657288 859.110610,161.290423 914.256296,155.764678"/>
    <poly id="24153691#1" type="building" color="255,230,230" fill="1" layer="-1.00" shape="914.256296,155.764678 912.476604,138.120404 857.330946,143.657288 859.110610,161.290423 914.256296,155.764678"/>
    <poly id="24156289" type="commercial" color="209,209,204" fill="1" layer="-3.00" shape="2068.416333,311.503295 1961.049545,430.121366 1822.376879,588.381713 1732.479529,675.209808 1687.914735,723.273305 1608.928833,830.245926 1443.909175,1040.855019 1393.156955,1100.106335 1347.697169,1132.469192 1327.555581,1117.732901 1220.448309,1247.412043 1212.833249,1242.770559 1179.550315,1216.795850 1123.303875,1281.190677 1007.395770,1189.430347 770.275303,981.145890 530.570762,761.853802 510.484553,750.034828 437.300571,825.475670 432.969457,841.864765 403.837070,873.324837 289.051967,769.106956 372.398605,677.155687 329.933454,655.891379 -53.232900,673.054214 4.631397,334.703749 18.553506,330.346198 201.524024,342.324627 316.667789,349.296417 392.742003,358.225080 484.824510,379.056888 490.578001,346.327020 493.486081,317.148967 486.359899,239.829601 482.280664,195.539169 479.415786,164.442596 476.244443,129.991987 472.137555,100.367218 613.089109,84.110347 1135.550846,23.999623 1160.179674,29.320221 1369.926410,8.187982 1390.677379,-5.038033 1614.409399,-27.599396 1634.752101,-32.092804 1726.839708,-39.766603 1828.503692,-35.992747 1884.518451,-38.687680 1794.551084,51.734113 1874.760108,121.165061 2068.416333,311.503295"/>
    <poly id="24900268" type="building" color="255,230,230" fill="1" layer="-1.00" shape="433.421885,453.920080 443.213503,418.782281 525.917760,438.059181 516.120614,472.618318 433.421885,453.920080"/>
    <poly id="24900284" type="building" color="255,230,230" fill="1" layer="-1.00" shape="360.561976,545.077468 357.345905,559.118364 352.806138,565.620065 347.032556,568.653144 338.860825,568.819971 323.633994,566.215644 316.631592,566.358631 311.972869,567.032359 307.839530,564.791269 304.839859,560.780123 304.053031,550.893344 309.106099,540.887301 313.705341,537.299565 318.941964,536.614038 325.240967,530.666105 329.231714,525.922496 336.151065,521.708818 340.833449,522.191817 346.642730,520.904910 352.392758,516.715126 357.576726,513.115497 364.614843,514.718748 369.946380,518.682338 370.112767,526.834879 367.314932,532.711293 361.565138,536.912182 360.561976,545.077468"/>
    <poly id="25944606" type="tourism" color="207,245,201" fill="1" layer="-2.00" shape="595.422710,556.345197 603.823570,538.705097 542.015199,513.760455 511.459889,503.901664 396.411263,473.056537 343.578240,458.412648 347.274560,468.228908 355.601061,475.636286 385.219931,496.573261 408.796903,507.741951 499.024166,552.478733 513.732448,558.009386 595.422710,556.345197"/>
    <poly id="26004781" type="tourism" color="207,245,201" fill="1" layer="-2.00" shape="942.575438,557.143663 1002.485419,488.956403 1055.912711,532.713931 994.844982,601.502611 942.575438,557.143663"/>
    <poly id="28330140" type="residential" color="235,235,227" fill="1" layer="-3.00" shape="24.001050,-2750.426761 64.456826,-2771.649573 109.013428,-2792.377274 174.998783,-2822.276820 209.176438,-2836.371436 247.956553,-2854.064676 278.630978,-2868.087287 304.619735,-2882.603832 321.924106,-2893.449318 379.545841,-2924.421632 394.450797,-2938.133143 464.030215,-2992.580719 641.663965,-2864.410652 740.600741,-2796.489890 817.059407,-2742.108420 820.332535,-2724.694812 985.137189,-2605.676800 1124.974315,-2507.700704 1222.283114,-2432.761297 1338.954471,-2353.549010 1436.221725,-2280.351604 1568.800863,-2164.759280 1651.014449,-2084.845557 1744.085666,-1987.680099 1850.865769,-1876.223674 1904.005850,-1789.312790 1993.516282,-1665.278464 2094.300655,-1503.026131 2124.746752,-1469.844774 2182.314865,-1365.562182 2221.761856,-1291.214002 2270.405545,-1224.037098 2316.158117,-1126.504138 2338.169568,-1105.981828 2367.914361,-1049.485916 2404.438782,-975.077969 2440.036680,-888.423119 2463.111761,-814.914356 2473.239293,-717.269197 2443.538065,-713.170992 2303.283690,-602.616534 2308.216214,-589.329890 2259.367760,-550.488371 2238.787230,-528.524058 2201.711451,-455.569697 2311.836619,-379.142384 2402.550203,-309.913059 2413.522509,-303.100358 2442.691042,-333.391382 2489.132060,-376.244251 2489.701838,-347.715850 2487.354350,-319.140309 2485.550209,-292.311370 2483.694690,-268.396577 2480.084915,-244.446741 2474.727710,-220.461994 2469.335678,-198.223423 2463.328817,-177.140856 2456.709395,-157.781793 2442.600187,-117.354994 2419.909584,-84.289354 2352.149729,1.505552 2046.058473,-65.164026 2044.714541,-102.989949 1952.494082,-116.426768 1939.320720,-118.343015 1802.533047,-126.653538 1801.090075,-111.481111 1628.251618,-112.663691 1665.789554,-74.988334 1412.459585,-43.664792 1287.221014,-29.495656 916.152117,11.223201 600.994876,45.001196 584.707641,19.118158 568.955137,48.557688 517.743400,56.588527 478.864975,60.674398 297.544049,80.296235 268.839938,75.641770 254.029948,64.884285 237.559584,-26.797758 212.534852,-22.792562 183.107336,-120.028932 175.515614,-201.566633 420.156064,-262.896831 382.169157,-407.715813 320.844952,-522.950590 317.069622,-536.270161 318.448742,-554.357068 326.361048,-567.325488 227.577295,-744.115561 228.430665,-759.287665 249.540858,-783.596951 260.430016,-793.722181 338.082289,-822.679297 874.321922,-985.617472 751.496358,-1081.561191 711.450255,-1126.767425 680.793018,-1198.378872 284.776995,-1088.366627 283.478906,-1123.289298 302.033122,-1244.248802 310.862505,-1298.015497 331.752294,-1361.942209 394.328719,-1385.939486 365.216955,-1476.217964 323.460050,-1605.270939 485.106771,-1659.838653 426.888455,-1794.387472 222.482577,-1736.619347 175.668136,-1912.767624 89.106928,-2146.952331 145.862935,-2170.833429 244.186789,-2218.294662 108.558087,-2538.310877 24.001050,-2750.426761"/>
    <poly id="4616435" type="water" color="181,209,209" fill="1" layer="-4.00" shape="-4212.110618,3913.440783 -4192.136217,3865.300658 -4188.038573,3853.162380 -4050.109656,3545.144287 -3988.575189,3390.332843 -3923.330557,3241.641136 -3843.986871,3048.987408 -3781.670201,2907.626310 -3737.452418,2849.492470 -3671.160823,2769.826349 -3594.046175,2695.483847 -3448.312283,2571.952074 -3301.788986,2451.323482 -3121.213622,2300.860239 -2396.825159,1702.516650 -2347.375257,1676.944361 -2216.540723,1570.621232 -2062.288367,1446.042256 -2035.704238,1402.547406 -1712.541874,1138.157700 -1622.406191,1066.291849 -1433.226530,916.249339 -868.457575,453.507189 -675.669638,332.072634 -400.674146,227.748003 -216.443257,189.514254 -37.332353,159.214556 473.825745,97.428715 516.598627,91.538788 1134.907107,21.097457 1161.290364,26.393661 1370.428903,4.105456 1390.033788,-7.940230 1612.638906,-29.722294 1634.705719,-35.407622 1724.472882,-42.456123 1812.929848,-40.252613 1884.518451,-38.687680 2010.955477,-22.011371 2330.232916,32.731403 2329.460335,33.892904 2340.416718,29.401078 2393.372736,38.756502 2434.411758,54.581563 2444.435157,65.007177 2857.635248,139.370979 2889.102135,136.408284 2940.675036,146.453518 2968.026577,150.660798 3024.414816,159.342751 3032.876390,173.739362 3285.085486,221.019428 3295.555156,219.065119 3498.290097,256.977589 3508.336229,263.187875 3546.404849,269.422921 3563.888701,267.909160 3578.409952,264.128536 3593.558761,262.505239 3652.187650,275.266883 3678.654775,292.980909 3680.763952,294.396864 3697.705023,318.118169 3707.115554,337.292691 3716.208819,270.398533 3720.624029,229.421389 3682.523950,234.690462 3652.306645,239.259022 3634.380242,237.999565 3621.491995,236.651814 3577.606539,232.066553 3078.450401,142.380767 3051.277353,126.608802 2944.595655,104.862230 2866.040664,88.366269 2825.765073,88.589277 2493.321297,30.005243 2457.546470,21.985536 2442.055707,22.862543 2417.661079,21.347322 2406.730627,20.675697 2355.568248,10.204964 2352.241081,2.672022 2042.145426,-59.833729 1954.225666,-77.284561 1813.293945,-88.438436 1690.942167,-76.073474 1667.635291,-73.857209 1412.459585,-43.664792 1287.221014,-29.495656 916.152117,11.223201 600.994876,45.001196 584.707641,19.118158 568.955137,48.557688 517.743400,56.588527 297.544049,80.296235 268.839938,75.641770 -410.548471,167.977394 -687.827126,274.875347 -746.909380,311.688999 -818.051372,356.018258 -890.058554,400.878307 -1727.064618,1095.899726 -2034.619215,1351.329469 -2325.332363,1592.818175 -2784.490966,1974.287350 -3134.319291,2264.974180 -3615.671751,2665.109751 -3688.454767,2735.666324 -3759.885673,2815.998313 -3820.634302,2896.315532 -3843.364253,2934.186464 -3847.283950,2940.712509 -3893.310154,3036.095133 -3962.555580,3221.491018 -4014.314833,3353.182719 -4088.364496,3528.646503 -4136.706370,3640.827671 -4209.172860,3731.203587 -4277.310063,3794.404518 -4332.789633,3830.263218 -4402.356987,3864.298784 -4310.326308,3919.523694 -4212.110618,3913.440783"/>
    <poly id="4616435#1" type="water" color="181,209,209" fill="1" layer="-4.00" shape="-4212.110618,3913.440783 -4192.136217,3865.300658 -4188.038573,3853.162380 -4050.109656,3545.144287 -3988.575189,3390.332843 -3923.330557,3241.641136 -3843.986871,3048.987408 -3781.670201,2907.626310 -3737.452418,2849.492470 -3671.160823,2769.826349 -3594.046175,2695.483847 -3448.312283,2571.952074 -3301.788986,2451.323482 -3121.213622,2300.860239 -2396.825159,1702.516650 -2347.375257,1676.944361 -2216.540723,1570.621232 -2062.288367,1446.042256 -2035.704238,1402.547406 -1712.541874,1138.157700 -1622.406191,1066.291849 -1433.226530,916.249339 -868.457575,453.507189 -675.669638,332.072634 -400.674146,227.748003 -216.443257,189.514254 -37.332353,159.214556 473.825745,97.428715 516.598627,91.538788 1134.907107,21.097457 1161.290364,26.393661 1370.428903,4.105456 1390.033788,-7.940230 1612.638906,-29.722294 1634.705719,-35.407622 1724.472882,-42.456123 1812.929848,-40.252613 1884.518451,-38.687680 2010.955477,-22.011371 2330.232916,32.731403 2329.460335,33.892904 2340.416718,29.401078 2393.372736,38.756502 2434.411758,54.581563 2444.435157,65.007177 2857.635248,139.370979 2889.102135,136.408284 2940.675036,146.453518 2968.026577,150.660798 3024.414816,159.342751 3032.876390,173.739362 3285.085486,221.019428 3295.555156,219.065119 3498.290097,256.977589 3508.336229,263.187875 3546.404849,269.422921 3563.888701,267.909160 3578.409952,264.128536 3593.558761,262.505239 3652.187650,275.266883 3678.654775,292.980909 3680.763952,294.396864 3697.705023,318.118169 3707.115554,337.292691 3716.208819,270.398533 3720.624029,229.421389 3682.523950,234.690462 3652.306645,239.259022 3634.380242,237.999565 3621.491995,236.651814 3577.606539,232.066553 3078.450401,142.380767 3051.277353,126.608802 2944.595655,104.862230 2866.040664,88.366269 2825.765073,88.589277 2493.321297,30.005243 2457.546470,21.985536 2442.055707,22.862543 2417.661079,21.347322 2406.730627,20.675697 2355.568248,10.204964 2352.241081,2.672022 2042.145426,-59.833729 1954.225666,-77.284561 1813.293945,-88.438436 1690.942167,-76.073474 1667.635291,-73.857209 1412.459585,-43.664792 1287.221014,-29.495656 916.152117,11.223201 600.994876,45.001196 584.707641,19.118158 568.955137,48.557688 517.743400,56.588527 297.544049,80.296235 268.839938,75.641770 -410.548471,167.977394 -687.827126,274.875347 -746.909380,311.688999 -818.051372,356.018258 -890.058554,400.878307 -1727.064618,1095.899726 -2034.619215,1351.329469 -2325.332363,1592.818175 -2784.490966,1974.287350 -3134.319291,2264.974180 -3615.671751,2665.109751 -3688.454767,2735.666324 -3759.885673,2815.998313 -3820.634302,2896.315532 -3843.364253,2934.186464 -3847.283950,2940.712509 -3893.310154,3036.095133 -3962.555580,3221.491018 -4014.314833,3353.182719 -4088.364496,3528.646503 -4136.706370,3640.827671 -4209.172860,3731.203587 -4277.310063,3794.404518 -4332.789633,3830.263218 -4402.356987,3864.298784 -4310.326308,3919.523694 -4212.110618,3913.440783"/>
    <poly id="5363708" type="water" color="181,209,209" fill="0" layer="-4.00" shape="3716.208819,270.398533 3574.883889,249.177346 3475.306903,232.508547 3099.786834,166.001716 3031.564390,140.563677 2962.020098,130.785708 2872.764401,111.108773 2816.747145,112.223687 1999.987160,-44.890153 1841.037619,-61.135140 1749.242525,-63.238609 1205.055021,-1.129527 1104.593187,10.139621 536.954780,71.073602 291.520420,99.089998 268.095972,95.496033 -185.382470,159.524224 -403.576116,195.450826 -656.743815,290.346114 -865.995314,419.274543 -1417.396576,866.038413 -2131.860004,1462.696996 -2730.190535,1953.894234 -3382.430960,2497.873545 -3683.926692,2753.273374 -3802.064771,2900.938781 -3869.402577,3044.320917 -3935.390189,3212.277534 -4102.987360,3617.130326 -4170.341913,3736.215960 -4242.514235,3888.920730 -4516.926667,3917.681601 -4692.073205,3921.437633 -5017.223849,3862.353436 -5392.605614,3802.762017 -5635.403789,3774.175500 -5805.497155,3739.183106 -6065.374859,3649.732122 -6279.295847,3591.540310 -6461.520033,3587.457039 -6661.632995,3620.836868 -6913.191148,3715.784938 -7168.308661,3808.265119 -7430.196277,3851.257306 -7607.063481,3853.085435 -7828.795494,3825.911627 -8159.602667,3723.605859 -8618.935300,3553.844125 -8902.344499,3453.625821 -9195.475602,3343.303479 -9421.629762,3261.484874 -9590.596560,3193.903807 -9694.802046,3140.395400 -9819.986127,3053.232711 -10164.147925,2755.868728 -10433.064656,2517.848856 -10479.345501,2484.923281"/>
    <poi id="115543889" type="amenity" color="237,199,199" layer="4.00" x="765.49" y="490.94"/>
    <poi id="115544715" type="amenity" color="237,199,199" layer="4.00" x="741.39" y="467.93"/>
    <poi id="115546494" type="amenity" color="237,199,199" layer="4.00" x="712.70" y="443.59"/>
    <poi id="289593483" type="amenity" color="237,199,199" layer="4.00" x="890.21" y="375.84"/>
    <poi id="289631159" type="amenity" color="237,199,199" layer="4.00" x="770.88" y="370.52"/>
    <poi id="294830283" type="parking" color="184,184,179" layer="4.00" x="945.51" y="478.40"/>
    <poi id="294831640" type="parking" color="184,184,179" layer="4.00" x="522.64" y="266.87"/>
</additional>
