<?xml version="1.0"?>

<!-- generated on 07/31/08 15:18:31 by SUMO netconvert Version dev-SVN-r5892
<configuration>

   <input>
      <xml-node-files>input_nodes.nod.xml</xml-node-files>
      <xml-edge-files>input_edges.edg.xml</xml-edge-files>
   </input>

   <processing>
      <speed-in-kmh>true</speed-in-kmh>
   </processing>

</configuration>
-->

<net>

   <net-offset>50.00,50.00</net-offset>
   <conv-boundary>0.00,0.00,100.00,100.00</conv-boundary>
   <orig-boundary>-50.00,-50.00,50.00,50.00</orig-boundary>
   <orig-proj>!</orig-proj>

   <edges no="5">1o 3i 3o 4i 4o</edges>
   <node_count>5</node_count>


   <edge id="1o" from="0" to="1" priority="-1" type="" function="normal">
      <lanes>
         <lane id="1o_0" depart="1" vclasses="" maxspeed="9.73" length="45.25">45.25,54.95 0.00,54.95</lane>
         <lane id="1o_1" depart="0" vclasses="" maxspeed="9.73" length="45.25">45.25,51.65 0.00,51.65</lane>
      </lanes>
   </edge>

   <edge id="3i" from="3" to="0" priority="-1" type="" function="normal">
      <lanes>
         <lane id="3i_0" depart="1" vclasses="" maxspeed="15.28" length="48.55">51.65,0.00 51.65,48.55</lane>
      </lanes>
      <cedge id="4o">3i_0</cedge>
      <cedge id="1o">3i_0</cedge>
      <cedge id="3o">3i_0</cedge>
   </edge>

   <edge id="3o" from="0" to="3" priority="-1" type="" function="normal">
      <lanes>
         <lane id="3o_0" depart="1" vclasses="" maxspeed="15.28" length="48.55">48.35,48.55 48.35,0.00</lane>
      </lanes>
      <cedge id="3i">3o_0</cedge>
   </edge>

   <edge id="4i" from="4" to="0" priority="-1" type="" function="normal">
      <lanes>
         <lane id="4i_0" depart="1" vclasses="" maxspeed="15.28" length="41.95">48.35,100.00 48.35,58.05</lane>
      </lanes>
      <cedge id="1o">4i_0</cedge>
      <cedge id="3o">4i_0</cedge>
      <cedge id="4o">4i_0</cedge>
   </edge>

   <edge id="4o" from="0" to="4" priority="-1" type="" function="normal">
      <lanes>
         <lane id="4o_0" depart="1" vclasses="" maxspeed="15.28" length="41.95">51.65,58.05 51.65,100.00</lane>
      </lanes>
      <cedge id="4i">4o_0</cedge>
   </edge>


   <row-logic>
      <key>0</key>
      <requestsize>6</requestsize>
      <lanenumber>2</lanenumber>
      <logic>
         <logicitem request="0" response="000000" foes="010000"/>
         <logicitem request="1" response="000000" foes="110000"/>
         <logicitem request="2" response="001000" foes="001000"/>
         <logicitem request="3" response="000000" foes="000100"/>
         <logicitem request="4" response="000000" foes="000011"/>
         <logicitem request="5" response="000010" foes="000010"/>
      </logic>
   </row-logic>

   <row-logic>
      <key>3</key>
      <requestsize>1</requestsize>
      <lanenumber>1</lanenumber>
      <logic>
         <logicitem request="0" response="0" foes="0"/>
      </logic>
   </row-logic>

   <row-logic>
      <key>4</key>
      <requestsize>1</requestsize>
      <lanenumber>1</lanenumber>
      <logic>
         <logicitem request="0" response="0" foes="0"/>
      </logic>
   </row-logic>



   <junction id="0" type="priority" x="50.00" y="50.00">
      <inclanes>4i_0 3i_0</inclanes>
      <shape>46.75,58.05 53.25,58.05 53.25,48.55 46.75,48.55 45.25,50.05 45.25,56.55</shape>
   </junction>

   <junction id="1" type="DEAD_END" x="0.00" y="50.00">
      <inclanes>1o_0 1o_1</inclanes>
      <shape>0.00,56.55 0.00,50.05</shape>
   </junction>

   <junction id="2" type="DEAD_END" x="100.00" y="50.00">
      <inclanes></inclanes>
      <shape></shape>
   </junction>

   <junction id="3" type="priority" x="50.00" y="0.00">
      <inclanes>3o_0</inclanes>
      <shape>50.05,-0.00 53.25,-0.00 46.75,0.00 49.95,0.00</shape>
   </junction>

   <junction id="4" type="priority" x="50.00" y="100.00">
      <inclanes>4o_0</inclanes>
      <shape>49.95,100.00 46.75,100.00 53.25,100.00 50.05,100.00</shape>
   </junction>


   <succ edge="1o" lane="1o_0" junction="1">
      <succlane lane="SUMO_NO_DESTINATION" yield="1" dir="s" state="O"/>
   </succ>

   <succ edge="1o" lane="1o_1" junction="1">
      <succlane lane="SUMO_NO_DESTINATION" yield="1" dir="s" state="O"/>
   </succ>

   <succ edge="3i" lane="3i_0" junction="0">
      <succlane lane="4o_0" yield="0" dir="s" state="M"/>
      <succlane lane="1o_1" yield="1" dir="l" state="m"/>
      <succlane lane="3o_0" yield="1" dir="t" state="m"/>
   </succ>

   <succ edge="3o" lane="3o_0" junction="3">
      <succlane lane="3i_0" yield="0" dir="t" state="M"/>
   </succ>

   <succ edge="4i" lane="4i_0" junction="0">
      <succlane lane="1o_0" yield="0" dir="r" state="M"/>
      <succlane lane="3o_0" yield="0" dir="s" state="M"/>
      <succlane lane="4o_0" yield="1" dir="t" state="m"/>
   </succ>

   <succ edge="4o" lane="4o_0" junction="4">
      <succlane lane="4i_0" yield="0" dir="t" state="M"/>
   </succ>


</net>
