<?xml version="1.0"?>

<!-- generated on Mon Mar 21 15:37:35 2011 by SUMO netconvert Version dev-SVN-r9933
<?xml version="1.0" encoding="iso-8859-1"?>

<configuration xmlns:xsi="http://www.w3.org/2001/XMLSchema-instance" xsi:noNamespaceSchemaLocation="http://sumo.sf.net/xsd/netconvertConfiguration.xsd">

    <input>
        <xml-node-files value="input_nodes.nod.xml"/>
        <xml-edge-files value="input_edges.edg.xml"/>
    </input>

    <processing>
        <speed-in-kmh value="true"/>
    </processing>

</configuration>
-->

<net>

   <location netOffset="50.00,50.00" convBoundary="0.00,0.00,100.00,100.00" origBoundary="-50.00,-50.00,50.00,50.00" projParameter="!"/>

   <edge id=":0_0" function="internal">
      <lane id=":0_0_0" depart="0" maxspeed="12.50" length="5.00" shape="48.35,58.05 48.16,56.69 47.58,55.73 46.61,55.14 45.25,54.95"/>
   </edge>
   <edge id=":0_1" function="internal">
      <lane id=":0_1_0" depart="0" maxspeed="15.28" length="9.50" shape="48.35,58.05 48.35,48.55"/>
   </edge>
   <edge id=":0_2" function="internal">
      <lane id=":0_2_0" depart="0" maxspeed="15.28" length="4.82" shape="48.35,58.05 49.18,56.81 50.00,56.40 50.83,56.81 51.65,58.05"/>
   </edge>
   <edge id=":0_3" function="internal">
      <lane id=":0_3_0" depart="0" maxspeed="15.28" length="9.50" shape="51.65,48.55 51.65,58.05"/>
   </edge>
   <edge id=":0_4" function="internal">
      <lane id=":0_4_0" depart="0" maxspeed="12.50" length="7.85" shape="51.65,48.55 51.25,49.91 50.05,50.88 48.05,51.46 45.25,51.65"/>
   </edge>
   <edge id=":0_5" function="internal">
      <lane id=":0_5_0" depart="0" maxspeed="15.28" length="4.82" shape="51.65,48.55 50.82,49.79 50.00,50.20 49.17,49.79 48.35,48.55"/>
   </edge>
   <edge id=":3_0" function="internal">
      <lane id=":3_0_0" depart="0" maxspeed="15.28" length="4.82" shape="48.35,0.00 49.18,-1.24 50.00,-1.65 50.83,-1.24 51.65,0.00"/>
   </edge>
   <edge id=":4_0" function="internal">
      <lane id=":4_0_0" depart="0" maxspeed="15.28" length="4.82" shape="51.65,100.00 50.82,101.24 50.00,101.65 49.17,101.24 48.35,100.00"/>
   </edge>

   <edge id="1o" from="0" to="1" priority="-1" type="" function="normal">
      <lane id="1o_0" depart="1" maxspeed="9.73" length="45.25" shape="45.25,54.95 0.00,54.95"/>
      <lane id="1o_1" depart="0" maxspeed="9.73" length="45.25" shape="45.25,51.65 0.00,51.65"/>
   </edge>
   <edge id="3i" from="3" to="0" priority="-1" type="" function="normal">
      <lane id="3i_0" depart="1" maxspeed="15.28" length="48.55" shape="51.65,0.00 51.65,48.55"/>
   </edge>
   <edge id="3o" from="0" to="3" priority="-1" type="" function="normal">
      <lane id="3o_0" depart="1" maxspeed="15.28" length="48.55" shape="48.35,48.55 48.35,0.00"/>
   </edge>
   <edge id="4i" from="4" to="0" priority="-1" type="" function="normal">
      <lane id="4i_0" depart="1" maxspeed="15.28" length="41.95" shape="48.35,100.00 48.35,58.05"/>
   </edge>
   <edge id="4o" from="0" to="4" priority="-1" type="" function="normal">
      <lane id="4o_0" depart="1" maxspeed="15.28" length="41.95" shape="51.65,58.05 51.65,100.00"/>
   </edge>

   <row-logic id="0" requestSize="6" laneNumber="2">
      <logicitem request="0" response="000000" foes="010000" cont="0"/>
      <logicitem request="1" response="000000" foes="110000" cont="0"/>
      <logicitem request="2" response="001000" foes="001000" cont="0"/>
      <logicitem request="3" response="000000" foes="000100" cont="0"/>
      <logicitem request="4" response="000011" foes="000011" cont="0"/>
      <logicitem request="5" response="000010" foes="000010" cont="0"/>
   </row-logic>
   <row-logic id="3" requestSize="1" laneNumber="1">
      <logicitem request="0" response="0" foes="0" cont="0"/>
   </row-logic>
   <row-logic id="4" requestSize="1" laneNumber="1">
      <logicitem request="0" response="0" foes="0" cont="0"/>
   </row-logic>

   <junction id="0" type="traffic_light" x="50.00" y="50.00" incLanes="4i_0 3i_0" intLanes=":0_0_0 :0_1_0 :0_2_0 :0_3_0 :0_4_0 :0_5_0" shape="46.75,58.05 53.25,58.05 53.25,48.55 46.75,48.55 45.25,50.05 45.25,56.55"/>
   <junction id="1" type="DEAD_END" x="0.00" y="50.00" incLanes="1o_0 1o_1" intLanes="" shape="-0.00,56.55 -0.00,50.05"/>
   <junction id="2" type="DEAD_END" x="100.00" y="50.00" incLanes="" intLanes="" shape=""/>
   <junction id="3" type="priority" x="50.00" y="0.00" incLanes="3o_0" intLanes=":3_0_0" shape="50.05,0.00 53.25,0.00 46.75,-0.00 49.95,-0.00"/>
   <junction id="4" type="priority" x="50.00" y="100.00" incLanes="4o_0" intLanes=":4_0_0" shape="49.95,100.00 46.75,100.00 53.25,100.00 50.05,100.00"/>

   <succ edge="1o" lane="1o_0" junction="1">
      <succlane lane="SUMO_NO_DESTINATION" yield="1" dir="s" state="O"/>
   </succ>
   <succ edge="1o" lane="1o_1" junction="1">
      <succlane lane="SUMO_NO_DESTINATION" yield="1" dir="s" state="O"/>
   </succ>
   <succ edge="3i" lane="3i_0" junction="0">
      <succlane lane="4o_0" via=":0_3_0" yield="0" dir="s" state="M"/>
      <succlane lane="1o_1" via=":0_4_0" yield="1" dir="l" state="m"/>
      <succlane lane="3o_0" via=":0_5_0" yield="1" dir="t" state="m"/>
   </succ>
   <succ edge="3o" lane="3o_0" junction="3">
      <succlane lane="3i_0" via=":3_0_0" yield="0" dir="t" state="M"/>
   </succ>
   <succ edge="4i" lane="4i_0" junction="0">
      <succlane lane="1o_0" via=":0_0_0" yield="0" dir="r" state="M"/>
      <succlane lane="3o_0" via=":0_1_0" yield="0" dir="s" state="M"/>
      <succlane lane="4o_0" via=":0_2_0" yield="1" dir="t" state="m"/>
   </succ>
   <succ edge="4o" lane="4o_0" junction="4">
      <succlane lane="4i_0" via=":4_0_0" yield="0" dir="t" state="M"/>
   </succ>

   <succ edge=":0_0" lane=":0_0_0" junction="0">
      <succlane lane="1o_0" tl="" linkno="" yield="0" dir="s" state="M"/>
   </succ>
   <succ edge=":0_1" lane=":0_1_0" junction="0">
      <succlane lane="3o_0" tl="" linkno="" yield="0" dir="s" state="M"/>
   </succ>
   <succ edge=":0_2" lane=":0_2_0" junction="0">
      <succlane lane="4o_0" tl="" linkno="" yield="0" dir="s" state="M"/>
   </succ>
   <succ edge=":0_3" lane=":0_3_0" junction="0">
      <succlane lane="4o_0" tl="" linkno="" yield="0" dir="s" state="M"/>
   </succ>
   <succ edge=":0_4" lane=":0_4_0" junction="0">
      <succlane lane="1o_1" tl="" linkno="" yield="0" dir="s" state="M"/>
   </succ>
   <succ edge=":0_5" lane=":0_5_0" junction="0">
      <succlane lane="3o_0" tl="" linkno="" yield="0" dir="s" state="M"/>
   </succ>
   <succ edge=":3_0" lane=":3_0_0" junction="3">
      <succlane lane="3i_0" tl="" linkno="" yield="0" dir="s" state="M"/>
   </succ>
   <succ edge=":4_0" lane=":4_0_0" junction="4">
      <succlane lane="4i_0" tl="" linkno="" yield="0" dir="s" state="M"/>
   </succ>

</net>
