<?xml version="1.0" encoding="UTF-8"?>

<!-- generated on 2021-09-16 11:39:34 by Eclipse SUMO netedit Version v1_10_0+0721-94326db740
-->

<routes xmlns:xsi="http://www.w3.org/2001/XMLSchema-instance" xsi:noNamespaceSchemaLocation="http://sumo.dlr.de/xsd/routes_file.xsd">
    <vehicle id="vehicle_2" depart="20.00" departLane="0">
        <route edges="gneE2 gneE4 gneE5" color="cyan"/>
    </vehicle>
    <vehicle id="vehicle_4" depart="20.00" departLane="random">
        <route edges="gneE2 gneE4 gneE5" color="cyan"/>
    </vehicle>
    <vehicle id="vehicle_5" depart="20.00" departLane="free">
        <route edges="gneE2 gneE4 gneE5" color="cyan"/>
    </vehicle>
    <vehicle id="vehicle_6" depart="20.00" departLane="allowed">
        <route edges="gneE2 gneE4 gneE5" color="cyan"/>
    </vehicle>
    <vehicle id="vehicle_7" depart="20.00" departLane="best">
        <route edges="gneE2 gneE4 gneE5" color="cyan"/>
    </vehicle>
    <vehicle id="vehicle_8" depart="20.00" departLane="first">
        <route edges="gneE2 gneE4 gneE5" color="cyan"/>
    </vehicle>
</routes>
