<?xml version="1.0" encoding="UTF-8"?>

<!-- generated on 2023-11-03 10:45:47 by Eclipse SUMO netedit Version v1_18_0+2379-8b85c254a25
-->

<routes xmlns:xsi="http://www.w3.org/2001/XMLSchema-instance" xsi:noNamespaceSchemaLocation="http://sumo.dlr.de/xsd/routes_file.xsd">
    <!-- VTypes -->
    <vType id="bicycle" vClass="bicycle"/>
    <!-- Vehicles, persons and containers (sorted by depart) -->
    <trip id="t_0" type="bicycle" depart="0.00" fromTaz="taz_green" toTaz="taz_green"/>
</routes>
