<additional xmlns:xsi="http://www.w3.org/2001/XMLSchema-instance" xsi:noNamespaceSchemaLocation="https://sumo.dlr.de/xsd/additional_file.xsd">
    <e3Detector id="e3_0_E1C" freq="60" file="e3output.xml" openEntry="true">
        <detEntry lane="E3E2_0" pos="0.10"/>
        <detEntry lane="E3E2_1" pos="0.10"/>
        <detEntry lane="E3E2_2" pos="0.10"/>
        <detExit lane="CE_0" pos="0"/>
        <detExit lane="CN_0" pos="0"/>
        <detExit lane="CS_0" pos="0"/>
        <detExit lane="CW_0" pos="0"/>
    </e3Detector>
    <e3Detector id="e3_0_N1C" freq="60" file="e3output.xml" openEntry="true">
        <detEntry lane="N3bN2b_0" pos="240.31"/>
        <detEntry lane="N3cN2b_0" pos="0.10"/>
        <detEntry lane="NN3_0" pos="232.16"/>
        <detExit lane="CE_0" pos="0"/>
        <detExit lane="CN_0" pos="0"/>
        <detExit lane="CS_0" pos="0"/>
        <detExit lane="CW_0" pos="0"/>
    </e3Detector>
    <e3Detector id="e3_0_S1C" freq="60" file="e3output.xml" openEntry="true">
        <detEntry lane="SS3_0" pos="235.91"/>
        <detExit lane="CE_0" pos="0"/>
        <detExit lane="CN_0" pos="0"/>
        <detExit lane="CS_0" pos="0"/>
        <detExit lane="CW_0" pos="0"/>
    </e3Detector>
    <e3Detector id="e3_0_W1C" freq="60" file="e3output.xml" openEntry="true">
        <detEntry lane="W3W2_0" pos="0.10"/>
        <detEntry lane="W3W2_1" pos="0.10"/>
        <detEntry lane="W3W2_2" pos="0.10"/>
        <detExit lane="CE_0" pos="0"/>
        <detExit lane="CN_0" pos="0"/>
        <detExit lane="CS_0" pos="0"/>
        <detExit lane="CW_0" pos="0"/>
    </e3Detector>
    <e3Detector id="e3_E3_EE3" freq="60" file="e3output.xml" openEntry="true">
        <detEntry lane="EE3_0" pos="0.10"/>
        <detExit lane="E3E2_0" pos="0"/>
        <detExit lane="E3E2_1" pos="0"/>
        <detExit lane="E3E2_2" pos="0"/>
    </e3Detector>
</additional>
