<?xml version="1.0" encoding="UTF-8"?>

<!-- generated on 2024-06-28 11:41:50 by Eclipse SUMO netedit Version v1_20_0+0903-50ed8d6b852
This data file and the accompanying materials
are made available under the terms of the Eclipse Public License v2.0
which accompanies this distribution, and is available at
http://www.eclipse.org/legal/epl-v20.html
This file may also be made available under the following Secondary
Licenses when the conditions for such availability set forth in the Eclipse
Public License 2.0 are satisfied: GNU General Public License, version 2
or later which is available at
https://www.gnu.org/licenses/old-licenses/gpl-2.0-standalone.html
SPDX-License-Identifier: EPL-2.0 OR GPL-2.0-or-later
<neteditConfiguration xmlns:xsi="http://www.w3.org/2001/XMLSchema-instance" xsi:noNamespaceSchemaLocation="http://sumo.dlr.de/xsd/neteditConfiguration.xsd">

    <input>
        <additional-files value="C:\Users\alva_pa\.texttest\tmp\netedit.gui.28Jun114019.6628\netedit.gui\network\junctions\inspect\id\additionals.add.xml"/>
        <route-files value="C:\Users\alva_pa\.texttest\tmp\netedit.gui.28Jun114019.6628\netedit.gui\network\junctions\inspect\id\routes.rou.xml"/>
        <data-files value="C:\Users\alva_pa\.texttest\tmp\netedit.gui.28Jun114019.6628\netedit.gui\network\junctions\inspect\id\datas.dat.xml"/>
        <sumo-net-file value="D:\Netedit_dev\tests\netedit\network\junctions\inspect\net.net.xml"/>
    </input>

    <output>
        <write-license value="true"/>
        <output-file value="D:\Netedit_dev\tests\netedit\network\junctions\inspect\net.net.xml"/>
    </output>

    <processing>
        <geometry.min-radius.fix.railways value="false"/>
        <geometry.max-grade.fix value="false"/>
        <offset.disable-normalization value="true"/>
        <lefthand value="0"/>
    </processing>

    <junctions>
        <no-turnarounds value="true"/>
        <junctions.corner-detail value="5"/>
        <junctions.limit-turn-speed value="5.50"/>
        <rectangular-lane-cut value="0"/>
    </junctions>

    <pedestrian>
        <walkingareas value="0"/>
    </pedestrian>

    <netedit>
        <ignore-supermode-question value="true"/>
    </netedit>

    <visualisation>
        <gui-settings-file value="C:\Users\alva_pa\.texttest\tmp\netedit.gui.28Jun114019.6628\netedit.gui\network\junctions\inspect\id\gui-settings.xml"/>
        <window-size value="1280, 720"/>
        <window-pos value="50,50"/>
        <gui-testing value="true"/>
        <gui-testing.setting-output value="C:\Users\alva_pa\.texttest\tmp\netedit.gui.28Jun114019.6628\netedit.gui\network\junctions\inspect\id\guisettingsoutput.xml"/>
    </visualisation>

    <report>
        <no-warnings value="true"/>
        <error-log value="C:\Users\alva_pa\.texttest\tmp\netedit.gui.28Jun114019.6628\netedit.gui\network\junctions\inspect\id\log.txt"/>
    </report>

</neteditConfiguration>
-->

<net version="1.20" junctionCornerDetail="5" limitTurnSpeed="5.50" xmlns:xsi="http://www.w3.org/2001/XMLSchema-instance" xsi:noNamespaceSchemaLocation="http://sumo.dlr.de/xsd/net_file.xsd">

    <location netOffset="0.00,0.00" convBoundary="-60.00,-30.00,60.00,30.00" origBoundary="-10000000000.000000,-10000000000.000000,10000000000.000000,10000000000.000000" projParameter="+proj=merc +a=6378137 +b=6378137 +lat_ts=0.0 +lon_0=0.0 +x_0=0.0 +y_0=0 +k=1.0 +units=m +nadgrids=@null +wktext +no_defs"/>

    <edge id=":JunctionCenter_0" function="internal">
        <lane id=":JunctionCenter_0_0" index="0" speed="6.51" length="9.03" shape="-1.60,7.20 -1.95,4.75 -3.00,3.00 -4.75,1.95 -7.20,1.60"/>
    </edge>
    <edge id=":JunctionCenter_1" function="internal">
        <lane id=":JunctionCenter_1_0" index="0" speed="13.89" length="14.40" shape="-1.60,7.20 -1.60,-7.20"/>
    </edge>
    <edge id=":JunctionCenter_2" function="internal">
        <lane id=":JunctionCenter_2_0" index="0" speed="8.00" length="4.07" shape="-1.60,7.20 -1.05,3.35 -0.96,3.20"/>
    </edge>
    <edge id=":JunctionCenter_12" function="internal">
        <lane id=":JunctionCenter_12_0" index="0" speed="8.00" length="10.13" shape="-0.96,3.20 0.60,0.60 3.35,-1.05 7.20,-1.60"/>
    </edge>
    <edge id=":JunctionCenter_3" function="internal">
        <lane id=":JunctionCenter_3_0" index="0" speed="6.51" length="9.03" shape="7.20,1.60 4.75,1.95 3.00,3.00 1.95,4.75 1.60,7.20"/>
    </edge>
    <edge id=":JunctionCenter_4" function="internal">
        <lane id=":JunctionCenter_4_0" index="0" speed="13.89" length="14.40" shape="7.20,1.60 -7.20,1.60"/>
    </edge>
    <edge id=":JunctionCenter_5" function="internal">
        <lane id=":JunctionCenter_5_0" index="0" speed="8.00" length="14.19" shape="7.20,1.60 3.35,1.05 0.60,-0.60 -1.05,-3.35 -1.60,-7.20"/>
    </edge>
    <edge id=":JunctionCenter_6" function="internal">
        <lane id=":JunctionCenter_6_0" index="0" speed="6.51" length="9.03" shape="1.60,-7.20 1.95,-4.75 3.00,-3.00 4.75,-1.95 7.20,-1.60"/>
    </edge>
    <edge id=":JunctionCenter_7" function="internal">
        <lane id=":JunctionCenter_7_0" index="0" speed="13.89" length="14.40" shape="1.60,-7.20 1.60,7.20"/>
    </edge>
    <edge id=":JunctionCenter_8" function="internal">
        <lane id=":JunctionCenter_8_0" index="0" speed="8.00" length="4.07" shape="1.60,-7.20 1.05,-3.35 0.96,-3.20"/>
    </edge>
    <edge id=":JunctionCenter_13" function="internal">
        <lane id=":JunctionCenter_13_0" index="0" speed="8.00" length="10.13" shape="0.96,-3.20 -0.60,-0.60 -3.35,1.05 -7.20,1.60"/>
    </edge>
    <edge id=":JunctionCenter_9" function="internal">
        <lane id=":JunctionCenter_9_0" index="0" speed="6.51" length="9.03" shape="-7.20,-1.60 -4.75,-1.95 -3.00,-3.00 -1.95,-4.75 -1.60,-7.20"/>
    </edge>
    <edge id=":JunctionCenter_10" function="internal">
        <lane id=":JunctionCenter_10_0" index="0" speed="13.89" length="14.40" shape="-7.20,-1.60 7.20,-1.60"/>
    </edge>
    <edge id=":JunctionCenter_11" function="internal">
        <lane id=":JunctionCenter_11_0" index="0" speed="8.00" length="14.19" shape="-7.20,-1.60 -3.35,-1.05 -0.60,0.60 1.05,3.35 1.60,7.20"/>
    </edge>
    <edge id=":JunctionExtern0_0" function="internal">
        <lane id=":JunctionExtern0_0_0" index="0" disallow="pedestrian" speed="3.53" length="4.38" width="3.00" shape="-60.00,1.50 -61.12,0.75 -61.50,0.00 -61.12,-0.75 -60.00,-1.50"/>
    </edge>
    <edge id=":JunctionExtern1_0" function="internal">
        <lane id=":JunctionExtern1_0_0" index="0" disallow="pedestrian" speed="3.53" length="4.38" width="3.00" shape="60.00,-1.50 61.12,-0.75 61.50,0.00 61.12,0.75 60.00,1.50"/>
    </edge>

    <edge id="-E4" from="JunctionLeft" to="JunctionCenter" priority="-1">
        <lane id="-E4_0" index="0" speed="13.89" length="17.80" shape="-25.00,-1.60 -7.20,-1.60"/>
    </edge>
    <edge id="-E5" from="JunctionTop" to="JunctionCenter" priority="-1">
        <lane id="-E5_0" index="0" speed="13.89" length="17.80" shape="-1.60,25.00 -1.60,7.20"/>
    </edge>
    <edge id="-E6" from="JunctionRight" to="JunctionCenter" priority="-1">
        <lane id="-E6_0" index="0" speed="13.89" length="17.80" shape="25.00,1.60 7.20,1.60"/>
    </edge>
    <edge id="-E7" from="JunctionBot" to="JunctionCenter" priority="-1">
        <lane id="-E7_0" index="0" speed="13.89" length="17.80" shape="1.60,-25.00 1.60,-7.20"/>
    </edge>
    <edge id="E4" from="JunctionCenter" to="JunctionLeft" priority="-1">
        <lane id="E4_0" index="0" speed="13.89" length="17.80" shape="-7.20,1.60 -25.00,1.60"/>
    </edge>
    <edge id="E5" from="JunctionCenter" to="JunctionTop" priority="-1">
        <lane id="E5_0" index="0" speed="13.89" length="17.80" shape="1.60,7.20 1.60,25.00"/>
    </edge>
    <edge id="E6" from="JunctionCenter" to="JunctionRight" priority="-1">
        <lane id="E6_0" index="0" speed="13.89" length="17.80" shape="7.20,-1.60 25.00,-1.60"/>
    </edge>
    <edge id="E7" from="JunctionCenter" to="JunctionBot" priority="-1">
        <lane id="E7_0" index="0" speed="13.89" length="17.80" shape="-1.60,-7.20 -1.60,-25.00"/>
    </edge>
    <edge id="EdgeExternBot" from="JunctionExtern0" to="JunctionExtern1" priority="-1" length="175.00" shape="-60.00,0.00 -45.00,0.00 -45.00,-25.00 -40.00,-30.00 40.00,-30.00 45.00,-25.00 45.00,0.00 60.00,0.00">
        <lane id="EdgeExternBot_0" index="0" disallow="pedestrian" speed="13.89" length="175.00" width="3.00" shape="-60.00,-1.50 -46.50,-1.50 -46.50,-25.62 -40.62,-31.50 40.62,-31.50 46.50,-25.62 46.50,-1.50 60.00,-1.50"/>
    </edge>
    <edge id="EdgeExternTop" from="JunctionExtern1" to="JunctionExtern0" priority="-1" length="175.00" shape="60.00,0.00 45.00,0.00 45.00,25.00 40.00,30.00 -40.00,30.00 -45.00,25.00 -45.00,0.00 -60.00,0.00">
        <lane id="EdgeExternTop_0" index="0" disallow="pedestrian" speed="13.89" length="175.00" width="3.00" shape="60.00,1.50 46.50,1.50 46.50,25.62 40.62,31.50 -40.62,31.50 -46.50,25.62 -46.50,1.50 -60.00,1.50"/>
    </edge>

    <junction id="JunctionBot" type="dead_end" x="0.00" y="-25.00" incLanes="E7_0" intLanes="" shape="0.00,-25.00 -3.20,-25.00 0.00,-25.00"/>
    <junction id="JunctionCenter" type="priority" x="0.00" y="0.00" incLanes="-E5_0 -E6_0 -E7_0 -E4_0" intLanes=":JunctionCenter_0_0 :JunctionCenter_1_0 :JunctionCenter_12_0 :JunctionCenter_3_0 :JunctionCenter_4_0 :JunctionCenter_5_0 :JunctionCenter_6_0 :JunctionCenter_7_0 :JunctionCenter_13_0 :JunctionCenter_9_0 :JunctionCenter_10_0 :JunctionCenter_11_0" shape="-3.20,7.20 3.20,7.20 3.64,4.98 4.20,4.20 4.98,3.64 5.98,3.31 7.20,3.20 7.20,-3.20 4.98,-3.64 4.20,-4.20 3.64,-4.98 3.31,-5.98 3.20,-7.20 -3.20,-7.20 -3.64,-4.98 -4.20,-4.20 -4.98,-3.64 -5.98,-3.31 -7.20,-3.20 -7.20,3.20 -4.98,3.64 -4.20,4.20 -3.64,4.98 -3.31,5.98">
        <request index="0"  response="000000000000" foes="000100010000" cont="0"/>
        <request index="1"  response="000000000000" foes="111100110000" cont="0"/>
        <request index="2"  response="000111000000" foes="110111110000" cont="1"/>
        <request index="3"  response="000010000000" foes="100010000000" cont="0"/>
        <request index="4"  response="000110000111" foes="100110000111" cont="0"/>
        <request index="5"  response="011110000110" foes="111110000110" cont="0"/>
        <request index="6"  response="000000000000" foes="010000000100" cont="0"/>
        <request index="7"  response="000000000000" foes="110000111100" cont="0"/>
        <request index="8"  response="000000000011" foes="110000110111" cont="1"/>
        <request index="9"  response="000000000010" foes="000000100010" cont="0"/>
        <request index="10" response="000111000110" foes="000111100110" cont="0"/>
        <request index="11" response="000110111110" foes="000110111110" cont="0"/>
    </junction>
    <junction id="JunctionExtern0" type="priority" x="-60.00" y="0.00" incLanes="EdgeExternTop_0" intLanes=":JunctionExtern0_0_0" shape="-60.00,0.00 -60.00,3.00 -60.00,0.00">
        <request index="0" response="0" foes="0" cont="0"/>
    </junction>
    <junction id="JunctionExtern1" type="priority" x="60.00" y="0.00" incLanes="EdgeExternBot_0" intLanes=":JunctionExtern1_0_0" shape="60.00,0.00 60.00,-3.00 60.00,0.00">
        <request index="0" response="0" foes="0" cont="0"/>
    </junction>
    <junction id="JunctionLeft" type="dead_end" x="-25.00" y="0.00" incLanes="E4_0" intLanes="" shape="-25.00,0.00 -25.00,3.20 -25.00,0.00"/>
    <junction id="JunctionRight" type="dead_end" x="25.00" y="0.00" incLanes="E6_0" intLanes="" shape="25.00,0.00 25.00,-3.20 25.00,0.00"/>
    <junction id="JunctionTop" type="dead_end" x="0.00" y="25.00" incLanes="E5_0" intLanes="" shape="0.00,25.00 3.20,25.00 0.00,25.00"/>

    <junction id=":JunctionCenter_12_0" type="internal" x="-0.96" y="3.20" incLanes=":JunctionCenter_2_0 -E7_0" intLanes=":JunctionCenter_4_0 :JunctionCenter_5_0 :JunctionCenter_6_0 :JunctionCenter_7_0 :JunctionCenter_10_0 :JunctionCenter_11_0"/>
    <junction id=":JunctionCenter_13_0" type="internal" x="0.96" y="-3.20" incLanes=":JunctionCenter_8_0 -E5_0" intLanes=":JunctionCenter_0_0 :JunctionCenter_1_0 :JunctionCenter_4_0 :JunctionCenter_5_0 :JunctionCenter_10_0 :JunctionCenter_11_0"/>

    <connection from="-E4" to="E7" fromLane="0" toLane="0" via=":JunctionCenter_9_0" dir="r" state="m"/>
    <connection from="-E4" to="E6" fromLane="0" toLane="0" via=":JunctionCenter_10_0" dir="s" state="m"/>
    <connection from="-E4" to="E5" fromLane="0" toLane="0" via=":JunctionCenter_11_0" dir="l" state="m"/>
    <connection from="-E5" to="E4" fromLane="0" toLane="0" via=":JunctionCenter_0_0" dir="r" state="M"/>
    <connection from="-E5" to="E7" fromLane="0" toLane="0" via=":JunctionCenter_1_0" dir="s" state="M"/>
    <connection from="-E5" to="E6" fromLane="0" toLane="0" via=":JunctionCenter_2_0" dir="l" state="m"/>
    <connection from="-E6" to="E5" fromLane="0" toLane="0" via=":JunctionCenter_3_0" dir="r" state="m"/>
    <connection from="-E6" to="E4" fromLane="0" toLane="0" via=":JunctionCenter_4_0" dir="s" state="m"/>
    <connection from="-E6" to="E7" fromLane="0" toLane="0" via=":JunctionCenter_5_0" dir="l" state="m"/>
    <connection from="-E7" to="E6" fromLane="0" toLane="0" via=":JunctionCenter_6_0" dir="r" state="M"/>
    <connection from="-E7" to="E5" fromLane="0" toLane="0" via=":JunctionCenter_7_0" dir="s" state="M"/>
    <connection from="-E7" to="E4" fromLane="0" toLane="0" via=":JunctionCenter_8_0" dir="l" state="m"/>
    <connection from="EdgeExternBot" to="EdgeExternTop" fromLane="0" toLane="0" via=":JunctionExtern1_0_0" dir="t" state="M"/>
    <connection from="EdgeExternTop" to="EdgeExternBot" fromLane="0" toLane="0" via=":JunctionExtern0_0_0" dir="t" state="M"/>

    <connection from=":JunctionCenter_0" to="E4" fromLane="0" toLane="0" dir="r" state="M"/>
    <connection from=":JunctionCenter_1" to="E7" fromLane="0" toLane="0" dir="s" state="M"/>
    <connection from=":JunctionCenter_2" to="E6" fromLane="0" toLane="0" via=":JunctionCenter_12_0" dir="l" state="m"/>
    <connection from=":JunctionCenter_12" to="E6" fromLane="0" toLane="0" dir="l" state="M"/>
    <connection from=":JunctionCenter_3" to="E5" fromLane="0" toLane="0" dir="r" state="M"/>
    <connection from=":JunctionCenter_4" to="E4" fromLane="0" toLane="0" dir="s" state="M"/>
    <connection from=":JunctionCenter_5" to="E7" fromLane="0" toLane="0" dir="l" state="M"/>
    <connection from=":JunctionCenter_6" to="E6" fromLane="0" toLane="0" dir="r" state="M"/>
    <connection from=":JunctionCenter_7" to="E5" fromLane="0" toLane="0" dir="s" state="M"/>
    <connection from=":JunctionCenter_8" to="E4" fromLane="0" toLane="0" via=":JunctionCenter_13_0" dir="l" state="m"/>
    <connection from=":JunctionCenter_13" to="E4" fromLane="0" toLane="0" dir="l" state="M"/>
    <connection from=":JunctionCenter_9" to="E7" fromLane="0" toLane="0" dir="r" state="M"/>
    <connection from=":JunctionCenter_10" to="E6" fromLane="0" toLane="0" dir="s" state="M"/>
    <connection from=":JunctionCenter_11" to="E5" fromLane="0" toLane="0" dir="l" state="M"/>
    <connection from=":JunctionExtern0_0" to="EdgeExternBot" fromLane="0" toLane="0" dir="t" state="M"/>
    <connection from=":JunctionExtern1_0" to="EdgeExternTop" fromLane="0" toLane="0" dir="t" state="M"/>

</net>
