<?xml version="1.0" encoding="UTF-8"?>

<!-- generated on 2023-02-05 13:35:40 by Eclipse SUMO sumo Version v1_15_0+2186-6838333
This data file and the accompanying materials
are made available under the terms of the Eclipse Public License v2.0
which accompanies this distribution, and is available at
http://www.eclipse.org/legal/epl-v20.html
This file may also be made available under the following Secondary
Licenses when the conditions for such availability set forth in the Eclipse
Public License 2.0 are satisfied: GNU General Public License, version 2
or later which is available at
https://www.gnu.org/licenses/old-licenses/gpl-2.0-standalone.html
SPDX-License-Identifier: EPL-2.0 OR GPL-2.0-or-later
<configuration xmlns:xsi="http://www.w3.org/2001/XMLSchema-instance" xsi:noNamespaceSchemaLocation="http://sumo.dlr.de/xsd/sumoConfiguration.xsd">

    <input>
        <net-file value="net.net.xml"/>
        <route-files value="input_routes.rou.xml"/>
        <additional-files value="input_additional.add.xml,input_additional2.add.xml"/>
    </input>

    <output>
        <write-license value="true"/>
    </output>

    <time>
        <end value="300"/>
    </time>

    <processing>
        <default.speeddev value="0"/>
    </processing>

    <report>
        <xml-validation value="never"/>
        <duration-log.disable value="true"/>
        <duration-log.statistics value="true"/>
        <no-step-log value="true"/>
    </report>

</configuration>
-->

<tlsStates xmlns:xsi="http://www.w3.org/2001/XMLSchema-instance" xsi:noNamespaceSchemaLocation="http://sumo.dlr.de/xsd/tlsstates_file.xsd">
    <tlsState time="0.00" id="C0" programID="custom" phase="0" state="GGggrrrrGGggrrrr" name="side"/>
    <tlsState time="90.00" id="C0" programID="custom" phase="1" state="yyyyrrrryyyyrrrr"/>
    <tlsState time="93.00" id="C0" programID="custom" phase="2" state="rrrrGGggrrrrGGgg" name="main"/>
    <tlsState time="183.00" id="C0" programID="custom" phase="3" state="rrrryyyyrrrryyyy"/>
    <tlsState time="186.00" id="C0" programID="custom" phase="0" state="GGggrrrrGGggrrrr" name="side"/>
    <tlsState time="276.00" id="C0" programID="custom" phase="1" state="yyyyrrrryyyyrrrr"/>
    <tlsState time="279.00" id="C0" programID="custom" phase="2" state="rrrrGGggrrrrGGgg" name="main"/>
</tlsStates>
