<?xml version="1.0" encoding="UTF-8"?>

<!-- generated on Fri 13 Sep 2019 10:23:54 AM CEST by Eclipse SUMO netedit Version v1_3_1+0290-d9b3819
<configuration xmlns:xsi="http://www.w3.org/2001/XMLSchema-instance" xsi:noNamespaceSchemaLocation="http://sumo.dlr.de/xsd/netconvertConfiguration.xsd">

    <input>
        <new value="true"/>
    </input>

    <processing>
        <offset.disable-normalization value="true"/>
    </processing>

</configuration>
-->

<net version="1.3" junctionCornerDetail="5" limitTurnSpeed="5.50" xmlns:xsi="http://www.w3.org/2001/XMLSchema-instance" xsi:noNamespaceSchemaLocation="http://sumo.dlr.de/xsd/net_file.xsd">

    <location netOffset="0.00,0.00" convBoundary="-100.00,-100.00,500.00,0.00" origBoundary="10000000000.00,10000000000.00,-10000000000.00,-10000000000.00" projParameter="!"/>

    <edge id=":gneJ1_0" function="internal">
        <lane id=":gneJ1_0_0" index="0" disallow="pedestrian" speed="13.89" length="3.00" shape="98.50,-1.60 101.50,-1.60"/>
    </edge>
    <edge id=":gneJ2_0" function="internal">
        <lane id=":gneJ2_0_0" index="0" speed="13.89" length="5.00" shape="296.50,-1.60 301.50,-1.60"/>
    </edge>

    <edge id="gneE0" from="gneJ0" to="gneJ1" priority="-1">
        <lane id="gneE0_0" index="0" speed="13.89" length="198.50" shape="-100.00,-1.60 98.50,-1.60"/>
    </edge>
    <edge id="gneE1" from="gneJ1" to="gneJ2" priority="-1">
        <lane id="gneE1_0" index="0" allow="pedestrian" speed="13.89" length="195.00" width="2.00" shape="101.50,-4.20 296.50,-4.20"/>
        <lane id="gneE1_1" index="1" disallow="pedestrian" speed="13.89" length="195.00" shape="101.50,-1.60 296.50,-1.60"/>
    </edge>
    <edge id="gneE2" from="gneJ2" to="gneJ3" priority="-1">
        <lane id="gneE2_0" index="0" speed="13.89" length="198.50" shape="301.50,-1.60 500.00,-1.60"/>
    </edge>
    <edge id="gneE3" from="gneJ2" to="gneJ4" priority="-1">
        <lane id="gneE3_0" index="0" allow="pedestrian" speed="13.89" length="93.30" width="2.00" shape="299.00,-6.70 299.00,-100.00"/>
    </edge>

    <junction id="gneJ0" type="dead_end" x="-100.00" y="0.00" incLanes="" intLanes="" shape="-100.00,0.00 -100.00,-3.20"/>
    <junction id="gneJ1" type="priority" x="100.00" y="0.00" incLanes="gneE0_0" intLanes=":gneJ1_0_0" shape="101.50,0.00 101.50,-5.20 98.50,-3.20 98.50,0.00">
        <request index="0" response="0" foes="0" cont="0"/>
    </junction>
    <junction id="gneJ2" type="priority" x="300.00" y="0.00" incLanes="gneE1_0 gneE1_1" intLanes=":gneJ2_0_0" shape="301.50,0.00 301.50,-3.20 300.67,-3.59 300.38,-4.07 300.17,-4.76 300.04,-5.63 300.00,-6.70 298.00,-6.70 297.83,-5.87 297.62,-5.57 297.33,-5.37 296.96,-5.24 296.50,-5.20 296.50,0.00">
        <request index="0" response="0" foes="0" cont="0"/>
    </junction>
    <junction id="gneJ3" type="dead_end" x="500.00" y="0.00" incLanes="gneE2_0" intLanes="" shape="500.00,-3.20 500.00,0.00"/>
    <junction id="gneJ4" type="dead_end" x="300.00" y="-100.00" incLanes="gneE3_0" intLanes="" shape="298.00,-100.00 300.00,-100.00"/>

    <connection from="gneE0" to="gneE1" fromLane="0" toLane="1" via=":gneJ1_0_0" dir="s" state="M"/>
    <connection from="gneE1" to="gneE2" fromLane="1" toLane="0" via=":gneJ2_0_0" dir="s" state="M"/>

    <connection from=":gneJ1_0" to="gneE1" fromLane="0" toLane="1" dir="s" state="M"/>
    <connection from=":gneJ2_0" to="gneE2" fromLane="0" toLane="0" dir="s" state="M"/>

</net>
