<?xml version="1.0" encoding="UTF-8"?>
<routes xmlns:xsi="http://www.w3.org/2001/XMLSchema-instance" xsi:noNamespaceSchemaLocation="http://sumo.dlr.de/xsd/routes_file.xsd">
  <vType id="DEFAULT_VEHTYPE" sigma="0"/>
  <route id="r0" edges="beg middle end"/>

  <vehicle id="departPosPastStop" depart="0" route="r0" departPos="50">
      <stop lane="beg_0" endPos="30" duration="3"/>
  </vehicle>

  <vehicle id="departPosBase" depart="0" route="r0" departPos="base">
      <stop lane="beg_0" endPos="1" duration="3"/>
  </vehicle>

  <vehicle id="departPosRandom" depart="0" route="r0" departPos="random">
      <stop lane="beg_0" endPos="1" duration="3"/>
  </vehicle>

  <vehicle id="arrivalPosBeforeStop" depart="0" route="r0" arrivalPos="10">
      <stop lane="end_0" endPos="80" duration="3"/>
  </vehicle>

</routes>
