<?xml version="1.0"?>

<!-- generated on 05/14/09 12:17:29 by SUMO sumo Version dev-SVN-r7168
<configuration>

   <input>
      <net-file>net.net.xml</net-file>
      <route-files>input_routes.rou.xml</route-files>
      <additional-files>input_additional.add.xml</additional-files>
   </input>

   <time>
      <begin>100</begin>
      <end>200</end>
   </time>

   <processing>
      <no-duration-log>true</no-duration-log>
      <no-step-log>true</no-step-log>
   </processing>

</configuration>
-->

<tls-switch-states>
    <tlsstate time="100.00" id="0" subid="2" phase="2">rrGGrrrrrrGGrrrr</tlsstate>
    <tlsstate time="101.00" id="0" subid="2" phase="3">rryyrrrrrryyrrrr</tlsstate>
    <tlsstate time="105.00" id="0" subid="2" phase="4">rrrrGGggrrrrGGgg</tlsstate>
    <tlsstate time="125.00" id="0" subid="2" phase="5">rrrryyggrrrryygg</tlsstate>
    <tlsstate time="129.00" id="0" subid="2" phase="6">rrrrrrGGrrrrrrGG</tlsstate>
    <tlsstate time="132.00" id="0" subid="2" phase="7">rrrrrryyrrrrrryy</tlsstate>
    <tlsstate time="136.00" id="0" subid="2" phase="0">GGggrrrrGGggrrrr</tlsstate>
    <tlsstate time="156.00" id="0" subid="2" phase="1">yyggrrrryyggrrrr</tlsstate>
    <tlsstate time="160.00" id="0" subid="2" phase="2">rrGGrrrrrrGGrrrr</tlsstate>
    <tlsstate time="163.00" id="0" subid="2" phase="3">rryyrrrrrryyrrrr</tlsstate>
    <tlsstate time="167.00" id="0" subid="2" phase="4">rrrrGGggrrrrGGgg</tlsstate>
    <tlsstate time="187.00" id="0" subid="2" phase="5">rrrryyggrrrryygg</tlsstate>
    <tlsstate time="191.00" id="0" subid="2" phase="6">rrrrrrGGrrrrrrGG</tlsstate>
    <tlsstate time="194.00" id="0" subid="2" phase="7">rrrrrryyrrrrrryy</tlsstate>
    <tlsstate time="198.00" id="0" subid="2" phase="0">GGggrrrrGGggrrrr</tlsstate>
</tls-switch-states>
