<?xml version="1.0" encoding="UTF-8"?>

<!-- generated on Mon Feb 24 13:45:01 2020 by Eclipse SUMO Version v1_5_0+0228-d0a6fb126b
<configuration xmlns:xsi="http://www.w3.org/2001/XMLSchema-instance" xsi:noNamespaceSchemaLocation="http://sumo.dlr.de/xsd/sumoConfiguration.xsd">

    <input>
        <net-file value="input_net.net.xml"/>
        <route-files value="input_routes.rou.xml"/>
        <additional-files value="input_additional.add.xml"/>
    </input>

    <output>
        <fcd-output value="fcd.xml"/>
    </output>

    <processing>
        <default.speeddev value="0"/>
    </processing>

    <report>
        <no-step-log value="true"/>
    </report>

    <traci_server>
        <remote-port value="41193"/>
    </traci_server>

</configuration>
-->

<ToCDeviceLog>
    <TOR id="ToC_veh" t="7.00" lane="2/1to3/1_0" lanePos="0.03" x="2853.72" y="2466.46"/>
    <MRM id="ToC_veh" t="12.00" lane="2/1to3/1_0" lanePos="0.09" x="2801.14" y="2504.66"/>
    <ToCdown id="ToC_veh" t="57.00" lane="2/1to3/1_0" lanePos="0.13" x="2776.06" y="2522.89"/>
</ToCDeviceLog>
