<?xml version="1.0" encoding="UTF-8"?>

<!-- generated on 2022-06-27 17:27:21 by Eclipse SUMO netconvert Version v1_13_0+1237-ae70b5f7a6c
<configuration xmlns:xsi="http://www.w3.org/2001/XMLSchema-instance" xsi:noNamespaceSchemaLocation="http://sumo.dlr.de/xsd/netconvertConfiguration.xsd">

    <input>
        <node-files value="grid6/grid6.nod.xml"/>
        <edge-files value="grid6/grid6.edg.xml"/>
        <connection-files value="grid6/grid6.con.xml"/>
    </input>

    <output>
        <output-file value="grid6/grid6.net.xml"/>
    </output>

    <junctions>
        <no-turnarounds value="true"/>
    </junctions>

</configuration>
-->

<net version="1.9" junctionCornerDetail="5" limitTurnSpeed="5.50" xmlns:xsi="http://www.w3.org/2001/XMLSchema-instance" xsi:noNamespaceSchemaLocation="http://sumo.dlr.de/xsd/net_file.xsd">

    <location netOffset="150.00,150.00" convBoundary="0.00,0.00,660.00,570.00" origBoundary="0.00,0.00,360.00,280.00" projParameter="!"/>

    <edge id=":0/0_0" function="internal">
        <lane id=":0/0_0_0" index="0" speed="6.51" length="9.03" shape="248.40,257.20 248.05,254.75 247.00,253.00 245.25,251.95 242.80,251.60"/>
    </edge>
    <edge id=":0/0_1" function="internal">
        <lane id=":0/0_1_0" index="0" speed="13.90" length="14.40" shape="248.40,257.20 248.40,242.80"/>
    </edge>
    <edge id=":0/0_2" function="internal">
        <lane id=":0/0_2_0" index="0" speed="6.51" length="9.03" shape="257.20,251.60 254.75,251.95 253.00,253.00 251.95,254.75 251.60,257.20"/>
    </edge>
    <edge id=":0/0_3" function="internal">
        <lane id=":0/0_3_0" index="0" speed="13.90" length="14.40" shape="257.20,251.60 242.80,251.60"/>
    </edge>
    <edge id=":0/0_4" function="internal">
        <lane id=":0/0_4_0" index="0" speed="6.51" length="9.03" shape="251.60,242.80 251.95,245.25 253.00,247.00 254.75,248.05 257.20,248.40"/>
    </edge>
    <edge id=":0/0_5" function="internal">
        <lane id=":0/0_5_0" index="0" speed="13.90" length="14.40" shape="251.60,242.80 251.60,257.20"/>
    </edge>
    <edge id=":0/0_6" function="internal">
        <lane id=":0/0_6_0" index="0" speed="6.51" length="9.03" shape="242.80,248.40 245.25,248.05 247.00,247.00 248.05,245.25 248.40,242.80"/>
    </edge>
    <edge id=":0/0_7" function="internal">
        <lane id=":0/0_7_0" index="0" speed="13.90" length="14.40" shape="242.80,248.40 257.20,248.40"/>
    </edge>
    <edge id=":0/1_0" function="internal">
        <lane id=":0/1_0_0" index="0" speed="6.51" length="9.03" shape="248.40,337.20 248.05,334.75 247.00,333.00 245.25,331.95 242.80,331.60"/>
    </edge>
    <edge id=":0/1_1" function="internal">
        <lane id=":0/1_1_0" index="0" speed="13.90" length="14.40" shape="248.40,337.20 248.40,322.80"/>
    </edge>
    <edge id=":0/1_2" function="internal">
        <lane id=":0/1_2_0" index="0" speed="6.51" length="9.03" shape="257.20,331.60 254.75,331.95 253.00,333.00 251.95,334.75 251.60,337.20"/>
    </edge>
    <edge id=":0/1_3" function="internal">
        <lane id=":0/1_3_0" index="0" speed="13.90" length="14.40" shape="257.20,331.60 242.80,331.60"/>
    </edge>
    <edge id=":0/1_4" function="internal">
        <lane id=":0/1_4_0" index="0" speed="6.51" length="9.03" shape="251.60,322.80 251.95,325.25 253.00,327.00 254.75,328.05 257.20,328.40"/>
    </edge>
    <edge id=":0/1_5" function="internal">
        <lane id=":0/1_5_0" index="0" speed="13.90" length="14.40" shape="251.60,322.80 251.60,337.20"/>
    </edge>
    <edge id=":0/1_6" function="internal">
        <lane id=":0/1_6_0" index="0" speed="6.51" length="9.03" shape="242.80,328.40 245.25,328.05 247.00,327.00 248.05,325.25 248.40,322.80"/>
    </edge>
    <edge id=":0/1_7" function="internal">
        <lane id=":0/1_7_0" index="0" speed="13.90" length="14.40" shape="242.80,328.40 257.20,328.40"/>
    </edge>
    <edge id=":1/0_0" function="internal">
        <lane id=":1/0_0_0" index="0" speed="6.51" length="9.03" shape="328.40,257.20 328.05,254.75 327.00,253.00 325.25,251.95 322.80,251.60"/>
    </edge>
    <edge id=":1/0_1" function="internal">
        <lane id=":1/0_1_0" index="0" speed="13.90" length="14.40" shape="328.40,257.20 328.40,242.80"/>
    </edge>
    <edge id=":1/0_2" function="internal">
        <lane id=":1/0_2_0" index="0" speed="6.51" length="9.03" shape="337.20,251.60 334.75,251.95 333.00,253.00 331.95,254.75 331.60,257.20"/>
    </edge>
    <edge id=":1/0_3" function="internal">
        <lane id=":1/0_3_0" index="0" speed="13.90" length="14.40" shape="337.20,251.60 322.80,251.60"/>
    </edge>
    <edge id=":1/0_4" function="internal">
        <lane id=":1/0_4_0" index="0" speed="6.51" length="9.03" shape="331.60,242.80 331.95,245.25 333.00,247.00 334.75,248.05 337.20,248.40"/>
    </edge>
    <edge id=":1/0_5" function="internal">
        <lane id=":1/0_5_0" index="0" speed="13.90" length="14.40" shape="331.60,242.80 331.60,257.20"/>
    </edge>
    <edge id=":1/0_6" function="internal">
        <lane id=":1/0_6_0" index="0" speed="6.51" length="9.03" shape="322.80,248.40 325.25,248.05 327.00,247.00 328.05,245.25 328.40,242.80"/>
    </edge>
    <edge id=":1/0_7" function="internal">
        <lane id=":1/0_7_0" index="0" speed="13.90" length="14.40" shape="322.80,248.40 337.20,248.40"/>
    </edge>
    <edge id=":1/1_0" function="internal">
        <lane id=":1/1_0_0" index="0" speed="6.51" length="9.03" shape="328.40,337.20 328.05,334.75 327.00,333.00 325.25,331.95 322.80,331.60"/>
    </edge>
    <edge id=":1/1_1" function="internal">
        <lane id=":1/1_1_0" index="0" speed="13.90" length="14.40" shape="328.40,337.20 328.40,322.80"/>
    </edge>
    <edge id=":1/1_2" function="internal">
        <lane id=":1/1_2_0" index="0" speed="6.51" length="9.03" shape="337.20,331.60 334.75,331.95 333.00,333.00 331.95,334.75 331.60,337.20"/>
    </edge>
    <edge id=":1/1_3" function="internal">
        <lane id=":1/1_3_0" index="0" speed="13.90" length="14.40" shape="337.20,331.60 322.80,331.60"/>
    </edge>
    <edge id=":1/1_4" function="internal">
        <lane id=":1/1_4_0" index="0" speed="6.51" length="9.03" shape="331.60,322.80 331.95,325.25 333.00,327.00 334.75,328.05 337.20,328.40"/>
    </edge>
    <edge id=":1/1_5" function="internal">
        <lane id=":1/1_5_0" index="0" speed="13.90" length="14.40" shape="331.60,322.80 331.60,337.20"/>
    </edge>
    <edge id=":1/1_6" function="internal">
        <lane id=":1/1_6_0" index="0" speed="6.51" length="9.03" shape="322.80,328.40 325.25,328.05 327.00,327.00 328.05,325.25 328.40,322.80"/>
    </edge>
    <edge id=":1/1_7" function="internal">
        <lane id=":1/1_7_0" index="0" speed="13.90" length="14.40" shape="322.80,328.40 337.20,328.40"/>
    </edge>
    <edge id=":2/0_0" function="internal">
        <lane id=":2/0_0_0" index="0" speed="6.51" length="9.03" shape="408.40,257.20 408.05,254.75 407.00,253.00 405.25,251.95 402.80,251.60"/>
    </edge>
    <edge id=":2/0_1" function="internal">
        <lane id=":2/0_1_0" index="0" speed="13.90" length="14.40" shape="408.40,257.20 408.40,242.80"/>
    </edge>
    <edge id=":2/0_2" function="internal">
        <lane id=":2/0_2_0" index="0" speed="6.51" length="9.03" shape="417.20,251.60 414.75,251.95 413.00,253.00 411.95,254.75 411.60,257.20"/>
    </edge>
    <edge id=":2/0_3" function="internal">
        <lane id=":2/0_3_0" index="0" speed="13.90" length="14.40" shape="417.20,251.60 402.80,251.60"/>
    </edge>
    <edge id=":2/0_4" function="internal">
        <lane id=":2/0_4_0" index="0" speed="6.51" length="9.03" shape="411.60,242.80 411.95,245.25 413.00,247.00 414.75,248.05 417.20,248.40"/>
    </edge>
    <edge id=":2/0_5" function="internal">
        <lane id=":2/0_5_0" index="0" speed="13.90" length="14.40" shape="411.60,242.80 411.60,257.20"/>
    </edge>
    <edge id=":2/0_6" function="internal">
        <lane id=":2/0_6_0" index="0" speed="6.51" length="9.03" shape="402.80,248.40 405.25,248.05 407.00,247.00 408.05,245.25 408.40,242.80"/>
    </edge>
    <edge id=":2/0_7" function="internal">
        <lane id=":2/0_7_0" index="0" speed="13.90" length="14.40" shape="402.80,248.40 417.20,248.40"/>
    </edge>
    <edge id=":2/1_0" function="internal">
        <lane id=":2/1_0_0" index="0" speed="6.51" length="9.03" shape="408.40,337.20 408.05,334.75 407.00,333.00 405.25,331.95 402.80,331.60"/>
    </edge>
    <edge id=":2/1_1" function="internal">
        <lane id=":2/1_1_0" index="0" speed="13.90" length="14.40" shape="408.40,337.20 408.40,322.80"/>
    </edge>
    <edge id=":2/1_2" function="internal">
        <lane id=":2/1_2_0" index="0" speed="6.51" length="9.03" shape="417.20,331.60 414.75,331.95 413.00,333.00 411.95,334.75 411.60,337.20"/>
    </edge>
    <edge id=":2/1_3" function="internal">
        <lane id=":2/1_3_0" index="0" speed="13.90" length="14.40" shape="417.20,331.60 402.80,331.60"/>
    </edge>
    <edge id=":2/1_4" function="internal">
        <lane id=":2/1_4_0" index="0" speed="6.51" length="9.03" shape="411.60,322.80 411.95,325.25 413.00,327.00 414.75,328.05 417.20,328.40"/>
    </edge>
    <edge id=":2/1_5" function="internal">
        <lane id=":2/1_5_0" index="0" speed="13.90" length="14.40" shape="411.60,322.80 411.60,337.20"/>
    </edge>
    <edge id=":2/1_6" function="internal">
        <lane id=":2/1_6_0" index="0" speed="6.51" length="9.03" shape="402.80,328.40 405.25,328.05 407.00,327.00 408.05,325.25 408.40,322.80"/>
    </edge>
    <edge id=":2/1_7" function="internal">
        <lane id=":2/1_7_0" index="0" speed="13.90" length="14.40" shape="402.80,328.40 417.20,328.40"/>
    </edge>
    <edge id=":bottom0_0" function="internal">
        <lane id=":bottom0_0_0" index="0" speed="6.94" length="3.29" shape="248.40,151.12 248.42,150.16 248.55,149.49 248.87,148.89 249.45,148.12"/>
    </edge>
    <edge id=":bottom0_1" function="internal">
        <lane id=":bottom0_1_0" index="0" speed="4.36" length="1.10" shape="251.95,150.12 251.76,150.38 251.65,150.58 251.61,150.80 251.60,151.12"/>
    </edge>
    <edge id=":bottom1_0" function="internal">
        <lane id=":bottom1_0_0" index="0" speed="13.90" length="0.10" shape="328.40,150.00 328.40,150.00"/>
    </edge>
    <edge id=":bottom1_1" function="internal">
        <lane id=":bottom1_1_0" index="0" speed="13.90" length="0.10" shape="331.60,150.00 331.60,150.00"/>
    </edge>
    <edge id=":bottom2_0" function="internal">
        <lane id=":bottom2_0_0" index="0" speed="4.36" length="1.10" shape="408.40,151.12 408.39,150.80 408.35,150.58 408.24,150.38 408.05,150.12"/>
    </edge>
    <edge id=":bottom2_1" function="internal">
        <lane id=":bottom2_1_0" index="0" speed="6.94" length="3.29" shape="410.55,148.12 411.13,148.89 411.45,149.49 411.58,150.16 411.60,151.12"/>
    </edge>
    <edge id=":gneJ10_0" function="internal">
        <lane id=":gneJ10_0_0" index="0" speed="13.90" length="8.55" shape="61.69,296.40 59.33,295.49 57.65,295.01 55.91,294.83 53.38,294.80"/>
    </edge>
    <edge id=":gneJ10_1" function="internal">
        <lane id=":gneJ10_1_0" index="0" speed="13.90" length="11.00" shape="62.88,286.57 60.19,288.14 58.41,289.78 56.48,291.08 53.38,291.60"/>
    </edge>
    <edge id=":gneJ10_2" function="internal">
        <lane id=":gneJ10_2_0" index="0" speed="13.90" length="8.55" shape="53.38,285.20 55.91,285.17 57.65,284.99 59.33,284.51 61.69,283.60"/>
    </edge>
    <edge id=":gneJ10_3" function="internal">
        <lane id=":gneJ10_3_0" index="0" speed="13.90" length="11.00" shape="53.38,288.40 56.48,288.92 58.41,290.22 60.19,291.86 62.88,293.43"/>
    </edge>
    <edge id=":gneJ12_0" function="internal">
        <lane id=":gneJ12_0_0" index="0" speed="13.90" length="8.55" shape="606.62,294.80 604.09,294.83 602.35,295.01 600.67,295.49 598.31,296.40"/>
    </edge>
    <edge id=":gneJ12_1" function="internal">
        <lane id=":gneJ12_1_0" index="0" speed="13.90" length="11.00" shape="606.62,291.60 603.52,291.08 601.59,289.78 599.81,288.14 597.12,286.57"/>
    </edge>
    <edge id=":gneJ12_2" function="internal">
        <lane id=":gneJ12_2_0" index="0" speed="13.90" length="8.55" shape="598.31,283.60 600.67,284.51 602.35,284.99 604.09,285.17 606.62,285.20"/>
    </edge>
    <edge id=":gneJ12_3" function="internal">
        <lane id=":gneJ12_3_0" index="0" speed="13.90" length="11.00" shape="597.12,293.43 599.81,291.86 601.59,290.22 603.52,288.92 606.62,288.40"/>
    </edge>
    <edge id=":gneJ14_0" function="internal">
        <lane id=":gneJ14_0_0" index="0" speed="13.90" length="10.88" shape="328.40,63.12 327.90,60.17 326.80,58.14 325.70,56.04 325.20,52.88"/>
    </edge>
    <edge id=":gneJ14_1" function="internal">
        <lane id=":gneJ14_1_0" index="0" speed="13.90" length="14.97" shape="338.35,63.00 335.48,60.77 332.20,59.14 329.52,56.90 328.40,52.88"/>
    </edge>
    <edge id=":gneJ14_2" function="internal">
        <lane id=":gneJ14_2_0" index="0" speed="11.09" length="8.90" shape="338.00,52.88 338.07,55.49 338.42,57.29 339.27,58.92 340.85,61.00"/>
    </edge>
    <edge id=":gneJ14_3" function="internal">
        <lane id=":gneJ14_3_0" index="0" speed="13.90" length="10.88" shape="334.80,52.88 334.30,56.04 333.20,58.14 332.10,60.17 331.60,63.12"/>
    </edge>
    <edge id=":gneJ14_4" function="internal">
        <lane id=":gneJ14_4_0" index="0" speed="13.90" length="14.97" shape="331.60,52.88 330.48,56.90 327.80,59.14 324.52,60.77 321.65,63.00"/>
    </edge>
    <edge id=":gneJ14_5" function="internal">
        <lane id=":gneJ14_5_0" index="0" speed="11.09" length="8.90" shape="319.15,61.00 320.73,58.92 321.58,57.29 321.93,55.49 322.00,52.88"/>
    </edge>
    <edge id=":gneJ17_0" function="internal">
        <lane id=":gneJ17_0_0" index="0" speed="11.09" length="8.90" shape="322.00,527.12 321.93,524.51 321.58,522.71 320.73,521.08 319.15,519.00"/>
    </edge>
    <edge id=":gneJ17_1" function="internal">
        <lane id=":gneJ17_1_0" index="0" speed="13.90" length="10.88" shape="325.20,527.12 325.70,523.96 326.80,521.86 327.90,519.83 328.40,516.88"/>
    </edge>
    <edge id=":gneJ17_2" function="internal">
        <lane id=":gneJ17_2_0" index="0" speed="13.90" length="14.97" shape="328.40,527.12 329.52,523.10 332.20,520.86 335.48,519.23 338.35,517.00"/>
    </edge>
    <edge id=":gneJ17_3" function="internal">
        <lane id=":gneJ17_3_0" index="0" speed="11.09" length="8.90" shape="340.85,519.00 339.27,521.08 338.42,522.71 338.07,524.51 338.00,527.12"/>
    </edge>
    <edge id=":gneJ17_4" function="internal">
        <lane id=":gneJ17_4_0" index="0" speed="13.90" length="10.88" shape="331.60,516.88 332.10,519.83 333.20,521.86 334.30,523.96 334.80,527.12"/>
    </edge>
    <edge id=":gneJ17_5" function="internal">
        <lane id=":gneJ17_5_0" index="0" speed="13.90" length="14.97" shape="321.65,517.00 324.52,519.23 327.80,520.86 330.48,523.10 331.60,527.12"/>
    </edge>
    <edge id=":left0_0" function="internal">
        <lane id=":left0_0_0" index="0" speed="13.90" length="0.61" shape="150.62,251.60 150.44,251.60 150.31,251.62 150.19,251.65 150.02,251.71"/>
    </edge>
    <edge id=":left0_1" function="internal">
        <lane id=":left0_1_0" index="0" speed="9.46" length="1.84" shape="148.83,248.74 149.34,248.55 149.70,248.45 150.07,248.41 150.62,248.40"/>
    </edge>
    <edge id=":left1_0" function="internal">
        <lane id=":left1_0_0" index="0" speed="9.46" length="1.84" shape="150.62,331.60 150.07,331.59 149.70,331.55 149.34,331.45 148.83,331.26"/>
    </edge>
    <edge id=":left1_1" function="internal">
        <lane id=":left1_1_0" index="0" speed="13.90" length="0.61" shape="150.02,328.29 150.19,328.35 150.31,328.38 150.44,328.40 150.62,328.40"/>
    </edge>
    <edge id=":right0_0" function="internal">
        <lane id=":right0_0_0" index="0" speed="13.90" length="0.61" shape="509.98,251.71 509.81,251.65 509.69,251.62 509.56,251.60 509.38,251.60"/>
    </edge>
    <edge id=":right0_1" function="internal">
        <lane id=":right0_1_0" index="0" speed="9.46" length="1.84" shape="509.38,248.40 509.93,248.41 510.30,248.45 510.66,248.55 511.17,248.74"/>
    </edge>
    <edge id=":right1_0" function="internal">
        <lane id=":right1_0_0" index="0" speed="9.46" length="1.84" shape="511.17,331.26 510.66,331.45 510.30,331.55 509.93,331.59 509.38,331.60"/>
    </edge>
    <edge id=":right1_1" function="internal">
        <lane id=":right1_1_0" index="0" speed="13.90" length="0.61" shape="509.38,328.40 509.56,328.40 509.69,328.38 509.81,328.35 509.98,328.29"/>
    </edge>
    <edge id=":top0_0" function="internal">
        <lane id=":top0_0_0" index="0" speed="6.94" length="3.29" shape="249.45,431.88 248.87,431.11 248.55,430.51 248.42,429.84 248.40,428.88"/>
    </edge>
    <edge id=":top0_1" function="internal">
        <lane id=":top0_1_0" index="0" speed="4.36" length="1.10" shape="251.60,428.88 251.61,429.20 251.65,429.42 251.76,429.62 251.95,429.88"/>
    </edge>
    <edge id=":top1_0" function="internal">
        <lane id=":top1_0_0" index="0" speed="13.90" length="0.10" shape="328.40,430.00 328.40,430.00"/>
    </edge>
    <edge id=":top1_1" function="internal">
        <lane id=":top1_1_0" index="0" speed="13.90" length="0.10" shape="331.60,430.00 331.60,430.00"/>
    </edge>
    <edge id=":top2_0" function="internal">
        <lane id=":top2_0_0" index="0" speed="6.94" length="3.29" shape="411.60,428.88 411.58,429.84 411.45,430.51 411.13,431.11 410.55,431.88"/>
    </edge>
    <edge id=":top2_1" function="internal">
        <lane id=":top2_1_0" index="0" speed="4.36" length="1.10" shape="408.05,429.88 408.24,429.62 408.35,429.42 408.39,429.20 408.40,428.88"/>
    </edge>

    <edge id="0/0to0/1" from="0/0" to="0/1" priority="-1">
        <lane id="0/0to0/1_0" index="0" speed="13.90" length="65.60" shape="251.60,257.20 251.60,322.80"/>
    </edge>
    <edge id="0/0to1/0" from="0/0" to="1/0" priority="-1">
        <lane id="0/0to1/0_0" index="0" speed="13.90" length="65.60" shape="257.20,248.40 322.80,248.40"/>
    </edge>
    <edge id="0/0tobottom0" from="0/0" to="bottom0" priority="-1">
        <lane id="0/0tobottom0_0" index="0" speed="13.90" length="91.68" shape="248.40,242.80 248.40,151.12"/>
    </edge>
    <edge id="0/0toleft0" from="0/0" to="left0" priority="-1">
        <lane id="0/0toleft0_0" index="0" speed="13.90" length="92.18" shape="242.80,251.60 150.62,251.60"/>
    </edge>
    <edge id="0/1to0/0" from="0/1" to="0/0" priority="-1">
        <lane id="0/1to0/0_0" index="0" speed="13.90" length="65.60" shape="248.40,322.80 248.40,257.20"/>
    </edge>
    <edge id="0/1to1/1" from="0/1" to="1/1" priority="-1">
        <lane id="0/1to1/1_0" index="0" speed="13.90" length="65.60" shape="257.20,328.40 322.80,328.40"/>
    </edge>
    <edge id="0/1toleft1" from="0/1" to="left1" priority="-1">
        <lane id="0/1toleft1_0" index="0" speed="13.90" length="92.18" shape="242.80,331.60 150.62,331.60"/>
    </edge>
    <edge id="0/1totop0" from="0/1" to="top0" priority="-1">
        <lane id="0/1totop0_0" index="0" speed="13.90" length="91.68" shape="251.60,337.20 251.60,428.88"/>
    </edge>
    <edge id="1/0to0/0" from="1/0" to="0/0" priority="-1">
        <lane id="1/0to0/0_0" index="0" speed="13.90" length="65.60" shape="322.80,251.60 257.20,251.60"/>
    </edge>
    <edge id="1/0to1/1" from="1/0" to="1/1" priority="-1">
        <lane id="1/0to1/1_0" index="0" speed="13.90" length="65.60" shape="331.60,257.20 331.60,322.80"/>
    </edge>
    <edge id="1/0to2/0" from="1/0" to="2/0" priority="-1">
        <lane id="1/0to2/0_0" index="0" speed="13.90" length="65.60" shape="337.20,248.40 402.80,248.40"/>
    </edge>
    <edge id="1/0tobottom1" from="1/0" to="bottom1" priority="-1">
        <lane id="1/0tobottom1_0" index="0" speed="13.90" length="92.80" shape="328.40,242.80 328.40,150.00"/>
    </edge>
    <edge id="1/1to0/1" from="1/1" to="0/1" priority="-1">
        <lane id="1/1to0/1_0" index="0" speed="13.90" length="65.60" shape="322.80,331.60 257.20,331.60"/>
    </edge>
    <edge id="1/1to1/0" from="1/1" to="1/0" priority="-1">
        <lane id="1/1to1/0_0" index="0" speed="13.90" length="65.60" shape="328.40,322.80 328.40,257.20"/>
    </edge>
    <edge id="1/1to2/1" from="1/1" to="2/1" priority="-1">
        <lane id="1/1to2/1_0" index="0" speed="13.90" length="65.60" shape="337.20,328.40 402.80,328.40"/>
    </edge>
    <edge id="1/1totop1" from="1/1" to="top1" priority="-1">
        <lane id="1/1totop1_0" index="0" speed="13.90" length="92.80" shape="331.60,337.20 331.60,430.00"/>
    </edge>
    <edge id="2/0to1/0" from="2/0" to="1/0" priority="-1">
        <lane id="2/0to1/0_0" index="0" speed="13.90" length="65.60" shape="402.80,251.60 337.20,251.60"/>
    </edge>
    <edge id="2/0to2/1" from="2/0" to="2/1" priority="-1">
        <lane id="2/0to2/1_0" index="0" speed="13.90" length="65.60" shape="411.60,257.20 411.60,322.80"/>
    </edge>
    <edge id="2/0tobottom2" from="2/0" to="bottom2" priority="-1">
        <lane id="2/0tobottom2_0" index="0" speed="13.90" length="91.68" shape="408.40,242.80 408.40,151.12"/>
    </edge>
    <edge id="2/0toright0" from="2/0" to="right0" priority="-1">
        <lane id="2/0toright0_0" index="0" speed="13.90" length="92.18" shape="417.20,248.40 509.38,248.40"/>
    </edge>
    <edge id="2/1to1/1" from="2/1" to="1/1" priority="-1">
        <lane id="2/1to1/1_0" index="0" speed="13.90" length="65.60" shape="402.80,331.60 337.20,331.60"/>
    </edge>
    <edge id="2/1to2/0" from="2/1" to="2/0" priority="-1">
        <lane id="2/1to2/0_0" index="0" speed="13.90" length="65.60" shape="408.40,322.80 408.40,257.20"/>
    </edge>
    <edge id="2/1toright1" from="2/1" to="right1" priority="-1">
        <lane id="2/1toright1_0" index="0" speed="13.90" length="92.18" shape="417.20,328.40 509.38,328.40"/>
    </edge>
    <edge id="2/1totop2" from="2/1" to="top2" priority="-1">
        <lane id="2/1totop2_0" index="0" speed="13.90" length="91.68" shape="411.60,337.20 411.60,428.88"/>
    </edge>
    <edge id="bottom0to0/0" from="bottom0" to="0/0" priority="-1">
        <lane id="bottom0to0/0_0" index="0" speed="13.90" length="91.68" shape="251.60,151.12 251.60,242.80"/>
    </edge>
    <edge id="bottom1to1/0" from="bottom1" to="1/0" priority="-1">
        <lane id="bottom1to1/0_0" index="0" speed="13.90" length="92.80" shape="331.60,150.00 331.60,242.80"/>
    </edge>
    <edge id="bottom2to2/0" from="bottom2" to="2/0" priority="-1">
        <lane id="bottom2to2/0_0" index="0" speed="13.90" length="91.68" shape="411.60,151.12 411.60,242.80"/>
    </edge>
    <edge id="bottom_in" from="gneJ16" to="gneJ14" priority="-1">
        <lane id="bottom_in_0" index="0" speed="13.90" length="52.88" shape="338.00,0.00 338.00,52.88"/>
        <lane id="bottom_in_1" index="1" speed="13.90" length="52.88" shape="334.80,0.00 334.80,52.88"/>
        <lane id="bottom_in_2" index="2" speed="13.90" length="52.88" shape="331.60,0.00 331.60,52.88"/>
    </edge>
    <edge id="bottom_out" from="gneJ14" to="gneJ16" priority="-1">
        <lane id="bottom_out_0" index="0" speed="13.90" length="52.88" shape="322.00,52.88 322.00,0.00"/>
        <lane id="bottom_out_1" index="1" speed="13.90" length="52.88" shape="325.20,52.88 325.20,0.00"/>
        <lane id="bottom_out_2" index="2" speed="13.90" length="52.88" shape="328.40,52.88 328.40,0.00"/>
    </edge>
    <edge id="gneE12" from="gneJ10" to="left1" priority="-1" length="80.00">
        <lane id="gneE12_0" index="0" speed="13.90" length="80.00" shape="62.88,293.43 150.02,328.29"/>
    </edge>
    <edge id="gneE13" from="left1" to="gneJ10" priority="-1" length="80.00">
        <lane id="gneE13_0" index="0" speed="13.90" length="80.00" shape="148.83,331.26 61.69,296.40"/>
    </edge>
    <edge id="gneE16" from="gneJ10" to="left0" priority="-1" length="80.00">
        <lane id="gneE16_0" index="0" speed="13.90" length="80.00" shape="61.69,283.60 148.83,248.74"/>
    </edge>
    <edge id="gneE17" from="left0" to="gneJ10" priority="-1" length="80.00">
        <lane id="gneE17_0" index="0" speed="13.90" length="80.00" shape="150.02,251.71 62.88,286.57"/>
    </edge>
    <edge id="gneE20" from="right1" to="gneJ12" priority="-1" length="80.00">
        <lane id="gneE20_0" index="0" speed="13.90" length="80.00" shape="509.98,328.29 597.12,293.43"/>
    </edge>
    <edge id="gneE21" from="gneJ12" to="right1" priority="-1" length="80.00">
        <lane id="gneE21_0" index="0" speed="13.90" length="80.00" shape="598.31,296.40 511.17,331.26"/>
    </edge>
    <edge id="gneE24" from="right0" to="gneJ12" priority="-1" length="80.00">
        <lane id="gneE24_0" index="0" speed="13.90" length="80.00" shape="511.17,248.74 598.31,283.60"/>
    </edge>
    <edge id="gneE25" from="gneJ12" to="right0" priority="-1" length="80.00">
        <lane id="gneE25_0" index="0" speed="13.90" length="80.00" shape="597.12,286.57 509.98,251.71"/>
    </edge>
    <edge id="gneE26" from="bottom0" to="gneJ14" priority="-1" length="80.00">
        <lane id="gneE26_0" index="0" speed="13.90" length="80.00" shape="249.45,148.12 319.15,61.00"/>
    </edge>
    <edge id="gneE27" from="gneJ14" to="bottom0" priority="-1" length="80.00">
        <lane id="gneE27_0" index="0" speed="13.90" length="80.00" shape="321.65,63.00 251.95,150.12"/>
    </edge>
    <edge id="gneE28" from="gneJ14" to="bottom1" priority="-1" length="80.00">
        <lane id="gneE28_0" index="0" speed="13.90" length="80.00" shape="331.60,63.12 331.60,150.00"/>
    </edge>
    <edge id="gneE29" from="bottom1" to="gneJ14" priority="-1" length="80.00">
        <lane id="gneE29_0" index="0" speed="13.90" length="80.00" shape="328.40,150.00 328.40,63.12"/>
    </edge>
    <edge id="gneE30" from="bottom2" to="gneJ14" priority="-1" length="80.00">
        <lane id="gneE30_0" index="0" speed="13.90" length="80.00" shape="408.05,150.12 338.35,63.00"/>
    </edge>
    <edge id="gneE31" from="gneJ14" to="bottom2" priority="-1" length="80.00">
        <lane id="gneE31_0" index="0" speed="13.90" length="80.00" shape="340.85,61.00 410.55,148.12"/>
    </edge>
    <edge id="gneE34" from="top0" to="gneJ17" priority="-1" length="80.00">
        <lane id="gneE34_0" index="0" speed="13.90" length="80.00" shape="251.95,429.88 321.65,517.00"/>
    </edge>
    <edge id="gneE35" from="gneJ17" to="top0" priority="-1" length="80.00">
        <lane id="gneE35_0" index="0" speed="13.90" length="80.00" shape="319.15,519.00 249.45,431.88"/>
    </edge>
    <edge id="gneE36" from="gneJ17" to="top1" priority="-1" length="80.00">
        <lane id="gneE36_0" index="0" speed="13.90" length="80.00" shape="328.40,516.88 328.40,430.00"/>
    </edge>
    <edge id="gneE37" from="top1" to="gneJ17" priority="-1" length="80.00">
        <lane id="gneE37_0" index="0" speed="13.90" length="80.00" shape="331.60,430.00 331.60,516.88"/>
    </edge>
    <edge id="gneE40" from="top2" to="gneJ17" priority="-1" length="80.00">
        <lane id="gneE40_0" index="0" speed="13.90" length="80.00" shape="410.55,431.88 340.85,519.00"/>
    </edge>
    <edge id="gneE41" from="gneJ17" to="top2" priority="-1" length="80.00">
        <lane id="gneE41_0" index="0" speed="13.90" length="80.00" shape="338.35,517.00 408.05,429.88"/>
    </edge>
    <edge id="left0to0/0" from="left0" to="0/0" priority="-1">
        <lane id="left0to0/0_0" index="0" speed="13.90" length="92.18" shape="150.62,248.40 242.80,248.40"/>
    </edge>
    <edge id="left1to0/1" from="left1" to="0/1" priority="-1">
        <lane id="left1to0/1_0" index="0" speed="13.90" length="92.18" shape="150.62,328.40 242.80,328.40"/>
    </edge>
    <edge id="left_in" from="gneJ9" to="gneJ10" priority="-1">
        <lane id="left_in_0" index="0" speed="13.90" length="53.38" shape="0.00,285.20 53.38,285.20"/>
        <lane id="left_in_1" index="1" speed="13.90" length="53.38" shape="0.00,288.40 53.38,288.40"/>
    </edge>
    <edge id="left_out" from="gneJ10" to="gneJ9" priority="-1">
        <lane id="left_out_0" index="0" speed="13.90" length="53.38" shape="53.38,294.80 0.00,294.80"/>
        <lane id="left_out_1" index="1" speed="13.90" length="53.38" shape="53.38,291.60 0.00,291.60"/>
    </edge>
    <edge id="right0to2/0" from="right0" to="2/0" priority="-1">
        <lane id="right0to2/0_0" index="0" speed="13.90" length="92.18" shape="509.38,251.60 417.20,251.60"/>
    </edge>
    <edge id="right1to2/1" from="right1" to="2/1" priority="-1">
        <lane id="right1to2/1_0" index="0" speed="13.90" length="92.18" shape="509.38,331.60 417.20,331.60"/>
    </edge>
    <edge id="right_in" from="gneJ13" to="gneJ12" priority="-1">
        <lane id="right_in_0" index="0" speed="13.90" length="53.38" shape="660.00,294.80 606.62,294.80"/>
        <lane id="right_in_1" index="1" speed="13.90" length="53.38" shape="660.00,291.60 606.62,291.60"/>
    </edge>
    <edge id="right_out" from="gneJ12" to="gneJ13" priority="-1">
        <lane id="right_out_0" index="0" speed="13.90" length="53.38" shape="606.62,285.20 660.00,285.20"/>
        <lane id="right_out_1" index="1" speed="13.90" length="53.38" shape="606.62,288.40 660.00,288.40"/>
    </edge>
    <edge id="top0to0/1" from="top0" to="0/1" priority="-1">
        <lane id="top0to0/1_0" index="0" speed="13.90" length="91.68" shape="248.40,428.88 248.40,337.20"/>
    </edge>
    <edge id="top1to1/1" from="top1" to="1/1" priority="-1">
        <lane id="top1to1/1_0" index="0" speed="13.90" length="92.80" shape="328.40,430.00 328.40,337.20"/>
    </edge>
    <edge id="top2to2/1" from="top2" to="2/1" priority="-1">
        <lane id="top2to2/1_0" index="0" speed="13.90" length="91.68" shape="408.40,428.88 408.40,337.20"/>
    </edge>
    <edge id="top_in" from="gneJ18" to="gneJ17" priority="-1">
        <lane id="top_in_0" index="0" speed="13.90" length="42.88" shape="322.00,570.00 322.00,527.12"/>
        <lane id="top_in_1" index="1" speed="13.90" length="42.88" shape="325.20,570.00 325.20,527.12"/>