<?xml version="1.0" encoding="UTF-8"?>

<!-- generated on Wed Apr 14 15:22:10 2021 by Eclipse SUMO netconvert Version v1_9_0+0038-34804216f7
<configuration xmlns:xsi="http://www.w3.org/2001/XMLSchema-instance" xsi:noNamespaceSchemaLocation="http://sumo.dlr.de/xsd/netconvertConfiguration.xsd">

    <input>
        <type-files value="miv.typ.xml"/>
        <osm-files value="../osm/BS_detail.osm.xml"/>
    </input>

    <output>
        <output-prefix value="net"/>
        <output-file value=".net.xml"/>
        <plain-output-prefix value="netpatch/"/>
        <output.street-names value="true"/>
        <output.original-names value="false"/>
        <ptstop-output value="_stops.add.xml"/>
        <ptline-output value="_ptlines.xml"/>
    </output>

    <projection>
        <proj.utm value="true"/>
        <proj.plain-geo value="true"/>
    </projection>

    <processing>
        <geometry.remove value="true"/>
        <roundabouts.guess value="true"/>
        <edges.join-tram-dist value="1.6"/>
    </processing>

    <tls_building>
        <tls.discard-simple value="true"/>
        <tls.join value="true"/>
        <tls.guess-signals value="true"/>
        <tls.default-type value="actuated"/>
    </tls_building>

    <ramp_guessing>
        <ramps.guess value="true"/>
    </ramp_guessing>

    <edge_removal>
        <keep-edges.in-geo-boundary value="10.509219,52.256458,10.530758,52.270119"/>
        <keep-edges.by-vclass value="passenger,bus"/>
        <keep-edges.components value="1"/>
    </edge_removal>

    <junctions>
        <no-turnarounds.except-turnlane value="true"/>
        <junctions.join value="true"/>
        <junctions.corner-detail value="5"/>
    </junctions>

    <report>
        <verbose value="true"/>
        <aggregate-warnings value="5"/>
        <log value=".log"/>
    </report>

</configuration>
-->

<net version="1.9" junctionCornerDetail="5" limitTurnSpeed="5.50" xmlns:xsi="http://www.w3.org/2001/XMLSchema-instance" xsi:noNamespaceSchemaLocation="http://sumo.dlr.de/xsd/net_file.xsd">

    <location netOffset="-602961.55,-5790545.48" convBoundary="0.00,0.00,1559.08,1739.87" origBoundary="10.393336,52.146541,10.787296,52.408126" projParameter="+proj=utm +zone=32 +ellps=WGS84 +datum=WGS84 +units=m +no_defs"/>

    <type id="highway.bridleway" priority="1" numLanes="1" speed="2.78" allow="pedestrian" oneway="1" width="2.00"/>
    <type id="highway.bus_guideway" priority="1" numLanes="1" speed="27.78" allow="bus" oneway="1"/>
    <type id="highway.cycleway" priority="1" numLanes="1" speed="8.33" allow="bicycle" oneway="0" width="1.00"/>
    <type id="highway.footway" priority="1" numLanes="1" speed="2.78" allow="pedestrian" oneway="1" width="2.00"/>
    <type id="highway.ford" priority="1" numLanes="1" speed="2.78" allow="army" oneway="0"/>
    <type id="highway.living_street" priority="2" numLanes="1" speed="2.78" disallow="tram rail_urban rail rail_electric rail_fast ship" oneway="0"/>
    <type id="highway.motorway" priority="14" numLanes="2" speed="39.44" allow="private emergency authority army vip passenger hov taxi bus coach delivery truck trailer motorcycle evehicle custom1 custom2" oneway="1"/>
    <type id="highway.motorway_link" priority="9" numLanes="1" speed="16.66" allow="private emergency authority army vip passenger hov taxi bus coach delivery truck trailer motorcycle evehicle custom1 custom2" oneway="1"/>
    <type id="highway.path" priority="1" numLanes="1" speed="2.78" allow="pedestrian bicycle" oneway="1" width="2.00"/>
    <type id="highway.pedestrian" priority="1" numLanes="1" speed="2.78" allow="pedestrian" oneway="1" width="2.00"/>
    <type id="highway.primary" priority="12" numLanes="2" speed="27.78" disallow="tram rail_urban rail rail_electric rail_fast ship" oneway="0"/>
    <type id="highway.primary_link" priority="7" numLanes="1" speed="22.22" disallow="tram rail_urban rail rail_electric rail_fast ship" oneway="0"/>
    <type id="highway.raceway" priority="15" numLanes="2" speed="83.33" allow="vip" oneway="0"/>
    <type id="highway.residential" priority="3" numLanes="1" speed="13.89" disallow="tram rail_urban rail rail_electric rail_fast ship" oneway="0"/>
    <type id="highway.secondary" priority="11" numLanes="1" speed="27.78" disallow="tram rail_urban rail rail_electric rail_fast ship" oneway="0"/>
    <type id="highway.secondary_link" priority="6" numLanes="1" speed="22.22" disallow="tram rail_urban rail rail_electric rail_fast ship" oneway="0"/>
    <type id="highway.service" priority="1" numLanes="1" speed="5.56" allow="pedestrian bus delivery bicycle" oneway="0"/>
    <type id="highway.service|railway.tram" priority="17" numLanes="1" speed="13.89" allow="pedestrian bus delivery bicycle tram" oneway="0"/>
    <type id="highway.stairs" priority="1" numLanes="1" speed="1.39" allow="pedestrian" oneway="1" width="2.00"/>
    <type id="highway.step" priority="1" numLanes="1" speed="1.39" allow="pedestrian" oneway="1" width="2.00"/>
    <type id="highway.steps" priority="1" numLanes="1" speed="1.39" allow="pedestrian" oneway="1" width="2.00"/>
    <type id="highway.tertiary" priority="10" numLanes="1" speed="22.22" disallow="tram rail_urban rail rail_electric rail_fast ship" oneway="0"/>
    <type id="highway.tertiary_link" priority="5" numLanes="1" speed="22.22" disallow="tram rail_urban rail rail_electric rail_fast ship" oneway="0"/>
    <type id="highway.tertiary|railway.tram" priority="17" numLanes="1" speed="22.22" disallow="rail_urban rail rail_electric rail_fast ship" oneway="0"/>
    <type id="highway.track" priority="1" numLanes="1" speed="5.56" disallow="tram rail_urban rail rail_electric rail_fast ship" oneway="0"/>
    <type id="highway.trunk" priority="13" numLanes="2" speed="27.78" disallow="pedestrian bicycle tram rail_urban rail rail_electric rail_fast ship" oneway="0"/>
    <type id="highway.trunk_link" priority="8" numLanes="1" speed="22.22" disallow="pedestrian bicycle tram rail_urban rail rail_electric rail_fast ship" oneway="0"/>
    <type id="highway.unclassified" priority="4" numLanes="1" speed="13.89" disallow="tram rail_urban rail rail_electric rail_fast ship" oneway="0"/>
    <type id="highway.unsurfaced" priority="1" numLanes="1" speed="8.33" disallow="tram rail_urban rail rail_electric rail_fast ship" oneway="0"/>
    <type id="railway.light_rail" priority="19" numLanes="1" speed="27.78" allow="rail_urban" oneway="1"/>
    <type id="railway.preserved" priority="16" numLanes="1" speed="27.78" allow="rail" oneway="1"/>
    <type id="railway.rail" priority="20" numLanes="1" speed="83.33" allow="rail rail_electric" oneway="1"/>
    <type id="railway.subway" priority="18" numLanes="1" speed="27.78" allow="rail_urban" oneway="1"/>
    <type id="railway.tram" priority="17" numLanes="1" speed="13.89" allow="tram" oneway="1"/>

    <edge id=":1132716973_0" function="internal">
        <lane id=":1132716973_0_0" index="0" disallow="tram rail_urban rail rail_electric rail_fast ship" speed="8.33" length="14.02" shape="871.47,1353.07 866.22,1366.07"/>
    </edge>
    <edge id=":1132716973_1" function="internal">
        <lane id=":1132716973_1_0" index="0" allow="pedestrian bus delivery bicycle" speed="6.95" length="5.54" shape="871.47,1353.07 869.34,1356.42 868.04,1357.30"/>
    </edge>
    <edge id=":1132716973_6" function="internal">
        <lane id=":1132716973_6_0" index="0" allow="pedestrian bus delivery bicycle" speed="6.95" length="8.85" shape="868.04,1357.30 866.67,1358.23 863.45,1358.48 859.70,1357.19"/>
    </edge>
    <edge id=":1132716973_2" function="internal">
        <lane id=":1132716973_2_0" index="0" allow="pedestrian bus delivery bicycle" speed="6.40" length="9.04" shape="861.16,1354.34 863.52,1355.15 865.54,1354.99 867.22,1353.86 868.55,1351.76"/>
    </edge>
    <edge id=":1132716973_3" function="internal">
        <lane id=":1132716973_3_0" index="0" allow="pedestrian bus delivery bicycle" speed="6.95" length="14.17" shape="861.16,1354.34 864.40,1356.58 866.32,1359.27 866.93,1362.44 866.22,1366.07"/>
    </edge>
    <edge id=":1132716973_4" function="internal">
        <lane id=":1132716973_4_0" index="0" allow="pedestrian bus delivery bicycle" speed="6.95" length="9.49" shape="863.20,1365.00 863.66,1362.60 863.23,1360.50 861.91,1358.70 859.70,1357.19"/>
    </edge>
    <edge id=":1132716973_5" function="internal">
        <lane id=":1132716973_5_0" index="0" disallow="tram rail_urban rail rail_electric rail_fast ship" speed="8.33" length="14.28" shape="863.20,1365.00 868.55,1351.76"/>
    </edge>
    <edge id=":119574120_0" function="internal">
        <lane id=":119574120_0_0" index="0" disallow="tram rail_urban rail rail_electric rail_fast ship" speed="13.89" length="14.20" shape="1042.86,1331.50 1046.58,1333.86 1049.72,1334.98 1052.75,1335.41 1056.15,1335.66"/>
    </edge>
    <edge id=":119574120_1" function="internal">
        <lane id=":119574120_1_0" index="0" disallow="tram rail_urban rail rail_electric rail_fast ship" speed="13.89" length="14.27" shape="1042.86,1331.50 1054.08,1340.39"/>
        <lane id=":119574120_1_1" index="1" disallow="tram rail_urban rail rail_electric rail_fast ship" speed="13.89" length="14.27" shape="1040.93,1334.06 1052.08,1342.89"/>
    </edge>
    <edge id=":119574130_0" function="internal">
        <lane id=":119574130_0_0" index="0" disallow="tram rail_urban rail rail_electric rail_fast ship" speed="13.15" length="11.59" shape="1070.57,1333.67 1073.36,1332.22 1075.30,1330.77 1076.89,1328.80 1078.61,1325.76"/>
    </edge>
    <edge id=":119574130_1" function="internal">
        <lane id=":119574130_1_0" index="0" disallow="tram rail_urban rail rail_electric rail_fast ship" speed="13.89" length="11.55" shape="1075.78,1337.13 1076.39,1333.68 1076.67,1331.25 1077.21,1328.93 1078.61,1325.76"/>
        <lane id=":119574130_1_1" index="1" disallow="tram rail_urban rail rail_electric rail_fast ship" speed="13.89" length="11.55" shape="1078.83,1338.15 1079.40,1334.83 1079.64,1332.51 1080.12,1330.27 1081.45,1327.24"/>
    </edge>
    <edge id=":1289377242_0" function="internal">
        <lane id=":1289377242_0_0" index="0" disallow="tram rail_urban rail rail_electric rail_fast ship" speed="13.89" length="8.04" shape="1318.80,201.24 1319.36,203.47 1320.13,204.90 1320.95,206.32 1321.64,208.53"/>
        <lane id=":1289377242_0_1" index="1" disallow="tram rail_urban rail rail_electric rail_fast ship" speed="13.89" length="8.04" shape="1315.63,201.67 1316.19,203.96 1316.98,205.43 1317.80,206.89 1318.51,209.16"/>
        <lane id=":1289377242_0_2" index="2" disallow="tram rail_urban rail rail_electric rail_fast ship" speed="13.89" length="8.04" shape="1315.63,201.67 1315.71,204.08 1315.41,205.74 1315.15,207.40 1315.37,209.78"/>
    </edge>
    <edge id=":1334564023_0" function="internal">
        <lane id=":1334564023_0_0" index="0" allow="pedestrian bus delivery bicycle" speed="5.56" length="14.53" shape="705.78,1044.17 691.30,1042.99"/>
    </edge>
    <edge id=":1334564023_1" function="internal">
        <lane id=":1334564023_1_0" index="0" allow="pedestrian bus delivery bicycle" speed="5.56" length="14.83" shape="705.78,1044.17 701.72,1043.27 699.14,1041.28 698.04,1038.22 698.41,1034.08"/>
    </edge>
    <edge id=":1334564023_2" function="internal">
        <lane id=":1334564023_2_0" index="0" allow="pedestrian bus delivery bicycle" speed="5.56" length="9.05" shape="701.53,1034.82 701.30,1037.35 701.97,1039.22 703.54,1040.43 706.02,1040.98"/>
    </edge>
    <edge id=":1334564023_3" function="internal">
        <lane id=":1334564023_3_0" index="0" allow="pedestrian bus delivery bicycle" speed="5.56" length="14.48" shape="701.53,1034.82 700.09,1038.66 697.91,1041.30 694.98,1042.75 691.30,1042.99"/>
    </edge>
    <edge id=":1334564023_4" function="internal">
        <lane id=":1334564023_4_0" index="0" allow="pedestrian bus delivery bicycle" speed="5.56" length="9.86" shape="691.58,1039.80 694.01,1039.62 695.97,1038.61 697.43,1036.76 698.41,1034.08"/>
    </edge>
    <edge id=":1334564023_5" function="internal">
        <lane id=":1334564023_5_0" index="0" allow="pedestrian bus delivery bicycle" speed="5.56" length="14.49" shape="691.58,1039.80 706.02,1040.98"/>
    </edge>
    <edge id=":1334564067_0" function="internal">
        <lane id=":1334564067_0_0" index="0" allow="pedestrian bus delivery bicycle" speed="3.65" length="4.67" shape="736.33,1025.75 737.31,1024.69 738.16,1024.41 738.89,1024.93 739.50,1026.24"/>
    </edge>
    <edge id=":1334564113_0" function="internal">
        <lane id=":1334564113_0_0" index="0" allow="pedestrian bus delivery bicycle" speed="3.65" length="4.67" shape="720.41,1019.04 721.44,1018.03 722.30,1017.80 723.00,1018.35 723.54,1019.69"/>
    </edge>
    <edge id=":1334564129_0" function="internal">
        <lane id=":1334564129_0_0" index="0" allow="pedestrian bus delivery bicycle" speed="3.65" length="4.67" shape="703.59,1012.36 704.64,1011.38 705.51,1011.18 706.20,1011.75 706.70,1013.11"/>
    </edge>
    <edge id=":1361208776_0" function="internal">
        <lane id=":1361208776_0_0" index="0" allow="pedestrian bus delivery bicycle" speed="3.65" length="4.67" shape="746.60,589.15 748.02,588.87 748.87,589.15 749.15,590.00 748.86,591.42"/>
    </edge>
    <edge id=":1363862021_0" function="internal">
        <lane id=":1363862021_0_0" index="0" allow="pedestrian bus delivery bicycle" speed="2.78" length="0.42" shape="788.73,1152.73 788.67,1152.74 788.63,1152.75 788.59,1152.75 788.53,1152.77"/>
        <lane id=":1363862021_0_1" index="1" allow="pedestrian bus delivery bicycle" speed="2.78" length="0.42" shape="788.44,1149.55 788.26,1149.56 788.13,1149.58 788.00,1149.60 787.82,1149.64"/>
    </edge>
    <edge id=":1363862021_2" function="internal">
        <lane id=":1363862021_2_0" index="0" allow="pedestrian bus delivery bicycle" speed="2.78" length="1.26" shape="786.42,1143.40 786.84,1143.31 787.13,1143.25 787.43,1143.21 787.86,1143.17"/>
        <lane id=":1363862021_2_1" index="1" allow="pedestrian bus delivery bicycle" speed="2.78" length="1.26" shape="787.12,1146.52 787.42,1146.46 787.63,1146.42 787.84,1146.39 788.15,1146.36"/>
    </edge>
    <edge id=":1363862022_0" function="internal">
        <lane id=":1363862022_0_0" index="0" allow="pedestrian bus delivery bicycle" speed="5.56" length="9.92" shape="445.82,1182.84 436.31,1185.67"/>
    </edge>
    <edge id=":1363862022_1" function="internal">
        <lane id=":1363862022_1_0" index="0" allow="pedestrian bus delivery bicycle" speed="6.79" length="12.44" shape="445.82,1182.84 443.35,1182.92 441.65,1181.45 440.72,1178.43 440.57,1173.87"/>
    </edge>
    <edge id=":1363862022_2" function="internal">
        <lane id=":1363862022_2_0" index="0" allow="pedestrian bus delivery bicycle" speed="5.06" length="6.32" shape="443.77,1173.96 443.74,1176.66 443.91,1178.53 444.31,1179.57 444.91,1179.77"/>
    </edge>
    <edge id=":1363862022_3" function="internal">
        <lane id=":1363862022_3_0" index="0" allow="pedestrian bus delivery bicycle" speed="6.95" length="14.88" shape="443.77,1173.96 443.14,1178.30 441.69,1181.69 439.41,1184.15 436.31,1185.67"/>
    </edge>
    <edge id=":1363862022_4" function="internal">
        <lane id=":1363862022_4_0" index="0" allow="pedestrian bus delivery bicycle" speed="6.95" length="10.86" shape="435.40,1182.60 437.54,1181.51 439.11,1179.69 440.12,1177.15 440.57,1173.87"/>
    </edge>
    <edge id=":1363862022_5" function="internal">
        <lane id=":1363862022_5_0" index="0" allow="pedestrian bus delivery bicycle" speed="5.56" length="9.92" shape="435.40,1182.60 444.91,1179.77"/>
    </edge>
    <edge id=":1365387261_0" function="internal">
        <lane id=":1365387261_0_0" index="0" allow="pedestrian bus delivery bicycle" speed="6.90" length="9.71" shape="483.38,138.91 486.07,139.73 488.36,139.62 490.24,138.58 491.73,136.62"/>
    </edge>
    <edge id=":1365387261_1" function="internal">
        <lane id=":1365387261_1_0" index="0" allow="pedestrian bus delivery bicycle" speed="5.92" length="9.46" shape="483.99,148.97 485.56,146.91 485.76,145.04 484.60,143.35 482.09,141.84"/>
    </edge>
    <edge id=":1365387261_2" function="internal">
        <lane id=":1365387261_2_0" index="0" disallow="tram rail_urban rail rail_electric rail_fast ship" speed="13.89" length="14.64" shape="483.99,148.97 486.40,146.20 488.34,143.15 490.04,139.93 491.73,136.62"/>
    </edge>
    <edge id=":1365387301_0" function="internal">
        <lane id=":1365387301_0_0" index="0" disallow="tram rail_urban rail rail_electric rail_fast ship" speed="7.79" length="10.25" shape="468.78,154.44 471.64,155.68 474.19,156.09 476.42,155.66 478.32,154.41"/>
    </edge>
    <edge id=":1365387301_1" function="internal">
        <lane id=":1365387301_1_0" index="0" disallow="tram rail_urban rail rail_electric rail_fast ship" speed="13.89" length="7.83" shape="468.78,154.44 475.52,158.50"/>
        <lane id=":1365387301_1_1" index="1" disallow="tram rail_urban rail rail_electric rail_fast ship" speed="13.89" length="7.83" shape="467.11,157.18 473.78,161.19"/>
    </edge>
    <edge id=":1365387301_3" function="internal">
        <lane id=":1365387301_3_0" index="0" disallow="tram rail_urban rail rail_electric rail_fast ship" speed="13.89" length="11.26" shape="469.64,161.53 472.26,159.76 474.20,158.25 476.03,156.60 478.32,154.41"/>
    </edge>
    <edge id=":1365387301_4" function="internal">
        <lane id=":1365387301_4_0" index="0" disallow="tram rail_urban rail rail_electric rail_fast ship" speed="5.64" length="4.40" shape="469.64,161.53 470.78,160.94 471.84,160.69 472.84,160.77 473.78,161.19"/>
    </edge>
    <edge id=":1365387313_0" function="internal">
        <lane id=":1365387313_0_0" index="0" disallow="tram rail_urban rail rail_electric rail_fast ship" speed="13.89" length="15.33" shape="485.14,157.71 482.25,160.19 478.99,162.29 475.46,163.86 471.79,164.78"/>
    </edge>
    <edge id=":1365387313_1" function="internal">
        <lane id=":1365387313_1_0" index="0" disallow="tram rail_urban rail rail_electric rail_fast ship" speed="13.89" length="9.82" shape="475.69,158.61 478.21,160.14 480.00,161.12 481.70,162.20 484.01,164.03"/>
        <lane id=":1365387313_1_1" index="1" disallow="tram rail_urban rail rail_electric rail_fast ship" speed="13.89" length="9.82" shape="473.95,161.30 476.41,162.79 478.14,163.74 479.81,164.79 482.05,166.56"/>
    </edge>
    <edge id=":1365387357_0" function="internal">
        <lane id=":1365387357_0_0" index="0" disallow="tram rail_urban rail rail_electric rail_fast ship" speed="13.89" length="16.86" shape="471.59,164.81 467.59,165.40 463.23,165.93 458.85,166.28 454.82,166.30"/>
    </edge>
    <edge id=":1365387357_1" function="internal">
        <lane id=":1365387357_1_0" index="0" disallow="tram rail_urban rail rail_electric rail_fast ship" speed="13.89" length="13.28" shape="459.22,170.02 461.68,167.56 464.05,165.48 466.58,163.58 469.47,161.64"/>
    </edge>
    <edge id=":1365387394_0" function="internal">
        <lane id=":1365387394_0_0" index="0" disallow="tram rail_urban rail rail_electric rail_fast ship" speed="13.89" length="7.22" shape="501.42,178.92 503.24,180.16 504.68,180.75 506.06,181.42 507.66,182.87"/>
        <lane id=":1365387394_0_1" index="1" disallow="tram rail_urban rail rail_electric rail_fast ship" speed="13.89" length="7.22" shape="499.35,181.37 501.06,182.51 502.43,183.03 503.74,183.62 505.25,184.97"/>
    </edge>
    <edge id=":1365387394_2" function="internal">
        <lane id=":1365387394_2_0" index="0" disallow="tram rail_urban rail rail_electric rail_fast ship" speed="13.89" length="6.99" shape="501.41,178.94 502.83,180.47 503.47,181.81 504.04,183.21 505.25,184.97"/>
        <lane id=":1365387394_2_1" index="1" disallow="tram rail_urban rail rail_electric rail_fast ship" speed="13.89" length="6.99" shape="499.34,181.38 500.65,182.82 501.22,184.09 501.72,185.42 502.83,187.07"/>
    </edge>
    <edge id=":1365387396_0" function="internal">
        <lane id=":1365387396_0_0" index="0" disallow="tram rail_urban rail rail_electric rail_fast ship" speed="13.89" length="19.95" shape="445.07,184.37 459.08,170.16"/>
    </edge>
    <edge id=":1365387396_1" function="internal">
        <lane id=":1365387396_1_0" index="0" disallow="tram rail_urban rail rail_electric rail_fast ship" speed="13.89" length="23.16" shape="445.07,184.37 449.45,179.66 453.49,176.51 458.10,174.21 464.18,172.03"/>
        <lane id=":1365387396_1_1" index="1" disallow="tram rail_urban rail rail_electric rail_fast ship" speed="13.89" length="22.14" shape="447.51,186.44 451.77,181.85 455.55,178.96 459.90,176.91 465.86,174.85"/>
    </edge>
    <edge id=":1365387427_0" function="internal">
        <lane id=":1365387427_0_0" index="0" disallow="tram rail_urban rail rail_electric rail_fast ship" speed="13.89" length="8.47" shape="648.05,215.60 646.84,223.98"/>
        <lane id=":1365387427_0_1" index="1" disallow="tram rail_urban rail rail_electric rail_fast ship" speed="13.89" length="8.47" shape="644.88,215.14 643.67,223.52"/>
        <lane id=":1365387427_0_2" index="2" disallow="tram rail_urban rail rail_electric rail_fast ship" speed="13.89" length="8.47" shape="641.71,214.68 640.50,223.06"/>
    </edge>
    <edge id=":1365387427_3" function="internal">
        <lane id=":1365387427_3_0" index="0" disallow="tram rail_urban rail rail_electric rail_fast ship" speed="10.22" length="8.59" shape="641.71,214.68 641.13,217.06 640.19,218.51 638.77,219.69 636.74,221.26"/>
    </edge>
    <edge id=":1365387483_0" function="internal">
        <lane id=":1365387483_0_0" index="0" disallow="tram rail_urban rail rail_electric rail_fast ship" speed="13.89" length="10.09" shape="641.18,263.03 640.57,265.97 640.02,268.02 639.85,270.05 640.35,272.93"/>
    </edge>
    <edge id=":1365387483_1" function="internal">
        <lane id=":1365387483_1_0" index="0" disallow="tram rail_urban rail rail_electric rail_fast ship" speed="13.89" length="7.16" shape="638.02,262.57 637.65,264.65 637.23,266.04 636.68,267.40 635.87,269.37"/>
        <lane id=":1365387483_1_1" index="1" disallow="tram rail_urban rail rail_electric rail_fast ship" speed="13.89" length="6.44" shape="634.85,262.11 634.51,263.98 634.13,265.23 633.62,266.44 632.89,268.21"/>
    </edge>
    <edge id=":1365387509_0" function="internal">
        <lane id=":1365387509_0_0" index="0" disallow="tram rail_urban rail rail_electric rail_fast ship" speed="13.89" length="4.34" shape="550.56,310.81 554.61,309.50"/>
        <lane id=":1365387509_0_1" index="1" disallow="tram rail_urban rail rail_electric rail_fast ship" speed="13.89" length="4.34" shape="553.43,312.26 557.58,310.69"/>
    </edge>
    <edge id=":1365387509_2" function="internal">
        <lane id=":1365387509_2_0" index="0" disallow="tram rail_urban rail rail_electric rail_fast ship" speed="13.89" length="4.28" shape="556.29,313.70 554.94,309.64"/>
        <lane id=":1365387509_2_1" index="1" disallow="tram rail_urban rail rail_electric rail_fast ship" speed="13.89" length="4.45" shape="559.16,315.15 557.98,310.85"/>
    </edge>
    <edge id=":1365387565_0" function="internal">
        <lane id=":1365387565_0_0" index="0" disallow="tram rail_urban rail rail_electric rail_fast ship" speed="13.89" length="7.86" shape="839.52,336.37 841.73,337.04 843.13,337.86 844.53,338.68 846.74,339.34"/>
        <lane id=":1365387565_0_1" index="1" disallow="tram rail_urban rail rail_electric rail_fast ship" speed="13.89" length="7.86" shape="838.93,339.52 841.14,340.18 842.54,341.01 843.94,341.82 846.15,342.49"/>
    </edge>
    <edge id=":1365387565_2" function="internal">
        <lane id=":1365387565_2_0" index="0" disallow="tram rail_urban rail rail_electric rail_fast ship" speed="13.89" length="7.33" shape="838.34,342.66 840.42,343.18 841.76,343.83 843.00,344.71 844.80,345.94"/>
    </edge>
    <edge id=":1365387629_0" function="internal">
        <lane id=":1365387629_0_0" index="0" disallow="tram rail_urban rail rail_electric rail_fast ship" speed="10.69" length="19.04" shape="869.45,423.24 863.05,425.97 858.49,428.71 855.75,431.45 854.84,434.18"/>
    </edge>
    <edge id=":1365387629_1" function="internal">
        <lane id=":1365387629_1_0" index="0" disallow="tram rail_urban rail rail_electric rail_fast ship" speed="13.89" length="22.25" shape="869.45,423.24 848.15,429.61"/>
        <lane id=":1365387629_1_1" index="1" disallow="tram rail_urban rail rail_electric rail_fast ship" speed="13.89" length="22.25" shape="868.33,420.24 847.00,426.63"/>
    </edge>
    <edge id=":1365387629_3" function="internal">
        <lane id=":1365387629_3_0" index="0" disallow="tram rail_urban rail rail_electric rail_fast ship" speed="9.72" length="17.11" shape="867.21,417.24 860.80,419.49 855.92,420.88 852.57,421.39 850.75,421.04"/>
    </edge>
    <edge id=":1365387629_4" function="internal">
        <lane id=":1365387629_4_0" index="0" disallow="tram rail_urban rail rail_electric rail_fast ship" speed="13.89" length="23.14" shape="864.54,413.98 861.02,419.45 857.91,423.64 855.68,428.05 854.84,434.18"/>
        <lane id=":1365387629_4_1" index="1" disallow="tram rail_urban rail rail_electric rail_fast ship" speed="13.89" length="23.14" shape="861.85,412.23 858.26,417.76 854.96,422.07 852.56,426.62 851.64,432.81"/>
    </edge>
    <edge id=":1365387629_6" function="internal">
        <lane id=":1365387629_6_0" index="0" disallow="tram rail_urban rail rail_electric rail_fast ship" speed="13.89" length="21.42" shape="861.85,412.23 858.85,417.69 856.15,421.38 852.59,424.09 847.00,426.63"/>
    </edge>
    <edge id=":1365387629_7" function="internal">
        <lane id=":1365387629_7_0" index="0" disallow="tram rail_urban rail rail_electric rail_fast ship" speed="7.99" length="15.75" shape="861.85,412.23 858.70,417.35 855.80,420.53 853.15,421.76 850.75,421.04"/>
    </edge>
    <edge id=":1365387656_0" function="internal">
        <lane id=":1365387656_0_0" index="0" disallow="tram rail_urban rail rail_electric rail_fast ship" speed="13.89" length="33.93" shape="613.94,440.08 606.40,437.27 597.77,435.29 589.04,433.58 581.16,431.56"/>
        <lane id=":1365387656_0_1" index="1" disallow="tram rail_urban rail rail_electric rail_fast ship" speed="13.89" length="34.14" shape="613.94,440.08 606.51,436.78 598.14,433.72 589.65,430.93 581.89,428.43"/>
    </edge>
    <edge id=":1365387656_2" function="internal">
        <lane id=":1365387656_2_0" index="0" disallow="tram rail_urban rail rail_electric rail_fast ship" speed="13.89" length="33.98" shape="613.94,440.08 607.40,437.10 600.64,434.26 592.96,430.41 583.62,424.41"/>
        <lane id=":1365387656_2_1" index="1" disallow="tram rail_urban rail rail_electric rail_fast ship" speed="13.89" length="33.98" shape="615.28,437.18 608.77,434.21 602.09,431.39 594.50,427.59 585.26,421.66"/>
        <lane id=":1365387656_2_2" index="2" disallow="tram rail_urban rail rail_electric rail_fast ship" speed="13.89" length="33.98" shape="615.28,437.18 609.02,433.77 602.90,430.01 595.88,425.26 586.91,418.90"/>
        <lane id=":1365387656_2_3" index="3" disallow="tram rail_urban rail rail_electric rail_fast ship" speed="13.89" length="33.98" shape="615.28,437.18 609.30,433.35 603.77,428.66 597.31,422.96 588.56,416.14"/>
    </edge>
    <edge id=":1383266070_0" function="internal">
        <lane id=":1383266070_0_0" index="0" allow="pedestrian bus delivery bicycle" speed="9.72" length="13.29" shape="1280.60,769.87 1284.70,769.88 1287.69,769.25 1290.35,768.26 1293.48,767.23"/>
    </edge>
    <edge id=":1383266070_1" function="internal">
        <lane id=":1383266070_1_0" index="0" disallow="tram rail_urban rail rail_electric rail_fast ship" speed="13.89" length="13.38" shape="1280.60,769.87 1293.93,772.01"/>
        <lane id=":1383266070_1_1" index="1" disallow="tram rail_urban rail rail_electric rail_fast ship" speed="13.89" length="13.38" shape="1280.32,773.05 1293.40,775.16"/>
    </edge>
    <edge id=":1393800630_0" function="internal">
        <lane id=":1393800630_0_0" index="0" allow="pedestrian bus delivery bicycle" speed="9.72" length="17.65" shape="1393.81,821.75 1395.02,825.23 1396.34,828.83 1398.42,832.76 1401.93,837.24"/>
    </edge>
    <edge id=":1393800630_1" function="internal">
        <lane id=":1393800630_1_0" index="0" disallow="tram rail_urban rail rail_electric rail_fast ship" speed="13.89" length="17.70" shape="1389.91,824.28 1393.77,827.82 1396.19,830.48 1398.46,833.28 1401.93,837.24"/>
        <lane id=":1393800630_1_1" index="1" disallow="tram rail_urban rail rail_electric rail_fast ship" speed="13.89" length="17.70" shape="1387.55,826.46 1391.41,830.00 1393.83,832.66 1396.11,835.45 1399.58,839.41"/>
    </edge>
    <edge id=":1417339335_0" function="internal">
        <lane id=":1417339335_0_0" index="0" allow="pedestrian bus delivery bicycle" speed="3.65" length="4.67" shape="1349.39,485.06 1348.16,484.30 1347.73,483.51 1348.10,482.70 1349.28,481.86"/>
    </edge>
    <edge id=":1417339342_0" function="internal">
        <lane id=":1417339342_0_0" index="0" allow="pedestrian bus delivery bicycle" speed="6.66" length="9.29" shape="1381.79,489.32 1381.24,486.92 1380.02,485.23 1378.11,484.28 1375.52,484.04"/>
    </edge>
    <edge id=":1417339342_1" function="internal">
        <lane id=":1417339342_1_0" index="0" disallow="tram rail_urban rail rail_electric rail_fast ship" speed="8.33" length="14.47" shape="1381.79,489.32 1380.45,474.92"/>
    </edge>
    <edge id=":1417339342_2" function="internal">
        <lane id=":1417339342_2_0" index="0" disallow="tram rail_urban rail rail_electric rail_fast ship" speed="8.33" length="14.58" shape="1383.63,474.57 1384.98,489.09"/>
    </edge>
    <edge id=":1417339342_3" function="internal">
        <lane id=":1417339342_3_0" index="0" allow="pedestrian bus delivery bicycle" speed="6.95" length="6.14" shape="1383.63,474.57 1383.50,478.56 1382.58,480.50"/>
    </edge>