<?xml version="1.0" encoding="UTF-8"?>

<!-- generated on Do 28 Jun 2018 21:26:34 CEST by Eclipse SUMO netedit Version ce0d7cd
<configuration xmlns:xsi="http://www.w3.org/2001/XMLSchema-instance" xsi:noNamespaceSchemaLocation="http://sumo.dlr.de/xsd/netconvertConfiguration.xsd">

    <input>
        <sumo-net-file value="/home/kobo/dlr/sumo/tests/netconvert/inner_lanes/changeWidth_split_bikelane/net.netconvert"/>
    </input>

    <output>
        <output-file value="/home/kobo/dlr/sumo/tests/netconvert/inner_lanes/changeWidth_split_bikelane/net.netconvert"/>
        <plain-output-prefix value="/home/kobo/dlr/sumo/tests/netconvert/inner_lanes/changeWidth_split_bikelane/input_plain"/>
    </output>

    <processing>
        <no-internal-links value="false"/>
        <no-turnarounds value="true"/>
        <offset.disable-normalization value="true"/>
        <lefthand value="false"/>
        <junctions.corner-detail value="5"/>
        <rectangular-lane-cut value="false"/>
        <walkingareas value="false"/>
    </processing>

</configuration>
-->

<nodes version="0.27" xmlns:xsi="http://www.w3.org/2001/XMLSchema-instance" xsi:noNamespaceSchemaLocation="http://sumo.dlr.de/xsd/nodes_file.xsd">
    <location netOffset="100.00,100.00" convBoundary="0.00,0.00,200.00,200.00" origBoundary="-10000000000.00,-10000000000.00,10000000000.00,10000000000.00" projParameter="!"/>

    <node id="C" x="100.00" y="100.00" type="traffic_light" tl="C"/>
    <node id="E" x="200.00" y="100.00" type="priority"/>
    <node id="N" x="100.00" y="200.00" type="priority"/>
    <node id="S" x="100.00" y="0.00" type="priority"/>
    <node id="W" x="0.00" y="100.00" type="priority"/>
</nodes>
