<?xml version="1.0" encoding="UTF-8"?>

<!-- generated on 2022-06-03 16:16:00 by Eclipse SUMO netedit Version v1_13_0+0610-e5b7f68bfcb
-->

<additional xmlns:xsi="http://www.w3.org/2001/XMLSchema-instance" xsi:noNamespaceSchemaLocation="http://sumo.dlr.de/xsd/additional_file.xsd">
    <!-- Detectors -->
    <inductionLoop id="E1_01" lane="gneE0_0" pos="3.00" period="100.00" file="fileA.txt" vTypes="bus taxi private"/>
    <inductionLoop id="ID with spaces" lane="gneE0_0" pos="6.00" period="100.00" file="fileA.txt" vTypes="bus taxi private"/>
    <inductionLoop id="validID" lane="gneE0_0" pos="6.00" period="100.00" file="fileA.txt" vTypes="bus taxi private"/>
</additional>
