<?xml version="1.0" encoding="UTF-8"?>

<!-- generated on 2022-01-21 11:49:23 by Eclipse SUMO netedit Version v1_11_0+1361-2e2855ec72d
-->

<additional xmlns:xsi="http://www.w3.org/2001/XMLSchema-instance" xsi:noNamespaceSchemaLocation="http://sumo.dlr.de/xsd/additional_file.xsd">
    <busStop id="bs_0" lane="gneE2_1" startPos="27.00" endPos="37.00">
        <access lane="gneE2_1" pos="25.00"/>
    </busStop>
</additional>
