<?xml version="1.0" encoding="UTF-8"?>

<!-- generated on 2023-03-02 14:38:27 by Eclipse SUMO netedit Version v1_16_0+0941-f077dec25f3
-->

<additional xmlns:xsi="http://www.w3.org/2001/XMLSchema-instance" xsi:noNamespaceSchemaLocation="http://sumo.dlr.de/xsd/additional_file.xsd">
    <!-- StoppingPlaces -->
    <busStop id="bs_0" lane="center1_1" startPos="19.00" endPos="29.00">
        <access lane="E0_0" pos="2.10"/>
    </busStop>
</additional>
