<?xml version="1.0" encoding="UTF-8"?>

<!-- generated on Wed Apr 20 15:40:06 2016 by SUMO netconvert Version dev-SVN-r20491
<?xml version="1.0" encoding="UTF-8"?>

<configuration xmlns:xsi="http://www.w3.org/2001/XMLSchema-instance" xsi:noNamespaceSchemaLocation="http://sumo.dlr.de/xsd/netconvertConfiguration.xsd">

    <input>
        <node-files value="input_nodes.nod.xml"/>
        <edge-files value="input_edges.edg.xml,input_edges2.edg.xml"/>
    </input>

    <output>
        <output-file value="net.net.xml"/>
    </output>

    <report>
        <xml-validation value="never"/>
    </report>

</configuration>
-->

<net version="0.27" xmlns:xsi="http://www.w3.org/2001/XMLSchema-instance" xsi:noNamespaceSchemaLocation="http://sumo.dlr.de/xsd/net_file.xsd">

    <location netOffset="0.00,3.30" convBoundary="0.00,0.00,100.00,3.30" origBoundary="0.00,0.00,100.00,0.00" projParameter="!"/>

    <edge id=":1.40_0" function="internal">
        <lane id=":1.40_0_0" index="0" speed="28.00" length="3.97" shape="38.50,-1.65 41.50,-4.95"/>
        <lane id=":1.40_0_1" index="1" speed="28.00" length="3.97" shape="38.50,-1.65 41.50,-1.65"/>
        <lane id=":1.40_0_2" index="2" speed="28.00" length="3.97" shape="38.50,-1.65 41.50,1.65"/>
    </edge>

    <edge id="1" from="0" to="1.40" priority="-1" shape="0.00,0.00 40.00,0.00">
        <lane id="1_0" index="0" speed="28.00" length="38.50" shape="0.00,-1.65 38.50,-1.65"/>
    </edge>
    <edge id="1.40" from="1.40" to="1" priority="-1">
        <lane id="1.40_0" index="0" speed="28.00" length="58.50" shape="41.50,-4.95 100.00,-4.95"/>
        <lane id="1.40_1" index="1" speed="28.00" length="58.50" shape="41.50,-1.65 100.00,-1.65"/>
        <lane id="1.40_2" index="2" speed="28.00" length="58.50" shape="41.50,1.65 100.00,1.65"/>
    </edge>

    <junction id="0" type="unregulated" x="0.00" y="3.30" incLanes="" intLanes="" shape="0.00,-0.05 0.00,-3.25"/>
    <junction id="1" type="unregulated" x="100.00" y="3.30" incLanes="1.40_0 1.40_1 1.40_2" intLanes="" shape="100.00,-6.55 100.00,3.25"/>
    <junction id="1.40" type="priority" x="40.00" y="3.30" incLanes="1_0" intLanes=":1.40_0_0 :1.40_0_1 :1.40_0_2" shape="41.50,3.25 41.50,-6.55 38.50,-3.25 38.50,-0.05">
        <request index="0" response="000" foes="000" cont="0"/>
        <request index="1" response="000" foes="000" cont="0"/>
        <request index="2" response="000" foes="000" cont="0"/>
    </junction>

    <connection from="1" to="1.40" fromLane="0" toLane="0" via=":1.40_0_0" dir="s" state="M"/>
    <connection from="1" to="1.40" fromLane="0" toLane="1" via=":1.40_0_1" dir="s" state="M"/>
    <connection from="1" to="1.40" fromLane="0" toLane="2" via=":1.40_0_2" dir="s" state="M"/>

    <connection from=":1.40_0" to="1.40" fromLane="0" toLane="0" dir="s" state="M"/>
    <connection from=":1.40_0" to="1.40" fromLane="1" toLane="1" dir="s" state="M"/>
    <connection from=":1.40_0" to="1.40" fromLane="2" toLane="2" dir="s" state="M"/>

</net>
