<routes>
    <person id="forward_turn_left" depart="0">
        <walk from="SC" to="CW" departPos="-10" arrivalPos="10"/>
    </person>
    <person id="backward_turn_left" depart="0">
        <walk from="CW" to="SC" departPos="10" arrivalPos="-10"/>
    </person>
    <person id="forward_change_side" depart="0">
        <walk from="EC" to="WC" departPos="-10" arrivalPos="-10"/>
    </person>
    <person id="backward_change_side" depart="0">
        <walk from="CE" to="CW" departPos="10" arrivalPos="10"/>
    </person>

</routes>
