<?xml version="1.0" encoding="UTF-8"?>

<!-- generated on Sat Oct  6 23:39:03 2018 by Eclipse SUMO netgenerate Version v1_0_1+0193-0616abb
<configuration xmlns:xsi="http://www.w3.org/2001/XMLSchema-instance" xsi:noNamespaceSchemaLocation="http://sumo.dlr.de/xsd/netgenerateConfiguration.xsd">

    <random_network>
        <rand value="true"/>
        <rand.iterations value="100"/>
        <rand.max-distance value="530"/>
        <rand.min-distance value="120"/>
        <rand.random-lanenumber value="true"/>
        <rand.grid value="true"/>
    </random_network>

    <building_defaults>
        <default.lanenumber value="2"/>
    </building_defaults>

    <tls_building>
        <tls.guess value="true"/>
        <tls.guess.threshold value="78"/>
    </tls_building>

    <random_number>
        <seed value="5"/>
    </random_number>

</configuration>
-->

<net version="1.0" junctionCornerDetail="5" limitTurnSpeed="5.50" xmlns:xsi="http://www.w3.org/2001/XMLSchema-instance" xsi:noNamespaceSchemaLocation="http://sumo.dlr.de/xsd/net_file.xsd">

    <location netOffset="1320.00,960.00" convBoundary="0.00,0.00,3240.00,3600.00" origBoundary="-1320.00,-960.00,1920.00,2640.00" projParameter="!"/>

    <edge id=":1_0" function="internal">
        <lane id=":1_0_0" index="0" speed="6.51" length="9.03" shape="1315.20,970.40 1314.85,967.95 1313.80,966.20 1312.05,965.15 1309.60,964.80"/>
    </edge>
    <edge id=":1_1" function="internal">
        <lane id=":1_1_0" index="0" speed="13.89" length="20.80" shape="1315.20,970.40 1315.20,949.60"/>
        <lane id=":1_1_1" index="1" speed="13.89" length="20.80" shape="1318.40,970.40 1318.40,949.60"/>
    </edge>
    <edge id=":1_3" function="internal">
        <lane id=":1_3_0" index="0" speed="9.26" length="6.96" shape="1318.40,970.40 1319.15,965.15 1320.00,963.73"/>
    </edge>
    <edge id=":1_4" function="internal">
        <lane id=":1_4_0" index="0" speed="3.65" length="2.34" shape="1318.40,970.40 1319.20,969.20 1320.00,968.80"/>
    </edge>
    <edge id=":1_18" function="internal">
        <lane id=":1_18_0" index="0" speed="9.26" length="12.40" shape="1320.00,963.73 1321.40,961.40 1325.15,959.15 1330.40,958.40"/>
    </edge>
    <edge id=":1_19" function="internal">
        <lane id=":1_19_0" index="0" speed="3.65" length="2.34" shape="1320.00,968.80 1320.80,969.20 1321.60,970.40"/>
    </edge>
    <edge id=":1_5" function="internal">
        <lane id=":1_5_0" index="0" speed="7.33" length="11.73" shape="1330.40,961.60 1327.95,962.15 1326.20,963.80 1325.15,966.55 1324.80,970.40"/>
    </edge>
    <edge id=":1_6" function="internal">
        <lane id=":1_6_0" index="0" speed="13.89" length="20.80" shape="1330.40,961.60 1309.60,961.60"/>
    </edge>
    <edge id=":1_7" function="internal">
        <lane id=":1_7_0" index="0" speed="9.26" length="10.03" shape="1330.40,961.60 1325.15,960.85 1321.40,958.60 1321.22,958.30"/>
    </edge>
    <edge id=":1_8" function="internal">
        <lane id=":1_8_0" index="0" speed="3.65" length="2.54" shape="1330.40,961.60 1329.20,960.80 1328.80,960.00 1328.89,959.82"/>
    </edge>
    <edge id=":1_20" function="internal">
        <lane id=":1_20_0" index="0" speed="9.26" length="9.33" shape="1321.22,958.30 1319.15,954.85 1318.40,949.60"/>
    </edge>
    <edge id=":1_21" function="internal">
        <lane id=":1_21_0" index="0" speed="3.65" length="2.14" shape="1328.89,959.82 1329.20,959.20 1330.40,958.40"/>
    </edge>
    <edge id=":1_9" function="internal">
        <lane id=":1_9_0" index="0" speed="7.33" length="11.73" shape="1324.80,949.60 1325.15,953.45 1326.20,956.20 1327.95,957.85 1330.40,958.40"/>
    </edge>
    <edge id=":1_10" function="internal">
        <lane id=":1_10_0" index="0" speed="13.89" length="20.80" shape="1324.80,949.60 1324.80,970.40"/>
        <lane id=":1_10_1" index="1" speed="13.89" length="20.80" shape="1321.60,949.60 1321.60,970.40"/>
    </edge>
    <edge id=":1_12" function="internal">
        <lane id=":1_12_0" index="0" speed="9.26" length="6.96" shape="1321.60,949.60 1320.85,954.85 1320.00,956.27"/>
    </edge>
    <edge id=":1_13" function="internal">
        <lane id=":1_13_0" index="0" speed="3.65" length="2.34" shape="1321.60,949.60 1320.80,950.80 1320.00,951.20"/>
    </edge>
    <edge id=":1_22" function="internal">
        <lane id=":1_22_0" index="0" speed="9.26" length="12.40" shape="1320.00,956.27 1318.60,958.60 1314.85,960.85 1309.60,961.60"/>
    </edge>
    <edge id=":1_23" function="internal">
        <lane id=":1_23_0" index="0" speed="3.65" length="2.34" shape="1320.00,951.20 1319.20,950.80 1318.40,949.60"/>
    </edge>
    <edge id=":1_14" function="internal">
        <lane id=":1_14_0" index="0" speed="6.51" length="9.03" shape="1309.60,955.20 1312.05,954.85 1313.80,953.80 1314.85,952.05 1315.20,949.60"/>
    </edge>
    <edge id=":1_15" function="internal">
        <lane id=":1_15_0" index="0" speed="13.89" length="21.09" shape="1309.60,955.20 1316.37,955.70 1321.88,956.80 1326.45,957.90 1330.40,958.40"/>
    </edge>
    <edge id=":1_16" function="internal">
        <lane id=":1_16_0" index="0" speed="9.26" length="6.96" shape="1309.60,958.40 1314.85,959.15 1316.27,960.00"/>
    </edge>
    <edge id=":1_17" function="internal">
        <lane id=":1_17_0" index="0" speed="3.65" length="2.34" shape="1309.60,958.40 1310.80,959.20 1311.20,960.00"/>
    </edge>
    <edge id=":1_24" function="internal">
        <lane id=":1_24_0" index="0" speed="9.26" length="12.40" shape="1316.27,960.00 1318.60,961.40 1320.85,965.15 1321.60,970.40"/>
    </edge>
    <edge id=":1_25" function="internal">
        <lane id=":1_25_0" index="0" speed="3.65" length="2.34" shape="1311.20,960.00 1310.80,960.80 1309.60,961.60"/>
    </edge>
    <edge id=":1089_0" function="internal">
        <lane id=":1089_0_0" index="0" speed="3.65" length="4.67" shape="840.00,1078.40 841.20,1079.20 841.60,1080.00 841.20,1080.80 840.00,1081.60"/>
    </edge>
    <edge id=":1308_0" function="internal">
        <lane id=":1308_0_0" index="0" speed="6.51" length="9.03" shape="1798.40,2167.20 1798.05,2164.75 1797.00,2163.00 1795.25,2161.95 1792.80,2161.60"/>
    </edge>
    <edge id=":1308_1" function="internal">
        <lane id=":1308_1_0" index="0" speed="8.73" length="13.90" shape="1798.40,2167.20 1798.87,2163.39 1800.28,2160.39 1802.63,2158.22 1805.92,2156.87"/>
    </edge>
    <edge id=":1308_2" function="internal">
        <lane id=":1308_2_0" index="0" speed="3.65" length="4.67" shape="1798.40,2167.20 1799.20,2166.00 1800.00,2165.60 1800.80,2166.00 1801.60,2167.20"/>
    </edge>
    <edge id=":1308_3" function="internal">
        <lane id=":1308_3_0" index="0" speed="7.36" length="9.62" shape="1806.69,2159.98 1804.46,2160.91 1802.87,2162.42 1801.92,2164.52 1801.60,2167.20"/>
    </edge>
    <edge id=":1308_4" function="internal">
        <lane id=":1308_4_0" index="0" speed="13.89" length="14.02" shape="1806.69,2159.98 1803.18,2160.74 1799.80,2161.24 1796.40,2161.52 1792.80,2161.60"/>
    </edge>
    <edge id=":1308_5" function="internal">
        <lane id=":1308_5_0" index="0" speed="3.65" length="2.34" shape="1806.69,2159.98 1805.33,2159.49 1804.75,2158.81"/>
    </edge>
    <edge id=":1308_9" function="internal">
        <lane id=":1308_9_0" index="0" speed="3.65" length="2.34" shape="1804.75,2158.81 1804.95,2157.94 1805.92,2156.87"/>
    </edge>
    <edge id=":1308_6" function="internal">
        <lane id=":1308_6_0" index="0" speed="13.89" length="13.24" shape="1792.80,2158.40 1796.28,2158.33 1799.41,2158.09 1802.52,2157.62 1805.92,2156.87"/>
    </edge>
    <edge id=":1308_7" function="internal">
        <lane id=":1308_7_0" index="0" speed="8.00" length="5.50" shape="1792.80,2158.40 1796.65,2158.95 1798.03,2159.78"/>
    </edge>
    <edge id=":1308_8" function="internal">
        <lane id=":1308_8_0" index="0" speed="3.65" length="2.34" shape="1792.80,2158.40 1794.00,2159.20 1794.40,2160.00"/>
    </edge>
    <edge id=":1308_10" function="internal">
        <lane id=":1308_10_0" index="0" speed="8.00" length="8.69" shape="1798.03,2159.78 1799.40,2160.60 1801.05,2163.35 1801.60,2167.20"/>
    </edge>
    <edge id=":1308_11" function="internal">
        <lane id=":1308_11_0" index="0" speed="3.65" length="2.34" shape="1794.40,2160.00 1794.00,2160.80 1792.80,2161.60"/>
    </edge>
    <edge id=":1311_0" function="internal">
        <lane id=":1311_0_0" index="0" speed="7.77" length="13.31" shape="1198.40,1689.85 1197.88,1686.24 1196.34,1683.66 1193.76,1682.12 1190.15,1681.60"/>
    </edge>
    <edge id=":1311_1" function="internal">
        <lane id=":1311_1_0" index="0" speed="11.79" length="12.81" shape="1198.40,1689.85 1198.52,1685.13 1198.89,1681.47 1199.51,1678.89 1200.37,1677.37"/>
    </edge>
    <edge id=":1311_2" function="internal">
        <lane id=":1311_2_0" index="0" speed="3.65" length="4.67" shape="1198.40,1689.85 1199.20,1688.65 1200.00,1688.25 1200.80,1688.65 1201.60,1689.85"/>
    </edge>
    <edge id=":1311_3" function="internal">
        <lane id=":1311_3_0" index="0" speed="9.86" length="8.84" shape="1204.90,1681.89 1203.45,1683.63 1202.42,1685.53 1201.81,1687.60 1201.60,1689.85"/>
    </edge>
    <edge id=":1311_4" function="internal">
        <lane id=":1311_4_0" index="0" speed="11.79" length="12.81" shape="1202.63,1679.63 1201.11,1680.49 1198.53,1681.11 1194.87,1681.48 1190.15,1681.60"/>
    </edge>
    <edge id=":1311_5" function="internal">
        <lane id=":1311_5_0" index="0" speed="3.65" length="4.67" shape="1202.63,1679.63 1201.22,1679.91 1200.37,1679.63 1200.09,1678.78 1200.37,1677.37"/>
    </edge>
    <edge id=":1311_6" function="internal">
        <lane id=":1311_6_0" index="0" speed="9.86" length="8.84" shape="1190.15,1678.40 1192.40,1678.19 1194.47,1677.58 1196.37,1676.55 1198.11,1675.10"/>
    </edge>
    <edge id=":1311_7" function="internal">
        <lane id=":1311_7_0" index="0" speed="9.06" length="18.47" shape="1190.15,1678.40 1195.16,1679.12 1198.74,1681.26 1200.88,1684.84 1201.60,1689.85"/>
    </edge>
    <edge id=":1311_8" function="internal">
        <lane id=":1311_8_0" index="0" speed="3.65" length="4.67" shape="1190.15,1678.40 1191.35,1679.20 1191.75,1680.00 1191.35,1680.80 1190.15,1681.60"/>
    </edge>
    <edge id=":1313_0" function="internal">
        <lane id=":1313_0_0" index="0" speed="13.89" length="20.55" shape="1198.40,2285.33 1197.90,2281.46 1196.80,2277.07 1195.70,2271.75 1195.20,2265.07"/>
    </edge>
    <edge id=":1313_1" function="internal">
        <lane id=":1313_1_0" index="0" speed="13.89" length="7.10" shape="1198.40,2285.33 1199.77,2280.91 1201.11,2278.82"/>
    </edge>
    <edge id=":1313_2" function="internal">
        <lane id=":1313_2_0" index="0" speed="3.65" length="2.54" shape="1198.40,2285.33 1199.20,2284.13 1200.00,2283.73 1200.18,2283.82"/>
    </edge>
    <edge id=":1313_9" function="internal">
        <lane id=":1313_9_0" index="0" speed="13.89" length="14.75" shape="1201.11,2278.82 1203.05,2275.80 1207.00,2270.97 1210.36,2267.38"/>
    </edge>
    <edge id=":1313_10" function="internal">
        <lane id=":1313_10_0" index="0" speed="3.65" length="2.13" shape="1200.18,2283.82 1200.80,2284.13 1201.60,2285.33"/>
    </edge>
    <edge id=":1313_3" function="internal">
        <lane id=":1313_3_0" index="0" speed="13.89" length="19.45" shape="1212.62,2269.64 1207.80,2274.75 1204.36,2279.07 1202.29,2282.60 1201.60,2285.33"/>
    </edge>
    <edge id=":1313_4" function="internal">
        <lane id=":1313_4_0" index="0" speed="7.76" length="21.25" shape="1212.62,2269.64 1207.42,2273.32 1202.86,2273.76 1199.63,2271.00 1198.40,2265.07"/>
    </edge>
    <edge id=":1313_5" function="internal">
        <lane id=":1313_5_0" index="0" speed="3.65" length="4.67" shape="1212.62,2269.64 1211.21,2269.92 1210.36,2269.64 1210.08,2268.79 1210.36,2267.38"/>
    </edge>
    <edge id=":1313_6" function="internal">
        <lane id=":1313_6_0" index="0" speed="5.47" length="9.74" shape="1204.80,2265.07 1205.15,2268.17 1206.19,2269.58 1207.93,2269.32 1210.36,2267.38"/>
    </edge>
    <edge id=":1313_7" function="internal">
        <lane id=":1313_7_0" index="0" speed="13.89" length="20.55" shape="1204.80,2265.07 1204.30,2271.75 1203.20,2277.07 1202.10,2281.46 1201.60,2285.33"/>
    </edge>
    <edge id=":1313_8" function="internal">
        <lane id=":1313_8_0" index="0" speed="3.65" length="2.34" shape="1201.60,2265.07 1200.80,2266.27 1200.00,2266.67"/>
    </edge>
    <edge id=":1313_11" function="internal">
        <lane id=":1313_11_0" index="0" speed="3.65" length="2.34" shape="1200.00,2266.67 1199.20,2266.27 1198.40,2265.07"/>
    </edge>
    <edge id=":1328_0" function="internal">
        <lane id=":1328_0_0" index="0" speed="7.33" length="11.73" shape="1435.20,370.40 1434.85,366.55 1433.80,363.80 1432.05,362.15 1429.60,361.60"/>
    </edge>
    <edge id=":1328_1" function="internal">
        <lane id=":1328_1_0" index="0" speed="13.89" length="21.09" shape="1435.20,370.40 1435.70,363.63 1436.80,358.12 1437.90,353.55 1438.40,349.60"/>
    </edge>
    <edge id=":1328_2" function="internal">
        <lane id=":1328_2_0" index="0" speed="9.26" length="19.35" shape="1438.40,370.40 1439.15,365.15 1441.40,361.40 1445.15,359.15 1450.40,358.40"/>
    </edge>
    <edge id=":1328_3" function="internal">
        <lane id=":1328_3_0" index="0" speed="3.65" length="2.34" shape="1438.40,370.40 1439.20,369.20 1440.00,368.80"/>
    </edge>
    <edge id=":1328_16" function="internal">
        <lane id=":1328_16_0" index="0" speed="3.65" length="2.34" shape="1440.00,368.80 1440.80,369.20 1441.60,370.40"/>
    </edge>
    <edge id=":1328_4" function="internal">
        <lane id=":1328_4_0" index="0" speed="6.51" length="9.03" shape="1450.40,364.80 1447.95,365.15 1446.20,366.20 1445.15,367.95 1444.80,370.40"/>
    </edge>
    <edge id=":1328_5" function="internal">
        <lane id=":1328_5_0" index="0" speed="13.89" length="21.09" shape="1450.40,364.80 1443.63,364.30 1438.12,363.20 1433.55,362.10 1429.60,361.60"/>
    </edge>
    <edge id=":1328_6" function="internal">
        <lane id=":1328_6_0" index="0" speed="9.26" length="5.08" shape="1450.40,361.60 1445.37,360.88"/>
    </edge>
    <edge id=":1328_7" function="internal">
        <lane id=":1328_7_0" index="0" speed="3.65" length="2.08" shape="1450.40,361.60 1449.20,360.80 1448.91,360.23"/>
    </edge>
    <edge id=":1328_17" function="internal">
        <lane id=":1328_17_0" index="0" speed="9.26" length="14.28" shape="1445.37,360.88 1445.15,360.85 1441.40,358.60 1439.15,354.85 1438.40,349.60"/>
    </edge>
    <edge id=":1328_18" function="internal">
        <lane id=":1328_18_0" index="0" speed="3.65" length="2.59" shape="1448.91,360.23 1448.80,360.00 1449.20,359.20 1450.40,358.40"/>
    </edge>
    <edge id=":1328_8" function="internal">
        <lane id=":1328_8_0" index="0" speed="7.33" length="11.73" shape="1441.60,349.60 1442.15,352.05 1443.80,353.80 1446.55,354.85 1450.40,355.20"/>
    </edge>
    <edge id=":1328_9" function="internal">
        <lane id=":1328_9_0" index="0" speed="13.89" length="20.80" shape="1441.60,349.60 1441.60,370.40"/>
    </edge>
    <edge id=":1328_10" function="internal">
        <lane id=":1328_10_0" index="0" speed="9.26" length="19.35" shape="1441.60,349.60 1440.85,354.85 1438.60,358.60 1434.85,360.85 1429.60,361.60"/>
    </edge>
    <edge id=":1328_11" function="internal">
        <lane id=":1328_11_0" index="0" speed="3.65" length="2.56" shape="1441.60,349.60 1440.80,350.80 1440.00,351.20 1439.80,351.10"/>
    </edge>
    <edge id=":1328_19" function="internal">
        <lane id=":1328_19_0" index="0" speed="3.65" length="2.12" shape="1439.80,351.10 1439.20,350.80 1438.40,349.60"/>
    </edge>
    <edge id=":1328_12" function="internal">
        <lane id=":1328_12_0" index="0" speed="8.00" length="14.19" shape="1429.60,358.40 1433.45,357.85 1436.20,356.20 1437.85,353.45 1438.40,349.60"/>
    </edge>
    <edge id=":1328_13" function="internal">
        <lane id=":1328_13_0" index="0" speed="13.89" length="20.80" shape="1429.60,358.40 1450.40,358.40"/>
    </edge>
    <edge id=":1328_14" function="internal">
        <lane id=":1328_14_0" index="0" speed="9.26" length="12.40" shape="1429.60,358.40 1434.85,359.15 1438.60,361.40 1440.00,363.73"/>
    </edge>
    <edge id=":1328_15" function="internal">
        <lane id=":1328_15_0" index="0" speed="3.65" length="4.67" shape="1429.60,358.40 1430.80,359.20 1431.20,360.00 1430.80,360.80 1429.60,361.60"/>
    </edge>
    <edge id=":1328_20" function="internal">
        <lane id=":1328_20_0" index="0" speed="9.26" length="6.96" shape="1440.00,363.73 1440.85,365.15 1441.60,370.40"/>
    </edge>
    <edge id=":1336_0" function="internal">
        <lane id=":1336_0_0" index="0" speed="6.51" length="9.03" shape="1795.20,2650.40 1794.85,2647.95 1793.80,2646.20 1792.05,2645.15 1789.60,2644.80"/>
    </edge>
    <edge id=":1336_1" function="internal">
        <lane id=":1336_1_0" index="0" speed="13.89" length="21.09" shape="1795.20,2650.40 1795.70,2643.63 1796.80,2638.12 1797.90,2633.55 1798.40,2629.60"/>
    </edge>
    <edge id=":1336_2" function="internal">
        <lane id=":1336_2_0" index="0" speed="9.26" length="6.96" shape="1798.40,2650.40 1799.15,2645.15 1800.00,2643.73"/>
    </edge>
    <edge id=":1336_3" function="internal">
        <lane id=":1336_3_0" index="0" speed="3.65" length="2.34" shape="1798.40,2650.40 1799.20,2649.20 1800.00,2648.80"/>
    </edge>
    <edge id=":1336_18" function="internal">
        <lane id=":1336_18_0" index="0" speed="9.26" length="12.40" shape="1800.00,2643.73 1801.40,2641.40 1805.15,2639.15 1810.40,2638.40"/>
    </edge>
    <edge id=":1336_19" function="internal">
        <lane id=":1336_19_0" index="0" speed="3.65" length="2.34" shape="1800.00,2648.80 1800.80,2649.20 1801.60,2650.40"/>
    </edge>
    <edge id=":1336_4" function="internal">
        <lane id=":1336_4_0" index="0" speed="6.51" length="9.03" shape="1810.40,2644.80 1807.95,2645.15 1806.20,2646.20 1805.15,2647.95 1804.80,2650.40"/>
    </edge>
    <edge id=":1336_5" function="internal">
        <lane id=":1336_5_0" index="0" speed="13.89" length="20.80" shape="1810.40,2644.80 1789.60,2644.80"/>
        <lane id=":1336_5_1" index="1" speed="13.89" length="20.80" shape="1810.40,2641.60 1789.60,2641.60"/>
    </edge>
    <edge id=":1336_7" function="internal">
        <lane id=":1336_7_0" index="0" speed="9.26" length="6.96" shape="1810.40,2641.60 1805.15,2640.85 1803.73,2640.00"/>
    </edge>
    <edge id=":1336_8" function="internal">
        <lane id=":1336_8_0" index="0" speed="3.65" length="2.34" shape="1810.40,2641.60 1809.20,2640.80 1808.80,2640.00"/>
    </edge>
    <edge id=":1336_20" function="internal">
        <lane id=":1336_20_0" index="0" speed="9.26" length="12.40" shape="1803.73,2640.00 1801.40,2638.60 1799.15,2634.85 1798.40,2629.60"/>
    </edge>
    <edge id=":1336_21" function="internal">
        <lane id=":1336_21_0" index="0" speed="3.65" length="2.34" shape="1808.80,2640.00 1809.20,2639.20 1810.40,2638.40"/>
    </edge>
    <edge id=":1336_9" function="internal">
        <lane id=":1336_9_0" index="0" speed="7.33" length="11.73" shape="1801.60,2629.60 1802.15,2632.05 1803.80,2633.80 1806.55,2634.85 1810.40,2635.20"/>
    </edge>
    <edge id=":1336_10" function="internal">
        <lane id=":1336_10_0" index="0" speed="13.89" length="20.80" shape="1801.60,2629.60 1801.60,2650.40"/>
    </edge>
    <edge id=":1336_11" function="internal">
        <lane id=":1336_11_0" index="0" speed="9.26" length="10.03" shape="1801.60,2629.60 1800.85,2634.85 1798.60,2638.60 1798.30,2638.78"/>
    </edge>
    <edge id=":1336_12" function="internal">
        <lane id=":1336_12_0" index="0" speed="3.65" length="2.54" shape="1801.60,2629.60 1800.80,2630.80 1800.00,2631.20 1799.82,2631.11"/>
    </edge>
    <edge id=":1336_22" function="internal">
        <lane id=":1336_22_0" index="0" speed="9.26" length="9.33" shape="1798.30,2638.78 1794.85,2640.85 1789.60,2641.60"/>
    </edge>
    <edge id=":1336_23" function="internal">
        <lane id=":1336_23_0" index="0" speed="3.65" length="2.14" shape="1799.82,2631.11 1799.20,2630.80 1798.40,2629.60"/>
    </edge>
    <edge id=":1336_13" function="internal">
        <lane id=":1336_13_0" index="0" speed="7.33" length="11.73" shape="1789.60,2635.20 1793.45,2634.85 1796.20,2633.80 1797.85,2632.05 1798.40,2629.60"/>
    </edge>
    <edge id=":1336_14" function="internal">
        <lane id=":1336_14_0" index="0" speed="13.89" length="20.80" shape="1789.60,2635.20 1810.40,2635.20"/>
        <lane id=":1336_14_1" index="1" speed="13.89" length="20.80" shape="1789.60,2638.40 1810.40,2638.40"/>
    </edge>
    <edge id=":1336_16" function="internal">
        <lane id=":1336_16_0" index="0" speed="9.26" length="6.96" shape="1789.60,2638.40 1794.85,2639.15 1796.27,2640.00"/>
    </edge>
    <edge id=":1336_17" function="internal">
        <lane id=":1336_17_0" index="0" speed="3.65" length="2.34" shape="1789.60,2638.40 1790.80,2639.20 1791.20,2640.00"/>
    </edge>
    <edge id=":1336_24" function="internal">
        <lane id=":1336_24_0" index="0" speed="9.26" length="12.40" shape="1796.27,2640.00 1798.60,2641.40 1800.85,2645.15 1801.60,2650.40"/>
    </edge>
    <edge id=":1336_25" function="internal">
        <lane id=":1336_25_0" index="0" speed="3.65" length="2.34" shape="1791.20,2640.00 1790.80,2640.80 1789.60,2641.60"/>
    </edge>
    <edge id=":1341_0" function="internal">
        <lane id=":1341_0_0" index="0" speed="6.51" length="9.03" shape="955.20,1687.20 954.85,1684.75 953.80,1683.00 952.05,1681.95 949.60,1681.60"/>
    </edge>
    <edge id=":1341_1" function="internal">
        <lane id=":1341_1_0" index="0" speed="8.67" length="16.85" shape="958.40,1687.20 959.15,1683.35 961.40,1680.60 965.15,1678.95 970.40,1678.40"/>
    </edge>
    <edge id=":1341_2" function="internal">
        <lane id=":1341_2_0" index="0" speed="3.65" length="4.67" shape="958.40,1687.20 959.20,1686.00 960.00,1685.60 960.80,1686.00 961.60,1687.20"/>
    </edge>
    <edge id=":1341_3" function="internal">
        <lane id=":1341_3_0" index="0" speed="6.51" length="9.03" shape="970.40,1681.60 967.95,1681.95 966.20,1683.00 965.15,1684.75 964.80,1687.20"/>
    </edge>
    <edge id=":1341_4" function="internal">
        <lane id=":1341_4_0" index="0" speed="13.89" length="20.80" shape="970.40,1681.60 949.60,1681.60"/>
    </edge>
    <edge id=":1341_5" function="internal">
        <lane id=":1341_5_0" index="0" speed="3.65" length="4.67" shape="970.40,1681.60 969.20,1680.80 968.80,1680.00 969.20,1679.20 970.40,1678.40"/>
    </edge>
    <edge id=":1341_6" function="internal">
        <lane id=":1341_6_0" index="0" speed="13.89" length="20.80" shape="949.60,1678.40 970.40,1678.40"/>
    </edge>
    <edge id=":1341_7" function="internal">
        <lane id=":1341_7_0" index="0" speed="8.67" length="16.85" shape="949.60,1678.40 954.85,1678.95 958.60,1680.60 960.85,1683.35 961.60,1687.20"/>
    </edge>
    <edge id=":1341_8" function="internal">
        <lane id=":1341_8_0" index="0" speed="3.65" length="4.67" shape="949.60,1678.40 950.80,1679.20 951.20,1680.00 950.80,1680.80 949.60,1681.60"/>
    </edge>
    <edge id=":1453_0" function="internal">
        <lane id=":1453_0_0" index="0" speed="13.89" length="14.40" shape="2647.20,2044.80 2632.80,2044.80"/>
        <lane id=":1453_0_1" index="1" speed="13.89" length="14.40" shape="2647.20,2041.60 2632.80,2041.60"/>
    </edge>
    <edge id=":1453_2" function="internal">
        <lane id=":1453_2_0" index="0" speed="8.67" length="5.26" shape="2647.20,2041.60 2643.35,2040.85 2642.31,2040.00"/>
    </edge>
    <edge id=":1453_3" function="internal">
        <lane id=":1453_3_0" index="0" speed="3.65" length="2.34" shape="2647.20,2041.60 2646.00,2040.80 2645.60,2040.00"/>
    </edge>
    <edge id=":1453_11" function="internal">
        <lane id=":1453_11_0" index="0" speed="8.67" length="11.59" shape="2642.31,2040.00 2640.60,2038.60 2638.95,2034.85 2638.40,2029.60"/>
    </edge>
    <edge id=":1453_12" function="internal">
        <lane id=":1453_12_0" index="0" speed="3.65" length="2.34" shape="2645.60,2040.00 2646.00,2039.20 2647.20,2038.40"/>
    </edge>
    <edge id=":1453_4" function="internal">
        <lane id=":1453_4_0" index="0" speed="6.51" length="9.03" shape="2641.60,2029.60 2641.95,2032.05 2643.00,2033.80 2644.75,2034.85 2647.20,2035.20"/>
    </edge>
    <edge id=":1453_5" function="internal">
        <lane id=":1453_5_0" index="0" speed="8.67" length="16.85" shape="2641.60,2029.60 2641.05,2034.85 2639.40,2038.60 2636.65,2040.85 2632.80,2041.60"/>
    </edge>
    <edge id=":1453_6" function="internal">
        <lane id=":1453_6_0" index="0" speed="3.65" length="4.67" shape="2641.60,2029.60 2640.80,2030.80 2640.00,2031.20 2639.20,2030.80 2638.40,2029.60"/>
    </edge>
    <edge id=":1453_7" function="internal">
        <lane id=":1453_7_0" index="0" speed="6.51" length="9.03" shape="2632.80,2035.20 2635.25,2034.85 2637.00,2033.80 2638.05,2032.05 2638.40,2029.60"/>
    </edge>
    <edge id=":1453_8" function="internal">
        <lane id=":1453_8_0" index="0" speed="13.89" length="14.40" shape="2632.80,2035.20 2647.20,2035.20"/>
        <lane id=":1453_8_1" index="1" speed="13.89" length="14.40" shape="2632.80,2038.40 2647.20,2038.40"/>
    </edge>
    <edge id=":1453_10" function="internal">
        <lane id=":1453_10_0" index="0" speed="3.65" length="2.34" shape="2632.80,2038.40 2634.00,2039.20 2634.40,2040.00"/>
    </edge>
    <edge id=":1453_13" function="internal">
        <lane id=":1453_13_0" index="0" speed="3.65" length="2.34" shape="2634.40,2040.00 2634.00,2040.80 2632.80,2041.60"/>
    </edge>
    <edge id=":1465_0" function="internal">
        <lane id=":1465_0_0" index="0" speed="13.89" length="20.80" shape="1690.40,364.80 1669.60,364.80"/>
        <lane id=":1465_0_1" index="1" speed="13.89" length="20.80" shape="1690.40,361.60 1669.60,361.60"/>
    </edge>
    <edge id=":1465_2" function="internal">
        <lane id=":1465_2_0" index="0" speed="9.26" length="6.96" shape="1690.40,361.60 1685.15,360.85 1683.73,360.00"/>
    </edge>
    <edge id=":1465_3" function="internal">
        <lane id=":1465_3_0" index="0" speed="3.65" length="2.34" shape="1690.40,361.60 1689.20,360.80 1688.80,360.00"/>
    </edge>
    <edge id=":1465_12" function="internal">
        <lane id=":1465_12_0" index="0" speed="9.26" length="12.40" shape="1683.73,360.00 1681.40,358.60 1679.15,354.85 1678.40,349.60"/>
    </edge>
    <edge id=":1465_13" function="internal">
        <lane id=":1465_13_0" index="0" speed="3.65" length="2.34" shape="1688.80,360.00 1689.20,359.20 1690.40,358.40"/>
    </edge>
    <edge id=":1465_4" function="internal">
        <lane id=":1465_4_0" index="0" speed="6.51" length="9.03" shape="1684.80,349.60 1685.15,352.05 1686.20,353.80 1687.95,354.85 1690.40,355.20"/>
    </edge>
    <edge id=":1465_5" function="internal">
        <lane id=":1465_5_0" index="0" speed="8.00" length="14.19" shape="1681.60,349.60 1682.15,353.45 1683.80,356.20 1686.55,357.85 1690.40,358.40"/>
    </edge>
    <edge id=":1465_6" function="internal">
        <lane id=":1465_6_0" index="0" speed="9.26" length="19.35" shape="1681.60,349.60 1680.85,354.85 1678.60,358.60 1674.85,360.85 1669.60,361.60"/>
    </edge>
    <edge id=":1465_7" function="internal">
        <lane id=":1465_7_0" index="0" speed="3.65" length="2.34" shape="1681.60,349.60 1680.80,350.80 1680.00,351.20"/>
    </edge>
    <edge id=":1465_14" function="internal">
        <lane id=":1465_14_0" index="0" speed="3.65" length="2.34" shape="1680.00,351.20 1679.20,350.80 1678.40,349.60"/>
    </edge>
    <edge id=":1465_8" function="internal">
        <lane id=":1465_8_0" index="0" speed="6.51" length="9.03" shape="1669.60,355.20 1672.05,354.85 1673.80,353.80 1674.85,352.05 1675.20,349.60"/>
    </edge>
    <edge id=":1465_9" function="internal">
        <lane id=":1465_9_0" index="0" speed="13.89" length="20.80" shape="1669.60,355.20 1690.40,355.20"/>
        <lane id=":1465_9_1" index="1" speed="13.89" length="20.80" shape="1669.60,358.40 1690.40,358.40"/>
    </edge>
    <edge id=":1465_11" function="internal">
        <lane id=":1465_11_0" index="0" speed="3.65" length="2.34" shape="1669.60,358.40 1670.80,359.20 1671.20,360.00"/>
    </edge>
    <edge id=":1465_15" function="internal">
        <lane id=":1465_15_0" index="0" speed="3.65" length="2.34" shape="1671.20,360.00 1670.80,360.80 1669.60,361.60"/>
    </edge>
    <edge id=":1467_0" function="internal">
        <lane id=":1467_0_0" index="0" speed="3.65" length="4.67" shape="1438.40,0.00 1439.20,-1.20 1440.00,-1.60 1440.80,-1.20 1441.60,-0.00"/>
    </edge>
    <edge id=":1574_0" function="internal">
        <lane id=":1574_0_0" index="0" speed="7.11" length="11.00" shape="1198.40,2532.76 1198.05,2529.27 1197.00,2526.79 1195.25,2525.30 1192.80,2524.80"/>
    </edge>
    <edge id=":1574_1" function="internal">
        <lane id=":1574_1_0" index="0" speed="13.89" length="23.16" shape="1198.40,2532.76 1198.40,2509.60"/>
    </edge>
    <edge id=":1574_2" function="internal">
        <lane id=":1574_2_0" index="0" speed="8.16" length="8.02" shape="1198.40,2532.76 1199.15,2526.42 1200.00,2525.02"/>
    </edge>
    <edge id=":1574_3" function="internal">
        <lane id=":1574_3_0" index="0" speed="3.65" length="2.34" shape="1198.40,2532.76 1199.20,2531.56 1200.00,2531.16"/>
    </edge>
    <edge id=":1574_18" function="internal">
        <lane id=":1574_18_0" index="0" speed="8.16" length="12.02" shape="1200.00,2525.02 1201.39,2522.74 1205.12,2521.73 1210.36,2523.39"/>
    </edge>
    <edge id=":1574_19" function="internal">
        <lane id=":1574_19_0" index="0" speed="3.65" length="2.34" shape="1200.00,2531.16 1200.80,2531.56 1201.60,2532.76"/>
    </edge>
    <edge id=":1574_4" function="internal">