<?xml version="1.0" encoding="UTF-8"?>

<!-- generated on 2022-06-03 16:01:20 by Eclipse SUMO netedit Version v1_13_0+0610-e5b7f68bfcb
-->

<additional xmlns:xsi="http://www.w3.org/2001/XMLSchema-instance" xsi:noNamespaceSchemaLocation="http://sumo.dlr.de/xsd/additional_file.xsd">
    <!-- Calibrators -->
    <calibrator id="ca_0" lane="gneE2_0" pos="16.00" period="12.50"/>
</additional>
