<?xml version="1.0" encoding="UTF-8"?>

<!-- generated on Fri Nov 25 12:34:24 2011 by SUMO netconvert Version dev-SVN-r11539
<?xml version="1.0" encoding="UTF-8"?>

<configuration xmlns:xsi="http://www.w3.org/2001/XMLSchema-instance" xsi:noNamespaceSchemaLocation="http://sumo-sim.org/xsd/netconvertConfiguration.xsd">

    <input>
        <sumo-net-file value="koelnHighways.edit.net.xml"/>
    </input>

    <output>
        <plain-output-prefix value="koelnHighways.edit"/>
    </output>

    <processing>
        <no-turnarounds value="true"/>
        <offset.disable-normalization value="true"/>
    </processing>

</configuration>
-->

<tlLogics version="0.13" xmlns:xsi="http://www.w3.org/2001/XMLSchema-instance" xsi:noNamespaceSchemaLocation="http://sumo-sim.org/xsd/tllogic_file.xsd">
</tlLogics>
