<tlLogics version="0.13" xmlns:xsi="http://www.w3.org/2001/XMLSchema-instance" xsi:noNamespaceSchemaLocation="http://sumo.sf.net/xsd/tllogic_file.xsd">
    <!-- Deleted Elements -->
    <tlLogic id="joinedS_3" type="static" programID="0" offset="0">
        <phase duration="31" state="GGGrrrrGGGrrrr"/>
        <phase duration="4" state="yyyrrrryyyrrrr"/>
        <phase duration="31" state="rrrGGrrrrrGgGr"/>
        <phase duration="4" state="rrryyrrrrryyyr"/>
        <phase duration="31" state="rrrGrGgrrrrrGG"/>
        <phase duration="4" state="rrryryyrrrrryy"/>
    </tlLogic>
    <!-- Created Elements -->
    <!-- Changed Elements -->
</tlLogics>
