<?xml version="1.0" encoding="UTF-8"?>

<!-- generated on 2022-02-07 11:22:44 by Eclipse SUMO netedit Version v1_12_0+0293-22171d7ea39
-->

<additional xmlns:xsi="http://www.w3.org/2001/XMLSchema-instance" xsi:noNamespaceSchemaLocation="http://sumo.dlr.de/xsd/additional_file.xsd">
    <e2Detector id="e2_0" lane="gneE0_0" pos="17.00" length="0.00" freq="300.00" file="e2_0.xml"/>
    <e2Detector id="e2_1" lane="gneE0_0" pos="17.00" length="5.00" freq="300.00" file="e2_1.xml"/>
</additional>
