<?xml version="1.0" encoding="UTF-8"?>

<!-- generated on 21.08.2020 15:29:16 by Eclipse SUMO netedit Version v1_6_0+1715-1ccaaec835
<configuration xmlns:xsi="http://www.w3.org/2001/XMLSchema-instance" xsi:noNamespaceSchemaLocation="http://sumo.dlr.de/xsd/netconvertConfiguration.xsd">

    <input>
        <new value="true"/>
    </input>

    <output>
        <output-file value="C:\Users\alva_pa\.texttest\tmp\netedit.gui.21Aug152633.12644\netedit.gui\netElements\junctions\create\square\net.net.xml"/>
    </output>

    <processing>
        <offset.disable-normalization value="true"/>
    </processing>

    <netedit>
        <additional-files value="C:\Users\alva_pa\.texttest\tmp\netedit.gui.21Aug152633.12644\netedit.gui\netElements\junctions\create\square\additionals.xml"/>
        <additionals-output value="C:\Users\alva_pa\.texttest\tmp\netedit.gui.21Aug152633.12644\netedit.gui\netElements\junctions\create\square\additionals.xml"/>
        <route-files value="C:\Users\alva_pa\.texttest\tmp\netedit.gui.21Aug152633.12644\netedit.gui\netElements\junctions\create\square\routes.xml"/>
        <demandelements-output value="C:\Users\alva_pa\.texttest\tmp\netedit.gui.21Aug152633.12644\netedit.gui\netElements\junctions\create\square\routes.xml"/>
        <data-files value="C:\Users\alva_pa\.texttest\tmp\netedit.gui.21Aug152633.12644\netedit.gui\netElements\junctions\create\square\datas.xml"/>
        <dataelements-output value="C:\Users\alva_pa\.texttest\tmp\netedit.gui.21Aug152633.12644\netedit.gui\netElements\junctions\create\square\datas.xml"/>
    </netedit>

    <visualisation>
        <gui-settings-file value="C:\Users\alva_pa\.texttest\tmp\netedit.gui.21Aug152633.12644\netedit.gui\netElements\junctions\create\square\gui-settings.xml"/>
        <window-size value="700,500"/>
        <window-pos value="50,50"/>
        <gui-testing value="true"/>
        <gui-testing-debug value="true"/>
        <gui-testing-debug-gl value="true"/>
        <gui-testing.setting-output value="C:\Users\alva_pa\.texttest\tmp\netedit.gui.21Aug152633.12644\netedit.gui\netElements\junctions\create\square\guisettingsoutput.xml"/>
    </visualisation>

    <report>
        <no-warnings value="true"/>
        <aggregate-warnings value="5"/>
        <error-log value="C:\Users\alva_pa\.texttest\tmp\netedit.gui.21Aug152633.12644\netedit.gui\netElements\junctions\create\square\log.txt"/>
    </report>

</configuration>
-->

<net version="1.6" junctionCornerDetail="5" limitTurnSpeed="5.50" xmlns:xsi="http://www.w3.org/2001/XMLSchema-instance" xsi:noNamespaceSchemaLocation="http://sumo.dlr.de/xsd/net_file.xsd">

    <location netOffset="0.00,0.00" convBoundary="0.00,50.00,15.00,65.00" origBoundary="10000000000.00,10000000000.00,-10000000000.00,-10000000000.00" projParameter="!"/>

    <edge id=":gneJ0_0" function="internal">
        <lane id=":gneJ0_0_0" index="0" speed="3.90" length="2.58" shape="1.60,61.80 1.70,62.50 2.00,63.00 2.50,63.30 3.20,63.40"/>
    </edge>
    <edge id=":gneJ1_0" function="internal">
        <lane id=":gneJ1_0_0" index="0" speed="3.90" length="2.58" shape="11.80,63.40 12.50,63.30 13.00,63.00 13.30,62.50 13.40,61.80"/>
    </edge>
    <edge id=":gneJ2_0" function="internal">
        <lane id=":gneJ2_0_0" index="0" speed="3.90" length="2.58" shape="13.40,53.20 13.30,52.50 13.00,52.00 12.50,51.70 11.80,51.60"/>
    </edge>
    <edge id=":gneJ3_0" function="internal">
        <lane id=":gneJ3_0_0" index="0" speed="3.90" length="2.58" shape="3.20,51.60 2.50,51.70 2.00,52.00 1.70,52.50 1.60,53.20"/>
    </edge>

    <edge id="gneE0" from="gneJ0" to="gneJ1" priority="-1">
        <lane id="gneE0_0" index="0" speed="13.89" length="8.60" shape="3.20,63.40 11.80,63.40"/>
    </edge>
    <edge id="gneE1" from="gneJ1" to="gneJ2" priority="-1">
        <lane id="gneE1_0" index="0" speed="13.89" length="8.60" shape="13.40,61.80 13.40,53.20"/>
    </edge>
    <edge id="gneE2" from="gneJ2" to="gneJ3" priority="-1">
        <lane id="gneE2_0" index="0" speed="13.89" length="8.60" shape="11.80,51.60 3.20,51.60"/>
    </edge>
    <edge id="gneE3" from="gneJ3" to="gneJ0" priority="-1">
        <lane id="gneE3_0" index="0" speed="13.89" length="8.60" shape="1.60,53.20 1.60,61.80"/>
    </edge>

    <junction id="gneJ0" type="priority" x="0.00" y="65.00" incLanes="gneE3_0" intLanes=":gneJ0_0_0" shape="3.20,65.00 3.20,61.80 0.00,61.80 0.36,63.58 0.80,64.20 1.42,64.64 2.22,64.91">
        <request index="0" response="0" foes="0" cont="0"/>
    </junction>
    <junction id="gneJ1" type="priority" x="15.00" y="65.00" incLanes="gneE0_0" intLanes=":gneJ1_0_0" shape="15.00,61.80 11.80,61.80 11.80,65.00 13.58,64.64 14.20,64.20 14.64,63.58 14.91,62.78">
        <request index="0" response="0" foes="0" cont="0"/>
    </junction>
    <junction id="gneJ2" type="priority" x="15.00" y="50.00" incLanes="gneE1_0" intLanes=":gneJ2_0_0" shape="11.80,53.20 15.00,53.20 14.64,51.42 14.20,50.80 13.58,50.36 12.78,50.09 11.80,50.00">
        <request index="0" response="0" foes="0" cont="0"/>
    </junction>
    <junction id="gneJ3" type="priority" x="0.00" y="50.00" incLanes="gneE2_0" intLanes=":gneJ3_0_0" shape="0.00,53.20 3.20,53.20 3.20,50.00 1.42,50.36 0.80,50.80 0.36,51.42 0.09,52.22">
        <request index="0" response="0" foes="0" cont="0"/>
    </junction>

    <connection from="gneE0" to="gneE1" fromLane="0" toLane="0" via=":gneJ1_0_0" dir="r" state="M"/>
    <connection from="gneE1" to="gneE2" fromLane="0" toLane="0" via=":gneJ2_0_0" dir="r" state="M"/>
    <connection from="gneE2" to="gneE3" fromLane="0" toLane="0" via=":gneJ3_0_0" dir="r" state="M"/>
    <connection from="gneE3" to="gneE0" fromLane="0" toLane="0" via=":gneJ0_0_0" dir="r" state="M"/>

    <connection from=":gneJ0_0" to="gneE0" fromLane="0" toLane="0" dir="r" state="M"/>
    <connection from=":gneJ1_0" to="gneE1" fromLane="0" toLane="0" dir="r" state="M"/>
    <connection from=":gneJ2_0" to="gneE2" fromLane="0" toLane="0" dir="r" state="M"/>
    <connection from=":gneJ3_0" to="gneE3" fromLane="0" toLane="0" dir="r" state="M"/>

</net>
