<?xml version="1.0" encoding="UTF-8"?>

<!-- generated on 24.02.2021 09:50:46 by Eclipse SUMO netedit Version v1_8_0+1360-4b150fce9e
-->

<additional xmlns:xsi="http://www.w3.org/2001/XMLSchema-instance" xsi:noNamespaceSchemaLocation="http://sumo.dlr.de/xsd/additional_file.xsd">
    <parkingArea id="pa_0" lane="gneE0_0" startPos="17.00" endPos="27.00"/>
</additional>
