<?xml version="1.0" encoding="UTF-8"?>
<!-- generated on 2017-10-18 14:07:12.245000 by $Id: randomTrips.py 26301 2017-10-02 20:48:38Z behrisch $
  options: -n net.net.xml -s 42 <doubleminus>min-distance 2000 <doubleminus>maxtries 10
-->
<routes xmlns:xsi="http://www.w3.org/2001/XMLSchema-instance" xsi:noNamespaceSchemaLocation="http://sumo.dlr.de/xsd/routes_file.xsd">
</routes>
