<?xml version="1.0" encoding="UTF-8"?>
<!-- generated on 2019-03-21 09:58:38.358185 by $Id: randomTrips.py v1_0_1+0098-8affe8886f jakob.erdmann@dlr.de 2018-08-29 20:55:11 +0200 $
  options: -n net.net.xml -s 42 <doubleminus>min-distance 2000 <doubleminus>maxtries 10
-->
<routes xmlns:xsi="http://www.w3.org/2001/XMLSchema-instance" xsi:noNamespaceSchemaLocation="http://sumo.dlr.de/xsd/routes_file.xsd">
</routes>
