<?xml version="1.0" encoding="UTF-8"?>

<!-- generated on 27.08.2018 15:36:17 by Eclipse SUMO netedit Version b980bbd93f
<configuration xmlns:xsi="http://www.w3.org/2001/XMLSchema-instance" xsi:noNamespaceSchemaLocation="http://sumo.dlr.de/xsd/netconvertConfiguration.xsd">

    <input>
        <sumo-net-file value="C:\Projects\sumo\tests\netedit\netElements\crossings\inspect_sidewalks\inspect_linkindex2\input_net.net.xml"/>
    </input>

    <output>
        <output-file value="C:\Projects\sumo\tests\netedit\netElements\crossings\inspect_sidewalks\inspect_linkindex2\input_net.net.xml"/>
        <plain-output-prefix value="C:\Projects\sumo\tests\netedit\netElements\crossings\inspect_sidewalks\inspect_linkindex2\input_net"/>
    </output>

    <processing>
        <offset.disable-normalization value="true"/>
        <lefthand value="false"/>
    </processing>

    <junctions>
        <no-internal-links value="false"/>
        <no-turnarounds value="true"/>
        <junctions.corner-detail value="5"/>
        <junctions.limit-turn-speed value="-1"/>
        <rectangular-lane-cut value="false"/>
    </junctions>

    <pedestrian>
        <walkingareas value="false"/>
    </pedestrian>

</configuration>
-->

<edges version="1.0" xmlns:xsi="http://www.w3.org/2001/XMLSchema-instance" xsi:noNamespaceSchemaLocation="http://sumo.dlr.de/xsd/edges_file.xsd">
    <edge id="1" from="Center" to="A" priority="-1" numLanes="3" speed="13.90">
        <lane index="0" allow="pedestrian" width="2.00"/>
        <lane index="1" disallow="pedestrian"/>
        <lane index="2" disallow="pedestrian"/>
    </edge>
    <edge id="2" from="Center" to="B" priority="-1" numLanes="3" speed="13.90">
        <lane index="0" allow="pedestrian" width="2.00"/>
        <lane index="1" disallow="pedestrian"/>
        <lane index="2" disallow="pedestrian"/>
    </edge>
    <edge id="3" from="Center" to="C" priority="-1" numLanes="3" speed="13.90">
        <lane index="0" allow="pedestrian" width="2.00"/>
        <lane index="1" disallow="pedestrian"/>
        <lane index="2" disallow="pedestrian"/>
    </edge>
    <edge id="4" from="Center" to="D" priority="-1" numLanes="3" speed="13.90">
        <lane index="0" allow="pedestrian" width="2.00"/>
        <lane index="1" disallow="pedestrian"/>
        <lane index="2" disallow="pedestrian"/>
    </edge>
    <edge id="5" from="A" to="Center" priority="-1" numLanes="3" speed="13.90">
        <lane index="0" allow="pedestrian" width="2.00"/>
        <lane index="1" disallow="pedestrian"/>
        <lane index="2" disallow="pedestrian"/>
    </edge>
    <edge id="6" from="B" to="Center" priority="-1" numLanes="3" speed="13.90">
        <lane index="0" allow="pedestrian" width="2.00"/>
        <lane index="1" disallow="pedestrian"/>
        <lane index="2" disallow="pedestrian"/>
    </edge>
    <edge id="7" from="C" to="Center" priority="-1" numLanes="3" speed="13.90">
        <lane index="0" allow="pedestrian" width="2.00"/>
        <lane index="1" disallow="pedestrian"/>
        <lane index="2" disallow="pedestrian"/>
    </edge>
    <edge id="8" from="D" to="Center" priority="-1" numLanes="3" speed="13.90">
        <lane index="0" allow="pedestrian" width="2.00"/>
        <lane index="1" disallow="pedestrian"/>
        <lane index="2" disallow="pedestrian"/>
    </edge>
</edges>
