<?xml version="1.0" encoding="UTF-8"?>

<!-- generated on Fri Dec 14 09:27:59 2018 by Eclipse SUMO netconvert Version v1_0_1+0645-93703db
This data file and the accompanying materials
are made available under the terms of the Eclipse Public License v2.0
which accompanies this distribution, and is available at
http://www.eclipse.org/legal/epl-v20.html
SPDX-License-Identifier: EPL-2.0
<configuration xmlns:xsi="http://www.w3.org/2001/XMLSchema-instance" xsi:noNamespaceSchemaLocation="https://sumo.dlr.de/xsd/netconvertConfiguration.xsd">

    <input>
        <sumo-net-file value="input_net.net.xml"/>
    </input>

    <output>
        <write-license value="true"/>
        <output-file value="net.net.xml"/>
        <plain-output-prefix value="plain"/>
    </output>

    <processing>
        <geometry.max-grade.fix value="false"/>
        <offset.disable-normalization value="true"/>
        <lefthand value="false"/>
    </processing>

    <junctions>
        <no-turnarounds value="true"/>
        <junctions.corner-detail value="0"/>
        <junctions.limit-turn-speed value="-1"/>
        <rectangular-lane-cut value="false"/>
    </junctions>

    <pedestrian>
        <crossings.guess value="true"/>
        <walkingareas value="false"/>
    </pedestrian>

    <report>
        <xml-validation value="never"/>
    </report>

</configuration>
-->

<edges version="1.1" xmlns:xsi="http://www.w3.org/2001/XMLSchema-instance" xsi:noNamespaceSchemaLocation="https://sumo.dlr.de/xsd/edges_file.xsd">
    <edge id="CE" from="C" to="E" priority="2" numLanes="3" speed="13.89">
        <lane index="0" allow="pedestrian" width="2.00"/>
        <lane index="1" allow="passenger"/>
        <lane index="2" allow="passenger"/>
    </edge>
    <edge id="CN" from="C" to="N" priority="2" numLanes="3" speed="13.89">
        <lane index="0" allow="pedestrian" width="2.00"/>
        <lane index="1" allow="passenger"/>
        <lane index="2" allow="passenger"/>
    </edge>
    <edge id="CS" from="C" to="S" priority="2" numLanes="3" speed="13.89">
        <lane index="0" allow="pedestrian" width="2.00"/>
        <lane index="1" allow="passenger"/>
        <lane index="2" allow="passenger"/>
    </edge>
    <edge id="CW" from="C" to="W" priority="2" numLanes="3" speed="13.89">
        <lane index="0" allow="pedestrian" width="2.00"/>
        <lane index="1" allow="passenger"/>
        <lane index="2" allow="passenger"/>
    </edge>
    <edge id="EC" from="E" to="C" priority="2" numLanes="3" speed="13.89">
        <lane index="0" allow="pedestrian" width="2.00"/>
        <lane index="1" allow="passenger"/>
        <lane index="2" allow="passenger"/>
    </edge>
    <edge id="NC" from="N" to="C" priority="2" numLanes="3" speed="13.89">
        <lane index="0" allow="pedestrian" width="2.00"/>
        <lane index="1" allow="passenger"/>
        <lane index="2" allow="passenger"/>
    </edge>
    <edge id="SC" from="S" to="C" priority="2" numLanes="3" speed="13.89">
        <lane index="0" allow="pedestrian" width="2.00"/>
        <lane index="1" allow="passenger"/>
        <lane index="2" allow="passenger"/>
    </edge>
    <edge id="WC" from="W" to="C" priority="2" numLanes="3" speed="13.89">
        <lane index="0" allow="pedestrian" width="2.00"/>
        <lane index="1" allow="passenger"/>
        <lane index="2" allow="passenger"/>
    </edge>
</edges>
