<?xml version="1.0" encoding="UTF-8"?>

<!-- generated on Thu Apr 12 00:04:35 2018 by SUMO netconvert Version c8481b0
This data file and the accompanying materials
are made available under the terms of the Eclipse Public License v2.0
which accompanies this distribution, and is available at
http://www.eclipse.org/legal/epl-v20.html
SPDX-License-Identifier: EPL-2.0
<configuration xmlns:xsi="http://www.w3.org/2001/XMLSchema-instance" xsi:noNamespaceSchemaLocation="http://sumo.dlr.de/xsd/netconvertConfiguration.xsd">

    <input>
        <sumo-net-file value="input_net.net.xml"/>
        <edge-files value="input_plain.edg.xml"/>
    </input>

    <output>
        <write-license value="true"/>
        <output-file value="net.net.xml"/>
    </output>

    <processing>
        <no-turnarounds value="true"/>
        <offset.disable-normalization value="true"/>
        <lefthand value="false"/>
        <junctions.corner-detail value="0"/>
        <rectangular-lane-cut value="false"/>
        <walkingareas value="false"/>
    </processing>

    <report>
        <xml-validation value="never"/>
    </report>

</configuration>
-->

<net version="0.27" xmlns:xsi="http://www.w3.org/2001/XMLSchema-instance" xsi:noNamespaceSchemaLocation="http://sumo.dlr.de/xsd/net_file.xsd">

    <location netOffset="0.00,0.00" convBoundary="-6.47,46.36,76.39,48.83" origBoundary="-10000000000.00,-10000000000.00,10000000000.00,10000000000.00" projParameter="!"/>

    <edge id=":gneJ1_0" function="internal">
        <lane id=":gneJ1_0_0" index="0" speed="13.89" length="4.38" shape="35.05,42.96 38.14,46.07"/>
    </edge>

    <edge id="beg" from="gneJ0" to="gneJ1" priority="1">
        <lane id="beg_0" index="0" speed="13.89" length="41.66" shape="-6.59,44.03 35.05,42.96"/>
        <lane id="beg_1" index="1" speed="13.89" length="41.66" shape="-6.51,47.23 35.13,46.16"/>
    </edge>
    <edge id="end" from="gneJ1" to="gneJ2" priority="1">
        <lane id="end_0" index="0" speed="13.89" length="38.22" shape="38.14,46.07 76.34,44.76"/>
    </edge>

    <junction id="gneJ0" type="dead_end" x="-6.47" y="48.83" incLanes="" intLanes="" shape="-6.47,48.83 -6.63,42.43"/>
    <junction id="gneJ1" type="priority" x="36.68" y="47.72" incLanes="beg_0 beg_1" intLanes=":gneJ1_0_0" shape="38.19,47.67 38.08,44.47 35.01,41.36 35.18,47.76">
        <request index="0" response="0" foes="0" cont="0"/>
    </junction>
    <junction id="gneJ2" type="dead_end" x="76.39" y="46.36" incLanes="end_0" intLanes="" shape="76.28,43.16 76.39,46.36"/>

    <connection from="beg" to="end" fromLane="0" toLane="0" via=":gneJ1_0_0" dir="s" state="M"/>

    <connection from=":gneJ1_0" to="end" fromLane="0" toLane="0" dir="s" state="M"/>

</net>
