<?xml version="1.0" encoding="UTF-8"?>

<!-- generated on 07.08.2019 09:20:48 by Eclipse SUMO netedit Version v1_2_0+1449-4e81e5b6f5
<configuration xmlns:xsi="http://www.w3.org/2001/XMLSchema-instance" xsi:noNamespaceSchemaLocation="http://sumo.dlr.de/xsd/netconvertConfiguration.xsd">

    <input>
        <sumo-net-file value="C:/Users/SUMO-Test/.texttest/tmp/netedit.gui.07Aug081821.3780/netedit.gui/additionalElements/chargingstation/load/power\input_net.net.xml"/>
    </input>

    <output>
        <output-file value="C:/Users/SUMO-Test/.texttest/tmp/netedit.gui.07Aug081821.3780/netedit.gui/additionalElements/chargingstation/load/power\net.net.xml"/>
    </output>

    <processing>
        <geometry.max-grade.fix value="false"/>
        <offset.disable-normalization value="true"/>
        <lefthand value="false"/>
    </processing>

    <junctions>
        <no-turnarounds value="true"/>
        <junctions.corner-detail value="5"/>
        <junctions.limit-turn-speed value="5.5"/>
        <rectangular-lane-cut value="false"/>
    </junctions>

    <pedestrian>
        <walkingareas value="false"/>
    </pedestrian>

    <netedit>
        <additional-files value="C:/Users/SUMO-Test/.texttest/tmp/netedit.gui.07Aug081821.3780/netedit.gui/additionalElements/chargingstation/load/power\additionals.xml"/>
        <additionals-output value="C:/Users/SUMO-Test/.texttest/tmp/netedit.gui.07Aug081821.3780/netedit.gui/additionalElements/chargingstation/load/power\additionals.xml"/>
        <route-files value="C:/Users/SUMO-Test/.texttest/tmp/netedit.gui.07Aug081821.3780/netedit.gui/additionalElements/chargingstation/load/power\routes.xml"/>
        <demandelements-output value="C:/Users/SUMO-Test/.texttest/tmp/netedit.gui.07Aug081821.3780/netedit.gui/additionalElements/chargingstation/load/power\routes.xml"/>
    </netedit>

    <visualisation>
        <gui-settings-file value="C:/Users/SUMO-Test/.texttest/tmp/netedit.gui.07Aug081821.3780/netedit.gui/additionalElements/chargingstation/load/power\gui-settings.xml"/>
        <window-size value="700,500"/>
        <window-pos value="50,50"/>
        <gui-testing value="true"/>
        <gui-testing-debug value="true"/>
        <gui-testing-debug-gl value="true"/>
    </visualisation>

    <report>
        <no-warnings value="true"/>
        <error-log value="C:/Users/SUMO-Test/.texttest/tmp/netedit.gui.07Aug081821.3780/netedit.gui/additionalElements/chargingstation/load/power\log.txt"/>
    </report>

</configuration>
-->

<additional xmlns:xsi="http://www.w3.org/2001/XMLSchema-instance" xsi:noNamespaceSchemaLocation="http://sumo.dlr.de/xsd/additional_file.xsd">
    <chargingStation id="chargingStation_0" lane="gneE1_0" startPos="0" endPos="2" name="chargingStation"/>
    <chargingStation id="chargingStation_1" lane="gneE1_0" startPos="4" endPos="6" name="chargingStation"/>
    <chargingStation id="chargingStation_2" lane="gneE1_0" startPos="8" endPos="10" name="chargingStation"/>
</additional>
