<additional xmlns:xsi="http://www.w3.org/2001/XMLSchema-instance" xsi:noNamespaceSchemaLocation="http://sumo.dlr.de/xsd/additional_file.xsd">
    <!-- non valid power 1 (missing)-->
    <chargingStation id="chargingStation_0" lane="center1_1" startPos="0" endPos="2" efficiency="0.95" chargeInTransit="0" chargeDelay="0.00" name="chargingStation" friendlyPos="false"/>

    <!-- non valid power 2 (dummy)-->
    <chargingStation id="chargingStation_1" lane="center1_1" startPos="4" endPos="6" power="dummyPower" efficiency="0.95" chargeInTransit="0" chargeDelay="0.00" name="chargingStation" friendlyPos="false"/>

    <!-- non valid power 2 (negative) -->
    <chargingStation id="chargingStation_2" lane="center1_1" startPos="8" endPos="10" power="-22000.00" efficiency="0.95" chargeInTransit="0" chargeDelay="0.00" name="chargingStation" friendlyPos="false"/>

    <!-- valid power 3-->
    <chargingStation id="chargingStation_2" lane="center1_1" startPos="8" endPos="10" power="5000.50" efficiency="0.95" chargeInTransit="0" chargeDelay="0.00" name="chargingStation" friendlyPos="false"/>

</additional>
