<?xml version="1.0" encoding="UTF-8"?>

<!-- generated on 2021-11-16 14:51:14 by Eclipse SUMO netedit Version v1_10_0+2328-493502f074f
-->

<routes xmlns:xsi="http://www.w3.org/2001/XMLSchema-instance" xsi:noNamespaceSchemaLocation="http://sumo.dlr.de/xsd/routes_file.xsd">
    <trip id="trip" depart="0.00" from="gneE0" to="gneE1">
        <stop containerStop="containerStopB"/>
        <stop containerStop="containerStopB" expectedContainers=""/>
        <stop containerStop="containerStopB" expectedContainers=""/>
    </trip>
</routes>
