<?xml version="1.0" encoding="UTF-8"?>

<!-- generated on Tue Mar 31 07:18:50 2020 by Eclipse SUMO netconvert Version v1_5_0+1020-c5ec1d22e9
<configuration xmlns:xsi="http://www.w3.org/2001/XMLSchema-instance" xsi:noNamespaceSchemaLocation="http://sumo.dlr.de/xsd/netconvertConfiguration.xsd">

    <input>
        <matsim-files value="matsim"/>
    </input>

    <report>
        <aggregate-warnings value="5"/>
    </report>

</configuration>
-->

<net version="1.6" junctionCornerDetail="5" limitTurnSpeed="5.50" xmlns:xsi="http://www.w3.org/2001/XMLSchema-instance" xsi:noNamespaceSchemaLocation="http://sumo.dlr.de/xsd/net_file.xsd">

    <location netOffset="0.00,-19.68" convBoundary="0.00,0.00,1737.68,747.71" origBoundary="0.00,19.68,1737.68,767.39" projParameter="!"/>

    <edge id=":175648134_0" function="internal">
        <lane id=":175648134_0_0" index="0" speed="3.65" length="4.67" shape="15.89,149.97 14.59,149.33 14.09,148.59 14.39,147.74 15.47,146.79"/>
    </edge>
    <edge id=":261599791_0" function="internal">
        <lane id=":261599791_0_0" index="0" speed="27.78" length="0.23" shape="34.71,161.64 34.51,161.66"/>
        <lane id=":261599791_0_1" index="1" speed="27.78" length="0.23" shape="34.31,158.46 34.06,158.49"/>
    </edge>
    <edge id=":261599791_2" function="internal">
        <lane id=":261599791_2_0" index="0" speed="27.78" length="0.34" shape="33.15,152.16 33.52,152.11"/>
        <lane id=":261599791_2_1" index="1" speed="27.78" length="0.34" shape="33.60,155.33 33.91,155.28"/>
    </edge>
    <edge id=":261636677_0" function="internal">
        <lane id=":261636677_0_0" index="0" speed="13.89" length="5.43" shape="1122.01,93.47 1121.38,94.93 1120.80,95.87 1120.06,96.71 1118.96,97.89"/>
    </edge>
    <edge id=":261636677_1" function="internal">
        <lane id=":261636677_1_0" index="0" speed="5.27" length="6.17" shape="1122.01,93.47 1120.57,96.38 1119.43,97.03 1118.69,95.59"/>
    </edge>
    <edge id=":261636677_4" function="internal">
        <lane id=":261636677_4_0" index="0" speed="5.27" length="4.15" shape="1118.69,95.59 1118.59,95.40 1118.05,91.51"/>
    </edge>
    <edge id=":261636677_2" function="internal">
        <lane id=":261636677_2_0" index="0" speed="7.05" length="4.59" shape="1116.60,95.72 1117.30,94.79 1117.78,93.77 1118.03,92.68 1118.05,91.51"/>
    </edge>
    <edge id=":261636677_3" function="internal">
        <lane id=":261636677_3_0" index="0" speed="3.65" length="2.34" shape="1116.60,95.72 1118.00,95.38 1118.86,95.63"/>
    </edge>
    <edge id=":261636677_5" function="internal">
        <lane id=":261636677_5_0" index="0" speed="3.65" length="2.34" shape="1118.86,95.63 1119.18,96.46 1118.96,97.89"/>
    </edge>
    <edge id=":261636678_0" function="internal">
        <lane id=":261636678_0_0" index="0" speed="6.43" length="9.03" shape="1114.37,44.04 1113.83,41.62 1112.64,39.97 1110.80,39.11 1108.31,39.03"/>
    </edge>
    <edge id=":261636678_1" function="internal">
        <lane id=":261636678_1_0" index="0" speed="8.15" length="14.63" shape="1114.37,44.04 1114.30,38.74 1115.04,34.88 1116.58,32.46 1118.92,31.50"/>
    </edge>
    <edge id=":261636678_2" function="internal">
        <lane id=":261636678_2_0" index="0" speed="27.78" length="11.28" shape="1119.49,37.87 1108.31,39.03"/>
        <lane id=":261636678_2_1" index="1" speed="27.78" length="11.28" shape="1119.21,34.68 1107.96,35.85"/>
    </edge>
    <edge id=":261636678_4" function="internal">
        <lane id=":261636678_4_0" index="0" speed="3.65" length="2.34" shape="1119.21,34.68 1117.94,33.99 1117.47,33.23"/>
    </edge>
    <edge id=":261636678_8" function="internal">
        <lane id=":261636678_8_0" index="0" speed="3.65" length="2.34" shape="1117.47,33.23 1117.80,32.40 1118.92,31.50"/>
    </edge>
    <edge id=":261636678_5" function="internal">
        <lane id=":261636678_5_0" index="0" speed="27.78" length="11.42" shape="1107.24,29.49 1118.64,28.31"/>
        <lane id=":261636678_5_1" index="1" speed="27.78" length="11.42" shape="1107.60,32.67 1118.92,31.50"/>
    </edge>
    <edge id=":261636678_7" function="internal">
        <lane id=":261636678_7_0" index="0" speed="3.65" length="2.34" shape="1107.60,32.67 1108.88,33.34 1109.37,34.09"/>
    </edge>
    <edge id=":261636678_9" function="internal">
        <lane id=":261636678_9_0" index="0" speed="3.65" length="2.34" shape="1109.37,34.09 1109.06,34.93 1107.96,35.85"/>
    </edge>
    <edge id=":283018817_0" function="internal">
        <lane id=":283018817_0_0" index="0" speed="7.71" length="9.34" shape="605.16,525.07 608.53,525.45 611.14,525.39 612.98,524.88 614.05,523.94"/>
    </edge>
    <edge id=":283018817_1" function="internal">
        <lane id=":283018817_1_0" index="0" speed="3.65" length="4.67" shape="605.16,525.07 606.22,526.05 606.48,526.90 605.96,527.63 604.65,528.23"/>
    </edge>
    <edge id=":283018817_2" function="internal">
        <lane id=":283018817_2_0" index="0" speed="5.85" length="9.12" shape="607.69,534.70 608.71,532.24 608.55,530.35 607.19,529.01 604.65,528.23"/>
    </edge>
    <edge id=":283018817_3" function="internal">
        <lane id=":283018817_3_0" index="0" speed="13.89" length="12.50" shape="607.69,534.70 614.05,523.94"/>
    </edge>
    <edge id=":283018841_0" function="internal">
        <lane id=":283018841_0_0" index="0" speed="8.33" length="14.03" shape="529.04,516.17 525.25,516.00 521.93,516.75 519.09,518.44 516.72,521.06"/>
    </edge>
    <edge id=":283018841_1" function="internal">
        <lane id=":283018841_1_0" index="0" speed="8.33" length="17.83" shape="529.04,516.17 524.91,515.44 520.28,514.51 515.67,513.47 511.61,512.43"/>
    </edge>
    <edge id=":283018841_2" function="internal">
        <lane id=":283018841_2_0" index="0" speed="7.44" length="16.40" shape="529.04,516.17 524.39,514.77 522.04,512.39 522.00,509.06 524.27,504.76"/>
    </edge>
    <edge id=":283018841_3" function="internal">
        <lane id=":283018841_3_0" index="0" speed="3.65" length="4.67" shape="529.04,516.17 527.98,515.20 527.71,514.34 528.23,513.62 529.54,513.01"/>
    </edge>
    <edge id=":283018841_4" function="internal">
        <lane id=":283018841_4_0" index="0" speed="5.74" length="9.18" shape="526.87,506.62 525.60,509.03 525.62,510.90 526.94,512.23 529.54,513.01"/>
    </edge>
    <edge id=":283018841_5" function="internal">
        <lane id=":283018841_5_0" index="0" speed="8.33" length="17.65" shape="526.87,506.62 516.72,521.06"/>
    </edge>
    <edge id=":283018841_6" function="internal">
        <lane id=":283018841_6_0" index="0" speed="8.33" length="17.50" shape="526.87,506.62 523.67,510.12 520.06,512.26 516.04,513.03 511.61,512.43"/>
    </edge>
    <edge id=":283018841_7" function="internal">
        <lane id=":283018841_7_0" index="0" speed="3.65" length="4.67" shape="526.87,506.62 525.52,507.13 524.64,506.99 524.22,506.20 524.27,504.76"/>
    </edge>
    <edge id=":283018841_8" function="internal">
        <lane id=":283018841_8_0" index="0" speed="8.33" length="13.58" shape="512.46,509.35 515.87,509.80 518.97,509.18 521.77,507.50 524.27,504.76"/>
    </edge>
    <edge id=":283018841_9" function="internal">
        <lane id=":283018841_9_0" index="0" speed="8.33" length="17.48" shape="512.46,509.35 516.47,510.37 520.96,511.38 525.47,512.30 529.54,513.01"/>
    </edge>
    <edge id=":283018841_10" function="internal">
        <lane id=":283018841_10_0" index="0" speed="7.54" length="15.66" shape="512.46,509.35 516.61,511.15 518.71,513.70 518.74,517.01 516.72,521.06"/>
    </edge>
    <edge id=":283018841_11" function="internal">
        <lane id=":283018841_11_0" index="0" speed="3.65" length="4.67" shape="512.46,509.35 513.40,510.44 513.58,511.32 512.98,511.98 511.61,512.43"/>
    </edge>
    <edge id=":283018841_12" function="internal">
        <lane id=":283018841_12_0" index="0" speed="5.90" length="9.10" shape="514.09,519.24 515.26,516.89 515.24,514.97 514.02,513.48 511.61,512.43"/>
    </edge>
    <edge id=":283018841_13" function="internal">
        <lane id=":283018841_13_0" index="0" speed="8.33" length="17.70" shape="514.09,519.24 524.27,504.76"/>
    </edge>
    <edge id=":283018841_14" function="internal">
        <lane id=":283018841_14_0" index="0" speed="8.33" length="17.65" shape="514.09,519.24 517.08,515.92 520.65,513.77 524.81,512.80 529.54,513.01"/>
    </edge>
    <edge id=":283018841_15" function="internal">
        <lane id=":283018841_15_0" index="0" speed="3.65" length="4.67" shape="514.09,519.24 515.43,518.71 516.31,518.83 516.75,519.61 516.72,521.06"/>
    </edge>
    <edge id=":283018842_0" function="internal">
        <lane id=":283018842_0_0" index="0" speed="8.33" length="16.56" shape="486.92,513.77 484.61,510.45 481.99,507.00 479.04,503.92 475.79,501.75"/>
    </edge>
    <edge id=":283018842_1" function="internal">
        <lane id=":283018842_1_0" index="0" speed="7.51" length="20.67" shape="486.92,513.77 483.64,507.85 483.68,504.28 487.03,503.06 493.70,504.18"/>
    </edge>
    <edge id=":283018842_2" function="internal">
        <lane id=":283018842_2_0" index="0" speed="3.65" length="4.67" shape="486.92,513.77 486.89,512.33 487.32,511.54 488.20,511.42 489.54,511.94"/>
    </edge>
    <edge id=":283018842_3" function="internal">
        <lane id=":283018842_3_0" index="0" speed="5.46" length="10.08" shape="492.85,507.27 489.60,506.72 487.97,507.32 487.95,509.06 489.54,511.94"/>
    </edge>
    <edge id=":283018842_4" function="internal">
        <lane id=":283018842_4_0" index="0" speed="8.33" length="17.95" shape="492.85,507.27 488.79,506.13 484.22,504.78 479.70,503.30 475.79,501.75"/>
    </edge>
    <edge id=":283018842_5" function="internal">
        <lane id=":283018842_5_0" index="0" speed="3.65" length="4.67" shape="492.85,507.27 491.91,506.18 491.74,505.30 492.33,504.63 493.70,504.18"/>
    </edge>
    <edge id=":283018842_6" function="internal">
        <lane id=":283018842_6_0" index="0" speed="8.33" length="17.45" shape="477.11,498.83 480.95,500.36 485.31,501.79 489.72,503.08 493.70,504.18"/>
    </edge>
    <edge id=":283018842_7" function="internal">
        <lane id=":283018842_7_0" index="0" speed="8.33" length="18.22" shape="477.11,498.83 480.57,501.18 483.96,504.63 487.04,508.45 489.54,511.94"/>
    </edge>
    <edge id=":283018842_8" function="internal">
        <lane id=":283018842_8_0" index="0" speed="3.65" length="4.67" shape="477.11,498.83 477.87,500.06 477.91,500.95 477.21,501.51 475.79,501.75"/>
    </edge>
    <edge id=":283018844_0" function="internal">
        <lane id=":283018844_0_0" index="0" speed="8.12" length="11.62" shape="409.35,471.50 406.30,470.54 403.53,470.56 401.04,471.56 398.83,473.54"/>
    </edge>
    <edge id=":283018844_1" function="internal">
        <lane id=":283018844_1_0" index="0" speed="8.33" length="16.08" shape="409.35,471.50 405.81,469.82 402.15,467.93 398.55,465.93 395.19,463.91"/>
    </edge>
    <edge id=":283018844_2" function="internal">
        <lane id=":283018844_2_0" index="0" speed="7.60" length="15.36" shape="409.35,471.50 405.65,469.14 403.96,466.32 404.28,463.05 406.61,459.32"/>
    </edge>
    <edge id=":283018844_3" function="internal">
        <lane id=":283018844_3_0" index="0" speed="3.65" length="4.67" shape="409.35,471.50 408.59,470.28 408.56,469.38 409.25,468.82 410.68,468.59"/>
    </edge>
    <edge id=":283018844_4" function="internal">
        <lane id=":283018844_4_0" index="0" speed="6.00" length="9.08" shape="409.06,461.39 407.68,463.59 407.49,465.52 408.49,467.19 410.68,468.59"/>
    </edge>
    <edge id=":283018844_5" function="internal">
        <lane id=":283018844_5_0" index="0" speed="8.33" length="15.88" shape="409.06,461.39 398.83,473.54"/>
    </edge>
    <edge id=":283018844_6" function="internal">
        <lane id=":283018844_6_0" index="0" speed="8.33" length="15.62" shape="409.06,461.39 405.87,464.30 402.49,465.69 398.93,465.56 395.19,463.91"/>
    </edge>
    <edge id=":283018844_7" function="internal">
        <lane id=":283018844_7_0" index="0" speed="3.65" length="4.67" shape="409.06,461.39 407.67,461.79 406.80,461.58 406.45,460.76 406.61,459.32"/>
    </edge>
    <edge id=":283018844_8" function="internal">
        <lane id=":283018844_8_0" index="0" speed="7.48" length="10.97" shape="396.90,461.20 399.50,462.34 401.98,462.40 404.35,461.40 406.61,459.32"/>
    </edge>
    <edge id=":283018844_9" function="internal">
        <lane id=":283018844_9_0" index="0" speed="8.33" length="15.65" shape="396.90,461.20 400.20,463.19 403.67,465.12 407.20,466.94 410.68,468.59"/>
    </edge>
    <edge id=":283018844_10" function="internal">
        <lane id=":283018844_10_0" index="0" speed="7.78" length="14.73" shape="396.90,461.20 400.03,463.87 401.40,466.82 401.00,470.04 398.83,473.54"/>
    </edge>
    <edge id=":283018844_11" function="internal">
        <lane id=":283018844_11_0" index="0" speed="3.65" length="4.67" shape="396.90,461.20 397.49,462.52 397.40,463.41 396.63,463.87 395.19,463.91"/>
    </edge>
    <edge id=":283018844_12" function="internal">
        <lane id=":283018844_12_0" index="0" speed="6.23" length="9.05" shape="396.38,471.49 397.71,469.34 397.96,467.36 397.12,465.55 395.19,463.91"/>
    </edge>
    <edge id=":283018844_13" function="internal">
        <lane id=":283018844_13_0" index="0" speed="8.33" length="15.90" shape="396.38,471.49 406.61,459.32"/>
    </edge>
    <edge id=":283018844_14" function="internal">
        <lane id=":283018844_14_0" index="0" speed="8.33" length="15.82" shape="396.38,471.49 399.41,468.75 402.81,467.36 406.56,467.31 410.68,468.59"/>
    </edge>
    <edge id=":283018844_15" function="internal">
        <lane id=":283018844_15_0" index="0" speed="3.65" length="4.67" shape="396.38,471.49 397.76,471.08 398.63,471.29 398.99,472.11 398.83,473.54"/>
    </edge>
    <edge id=":283018845_0" function="internal">
        <lane id=":283018845_0_0" index="0" speed="11.11" length="27.79" shape="379.28,453.88 374.40,450.80 367.43,446.52 360.35,442.51 355.12,440.25"/>
    </edge>
    <edge id=":283018845_1" function="internal">
        <lane id=":283018845_1_0" index="0" speed="6.03" length="14.89" shape="379.28,453.88 376.99,450.80 377.32,447.21 379.68,444.49 383.49,444.00"/>
    </edge>
    <edge id=":283018845_2" function="internal">
        <lane id=":283018845_2_0" index="0" speed="3.65" length="4.67" shape="379.28,453.88 378.69,452.57 378.78,451.68 379.54,451.21 380.99,451.18"/>
    </edge>
    <edge id=":283018845_3" function="internal">
        <lane id=":283018845_3_0" index="0" speed="5.99" length="14.67" shape="382.72,447.10 377.53,446.10 375.51,446.44 376.66,448.13 380.99,451.18"/>
    </edge>
    <edge id=":283018845_4" function="internal">
        <lane id=":283018845_4_0" index="0" speed="13.89" length="28.44" shape="382.72,447.10 355.12,440.25"/>
    </edge>
    <edge id=":283018845_5" function="internal">
        <lane id=":283018845_5_0" index="0" speed="3.65" length="2.34" shape="382.72,447.10 381.75,446.04 381.55,445.17"/>
    </edge>
    <edge id=":283018845_9" function="internal">
        <lane id=":283018845_9_0" index="0" speed="3.65" length="2.34" shape="381.55,445.17 382.14,444.49 383.49,444.00"/>
    </edge>
    <edge id=":283018845_6" function="internal">
        <lane id=":283018845_6_0" index="0" speed="13.89" length="28.44" shape="355.89,437.14 383.49,444.00"/>
    </edge>
    <edge id=":283018845_7" function="internal">
        <lane id=":283018845_7_0" index="0" speed="11.11" length="8.28" shape="355.89,437.14 361.27,439.47 363.38,440.65"/>
    </edge>
    <edge id=":283018845_8" function="internal">
        <lane id=":283018845_8_0" index="0" speed="3.65" length="2.34" shape="355.89,437.14 356.87,438.21 357.06,439.08"/>
    </edge>
    <edge id=":283018845_10" function="internal">
        <lane id=":283018845_10_0" index="0" speed="11.11" length="20.52" shape="363.38,440.65 368.67,443.61 375.96,448.03 380.99,451.18"/>
    </edge>
    <edge id=":283018845_11" function="internal">
        <lane id=":283018845_11_0" index="0" speed="3.65" length="2.34" shape="357.06,439.08 356.48,439.76 355.12,440.25"/>
    </edge>
    <edge id=":283018932_0" function="internal">
        <lane id=":283018932_0_0" index="0" speed="8.78" length="11.77" shape="419.27,456.44 416.83,456.21 414.33,456.93 411.79,458.60 409.20,461.22"/>
    </edge>
    <edge id=":283018932_1" function="internal">
        <lane id=":283018932_1_0" index="0" speed="13.89" length="15.16" shape="419.27,456.44 404.62,452.55"/>
    </edge>
    <edge id=":283018932_2" function="internal">
        <lane id=":283018932_2_0" index="0" speed="3.65" length="2.34" shape="419.27,456.44 418.34,455.34 418.18,454.46"/>
    </edge>
    <edge id=":283018932_9" function="internal">
        <lane id=":283018932_9_0" index="0" speed="3.65" length="2.34" shape="418.18,454.46 418.79,453.80 420.17,453.37"/>
    </edge>
    <edge id=":283018932_3" function="internal">
        <lane id=":283018932_3_0" index="0" speed="13.89" length="15.29" shape="405.39,449.44 420.17,453.37"/>
    </edge>
    <edge id=":283018932_4" function="internal">
        <lane id=":283018932_4_0" index="0" speed="7.44" length="6.61" shape="405.39,449.44 409.89,451.24 411.02,452.59"/>
    </edge>
    <edge id=":283018932_5" function="internal">
        <lane id=":283018932_5_0" index="0" speed="3.65" length="2.34" shape="405.39,449.44 406.36,450.51 406.56,451.38"/>
    </edge>
    <edge id=":283018932_10" function="internal">
        <lane id=":283018932_10_0" index="0" speed="7.44" length="9.75" shape="411.02,452.59 412.03,453.80 411.80,457.13 409.20,461.22"/>
    </edge>
    <edge id=":283018932_11" function="internal">
        <lane id=":283018932_11_0" index="0" speed="3.65" length="2.34" shape="406.56,451.38 405.98,452.06 404.62,452.55"/>
    </edge>
    <edge id=":283018932_6" function="internal">
        <lane id=":283018932_6_0" index="0" speed="5.74" length="9.18" shape="406.76,459.15 408.21,456.86 408.34,454.99 407.15,453.55 404.62,452.55"/>
    </edge>
    <edge id=":283018932_7" function="internal">
        <lane id=":283018932_7_0" index="0" speed="9.99" length="15.47" shape="406.76,459.15 410.06,455.87 413.40,453.82 416.76,452.98 420.17,453.37"/>
    </edge>
    <edge id=":283018932_8" function="internal">
        <lane id=":283018932_8_0" index="0" speed="3.65" length="4.67" shape="406.76,459.15 408.14,458.75 409.01,458.96 409.37,459.78 409.20,461.22"/>
    </edge>
    <edge id=":283018933_0" function="internal">
        <lane id=":283018933_0_0" index="0" speed="7.81" length="10.81" shape="542.84,493.02 540.43,492.58 538.11,493.11 535.86,494.61 533.70,497.08"/>
    </edge>
    <edge id=":283018933_1" function="internal">
        <lane id=":283018933_1_0" index="0" speed="13.89" length="14.84" shape="542.84,493.02 528.74,488.38"/>
    </edge>
    <edge id=":283018933_2" function="internal">
        <lane id=":283018933_2_0" index="0" speed="3.65" length="2.34" shape="542.84,493.02 542.00,491.84 541.91,490.95"/>
    </edge>
    <edge id=":283018933_9" function="internal">
        <lane id=":283018933_9_0" index="0" speed="3.65" length="2.34" shape="541.91,490.95 542.56,490.35 543.97,490.02"/>
    </edge>
    <edge id=":283018933_3" function="internal">
        <lane id=":283018933_3_0" index="0" speed="13.89" length="15.09" shape="529.63,485.31 543.97,490.02"/>
    </edge>
    <edge id=":283018933_4" function="internal">
        <lane id=":283018933_4_0" index="0" speed="7.53" length="6.57" shape="529.63,485.31 533.77,487.18 535.03,488.77"/>
    </edge>
    <edge id=":283018933_5" function="internal">
        <lane id=":283018933_5_0" index="0" speed="3.65" length="2.34" shape="529.63,485.31 530.56,486.41 530.72,487.29"/>
    </edge>
    <edge id=":283018933_10" function="internal">
        <lane id=":283018933_10_0" index="0" speed="7.53" length="9.11" shape="535.03,488.77 535.82,489.76 535.80,493.06 533.70,497.08"/>
    </edge>
    <edge id=":283018933_11" function="internal">
        <lane id=":283018933_11_0" index="0" speed="3.65" length="2.34" shape="530.72,487.29 530.11,487.95 528.74,488.38"/>
    </edge>
    <edge id=":283018933_6" function="internal">
        <lane id=":283018933_6_0" index="0" speed="5.90" length="9.10" shape="531.10,495.22 532.32,492.89 532.33,490.97 531.14,489.47 528.74,488.38"/>
    </edge>
    <edge id=":283018933_7" function="internal">
        <lane id=":283018933_7_0" index="0" speed="9.12" length="15.04" shape="531.10,495.22 534.03,491.92 537.16,489.96 540.47,489.33 543.97,490.02"/>
    </edge>
    <edge id=":283018933_8" function="internal">
        <lane id=":283018933_8_0" index="0" speed="3.65" length="4.67" shape="531.10,495.22 532.45,494.71 533.33,494.85 533.75,495.64 533.70,497.08"/>
    </edge>
    <edge id=":283719736_0" function="internal">
        <lane id=":283719736_0_0" index="0" speed="8.43" length="16.20" shape="1057.27,507.28 1054.89,506.25 1051.88,507.00 1048.24,509.53 1043.98,513.85"/>
    </edge>
    <edge id=":283719736_1" function="internal">
        <lane id=":283719736_1_0" index="0" speed="11.11" length="19.25" shape="1057.27,507.28 1054.37,505.66 1050.31,505.14 1045.09,505.70 1038.72,507.36"/>
    </edge>
    <edge id=":283719736_2" function="internal">
        <lane id=":283719736_2_0" index="0" speed="13.89" length="17.04" shape="1057.27,507.28 1044.44,496.07"/>
    </edge>
    <edge id=":283719736_3" function="internal">
        <lane id=":283719736_3_0" index="0" speed="3.65" length="2.34" shape="1057.27,507.28 1056.94,505.87 1057.19,505.02"/>
    </edge>
    <edge id=":283719736_16" function="internal">
        <lane id=":283719736_16_0" index="0" speed="3.65" length="2.34" shape="1057.19,505.02 1058.03,504.70 1059.45,504.93"/>
    </edge>
    <edge id=":283719736_4" function="internal">
        <lane id=":283719736_4_0" index="0" speed="13.89" length="17.20" shape="1046.50,493.61 1059.45,504.93"/>
    </edge>
    <edge id=":283719736_5" function="internal">
        <lane id=":283719736_5_0" index="0" speed="9.98" length="6.08" shape="1046.50,493.61 1049.64,497.64 1049.77,498.60"/>
    </edge>
    <edge id=":283719736_6" function="internal">
        <lane id=":283719736_6_0" index="0" speed="8.16" length="5.99" shape="1046.50,493.61 1049.68,497.54 1049.62,498.47"/>
    </edge>
    <edge id=":283719736_7" function="internal">
        <lane id=":283719736_7_0" index="0" speed="3.65" length="2.34" shape="1046.50,493.61 1046.90,495.00 1046.70,495.87"/>
    </edge>
    <edge id=":283719736_17" function="internal">
        <lane id=":283719736_17_0" index="0" speed="9.98" length="17.03" shape="1049.77,498.60 1050.27,502.35 1048.38,507.76 1043.98,513.85"/>
    </edge>
    <edge id=":283719736_18" function="internal">
        <lane id=":283719736_18_0" index="0" speed="8.16" length="15.24" shape="1049.62,498.47 1049.45,501.14 1045.79,504.41 1038.72,507.36"/>
    </edge>
    <edge id=":283719736_19" function="internal">
        <lane id=":283719736_19_0" index="0" speed="3.65" length="2.34" shape="1046.70,495.87 1045.88,496.22 1044.44,496.07"/>
    </edge>
    <edge id=":283719736_8" function="internal">
        <lane id=":283719736_8_0" index="0" speed="6.65" length="13.57" shape="1037.75,504.31 1042.67,502.37 1045.43,500.35 1046.02,498.25 1044.44,496.07"/>
    </edge>
    <edge id=":283719736_9" function="internal">
        <lane id=":283719736_9_0" index="0" speed="11.11" length="22.59" shape="1037.75,504.31 1044.99,502.48 1051.01,501.98 1055.83,502.80 1059.45,504.93"/>
    </edge>
    <edge id=":283719736_10" function="internal">
        <lane id=":283719736_10_0" index="0" speed="6.39" length="15.46" shape="1037.75,504.31 1041.86,504.32 1044.70,506.58 1045.62,510.08 1043.98,513.85"/>
    </edge>
    <edge id=":283719736_11" function="internal">
        <lane id=":283719736_11_0" index="0" speed="3.65" length="4.67" shape="1037.75,504.31 1039.14,504.71 1039.76,505.35 1039.62,506.23 1038.72,507.36"/>
    </edge>
    <edge id=":283719736_12" function="internal">
        <lane id=":283719736_12_0" index="0" speed="5.51" length="11.03" shape="1041.57,511.73 1043.81,508.71 1044.08,506.98 1042.38,506.53 1038.72,507.36"/>
    </edge>
    <edge id=":283719736_13" function="internal">
        <lane id=":283719736_13_0" index="0" speed="8.84" length="17.91" shape="1041.57,511.73 1045.19,506.85 1046.87,502.61 1046.62,499.02 1044.44,496.07"/>
    </edge>
    <edge id=":283719736_14" function="internal">
        <lane id=":283719736_14_0" index="0" speed="9.60" length="21.31" shape="1041.57,511.73 1046.94,506.48 1051.71,503.60 1055.88,503.08 1059.45,504.93"/>
    </edge>
    <edge id=":283719736_15" function="internal">
        <lane id=":283719736_15_0" index="0" speed="3.65" length="4.67" shape="1041.57,511.73 1042.97,511.36 1043.83,511.59 1044.17,512.42 1043.98,513.85"/>
    </edge>
    <edge id=":283720461_0" function="internal">
        <lane id=":283720461_0_0" index="0" speed="6.89" length="9.80" shape="1025.89,480.57 1023.77,479.32 1021.62,479.10 1019.45,479.90 1017.26,481.74"/>
    </edge>
    <edge id=":283720461_1" function="internal">
        <lane id=":283720461_1_0" index="0" speed="13.89" length="14.70" shape="1025.89,480.57 1023.00,478.26 1020.06,476.10 1017.03,474.06 1013.89,472.10"/>
    </edge>
    <edge id=":283720461_2" function="internal">
        <lane id=":283720461_2_0" index="0" speed="3.65" length="2.34" shape="1025.89,480.57 1025.48,479.19 1025.69,478.32"/>
    </edge>
    <edge id=":283720461_9" function="internal">
        <lane id=":283720461_9_0" index="0" speed="3.65" length="2.34" shape="1025.69,478.32 1026.51,477.96 1027.94,478.11"/>
    </edge>
    <edge id=":283720461_3" function="internal">
        <lane id=":283720461_3_0" index="0" speed="13.89" length="15.19" shape="1015.54,469.36 1018.75,471.37 1021.91,473.50 1024.99,475.76 1027.94,478.11"/>
    </edge>
    <edge id=":283720461_4" function="internal">
        <lane id=":283720461_4_0" index="0" speed="7.68" length="6.34" shape="1015.54,469.36 1018.84,472.06 1019.72,473.95"/>
    </edge>
    <edge id=":283720461_5" function="internal">
        <lane id=":283720461_5_0" index="0" speed="3.65" length="2.34" shape="1015.54,469.36 1016.16,470.67 1016.09,471.56"/>
    </edge>
    <edge id=":283720461_10" function="internal">
        <lane id=":283720461_10_0" index="0" speed="7.68" length="8.72" shape="1019.72,473.95 1020.22,475.02 1019.70,478.25 1017.26,481.74"/>
    </edge>
    <edge id=":283720461_11" function="internal">
        <lane id=":283720461_11_0" index="0" speed="3.65" length="2.34" shape="1016.09,471.56 1015.33,472.04 1013.89,472.10"/>
    </edge>
    <edge id=":283720461_6" function="internal">
        <lane id=":283720461_6_0" index="0" speed="6.10" length="9.06" shape="1014.92,479.55 1016.39,477.45 1016.71,475.51 1015.88,473.72 1013.89,472.10"/>
    </edge>
    <edge id=":283720461_7" function="internal">
        <lane id=":283720461_7_0" index="0" speed="8.32" length="14.75" shape="1014.92,479.55 1018.16,476.87 1021.41,475.74 1024.68,476.15 1027.94,478.11"/>
    </edge>
    <edge id=":283720461_8" function="internal">
        <lane id=":283720461_8_0" index="0" speed="3.65" length="4.67" shape="1014.92,479.55 1016.33,479.22 1017.18,479.48 1017.49,480.32 1017.26,481.74"/>
    </edge>
    <edge id=":283721344_0" function="internal">
        <lane id=":283721344_0_0" index="0" speed="7.30" length="10.48" shape="1020.88,519.32 1019.46,516.97 1017.56,515.53 1015.17,515.01 1012.30,515.41"/>
    </edge>
    <edge id=":283721344_1" function="internal">
        <lane id=":283721344_1_0" index="0" speed="8.33" length="15.27" shape="1020.88,519.32 1014.56,505.42"/>
    </edge>
    <edge id=":283721344_2" function="internal">
        <lane id=":283721344_2_0" index="0" speed="7.85" length="14.55" shape="1020.88,519.32 1019.87,515.41 1020.40,512.22 1022.49,509.75 1026.12,507.99"/>
    </edge>
    <edge id=":283721344_3" function="internal">
        <lane id=":283721344_3_0" index="0" speed="3.65" length="4.67" shape="1020.88,519.32 1021.16,517.90 1021.74,517.22 1022.63,517.28 1023.83,518.08"/>
    </edge>
    <edge id=":283721344_4" function="internal">
        <lane id=":283721344_4_0" index="0" speed="6.32" length="9.04" shape="1027.09,511.04 1024.83,512.13 1023.53,513.67 1023.20,515.65 1023.83,518.08"/>
    </edge>
    <edge id=":283721344_5" function="internal">
        <lane id=":283721344_5_0" index="0" speed="8.33" length="15.42" shape="1027.09,511.04 1012.30,515.41"/>
    </edge>
    <edge id=":283721344_6" function="internal">
        <lane id=":283721344_6_0" index="0" speed="8.33" length="15.19" shape="1027.09,511.04 1023.13,511.69 1019.72,510.98 1016.87,508.89 1014.56,505.42"/>
    </edge>
    <edge id=":283721344_7" function="internal">
        <lane id=":283721344_7_0" index="0" speed="3.65" length="4.67" shape="1027.09,511.04 1025.70,510.64 1025.08,510.00 1025.22,509.11 1026.12,507.99"/>
    </edge>
    <edge id=":283721344_8" function="internal">
        <lane id=":283721344_8_0" index="0" speed="7.38" length="10.57" shape="1017.44,504.02 1019.05,506.45 1021.03,507.92 1023.39,508.43 1026.12,507.99"/>
    </edge>
    <edge id=":283721344_9" function="internal">
        <lane id=":283721344_9_0" index="0" speed="8.33" length="15.45" shape="1017.44,504.02 1023.83,518.08"/>
    </edge>
    <edge id=":283721344_10" function="internal">
        <lane id=":283721344_10_0" index="0" speed="7.71" length="14.95" shape="1017.44,504.02 1018.73,508.03 1018.30,511.26 1016.16,513.72 1012.30,515.41"/>
    </edge>
    <edge id=":283721344_11" function="internal">
        <lane id=":283721344_11_0" index="0" speed="3.65" length="4.67" shape="1017.44,504.02 1017.25,505.45 1016.70,506.16 1015.81,506.15 1014.56,505.42"/>
    </edge>
    <edge id=":283721344_12" function="internal">
        <lane id=":283721344_12_0" index="0" speed="6.14" length="9.06" shape="1011.45,512.32 1013.79,511.30 1015.09,509.81 1015.35,507.85 1014.56,505.42"/>