<?xml version="1.0" encoding="UTF-8"?>

<!-- generated on 2022-11-01 14:29:04 by Eclipse SUMO netedit Version v1_14_1+2149-ab3f80be89f
-->

<routes xmlns:xsi="http://www.w3.org/2001/XMLSchema-instance" xsi:noNamespaceSchemaLocation="http://sumo.dlr.de/xsd/routes_file.xsd">
    <!-- Vehicles, persons and containers (sorted by depart) -->
    <flow id="f_0" begin="0.00" from="gneE2" to="gneE5" end="3600.00" vehsPerHour="1800.00"/>
</routes>
