<?xml version="1.0" encoding="UTF-8"?>

<!-- generated on 2022-11-19 16:26:52 by Eclipse SUMO netconvert Version v1_15_0+0442-fb08314
This data file and the accompanying materials
are made available under the terms of the Eclipse Public License v2.0
which accompanies this distribution, and is available at
http://www.eclipse.org/legal/epl-v20.html
This file may also be made available under the following Secondary
Licenses when the conditions for such availability set forth in the Eclipse
Public License 2.0 are satisfied: GNU General Public License, version 2
or later which is available at
https://www.gnu.org/licenses/old-licenses/gpl-2.0-standalone.html
SPDX-License-Identifier: EPL-2.0 OR GPL-2.0-or-later
<configuration xmlns:xsi="http://www.w3.org/2001/XMLSchema-instance" xsi:noNamespaceSchemaLocation="http://sumo.dlr.de/xsd/netconvertConfiguration.xsd">

    <input>
        <sumo-net-file value="input_net.net.xml"/>
    </input>

    <output>
        <write-license value="true"/>
        <opendrive-output value="foreign.net"/>
        <output.original-names value="true"/>
    </output>

    <processing>
        <geometry.min-radius.fix.railways value="false"/>
        <geometry.max-grade.fix value="false"/>
        <offset.disable-normalization value="true"/>
        <lefthand value="1"/>
    </processing>

    <junctions>
        <no-turnarounds value="true"/>
        <junctions.corner-detail value="0"/>
        <junctions.limit-turn-speed value="-1.00"/>
    </junctions>

    <pedestrian>
        <walkingareas value="0"/>
    </pedestrian>

    <report>
        <xml-validation value="never"/>
    </report>

</configuration>
-->

<OpenDRIVE>
    <header revMajor="1" revMinor="4" name="" version="1.00" date="Sat Nov 19 16:26:52 2022" north="200.00" south="0.00" east="200.00" west="0.00"/>
    <road name="" length="89.60000000" id="50" junction="-1">
        <link>
            <predecessor elementType="junction" elementId="1"/>
            <successor elementType="junction" elementId="2"/>
        </link>
        <type s="0" type="town"/>
        <planView>
            <geometry s="0.00000000" x="110.40000000" y="106.40000000" hdg="0.00000000" length="89.60000000">
                <line/>
            </geometry>
        </planView>
        <elevationProfile>
            <elevation s="0" a="0.00" b="0" c="0" d="0"/>
        </elevationProfile>
        <lateralProfile/>
        <lanes>
            <laneSection s="0">
                <center>
                    <lane id="0" type="none" level="true">
                        <link/>
                        <roadMark sOffset="0" type="solid" weight="standard" color="standard" width="0.13"/>
                    </lane>
                </center>
                <right>
                    <lane id="-1" type="driving" level="true">
                        <link/>
                        <width sOffset="0" a="3.20" b="0" c="0" d="0"/>
                        <roadMark sOffset="0" type="broken" weight="standard" color="standard" width="0.13"/>
                        <speed sOffset="0" max="13.89"/>
                    </lane>
                    <lane id="-2" type="driving" level="true">
                        <link/>
                        <width sOffset="0" a="3.20" b="0" c="0" d="0"/>
                        <roadMark sOffset="0" type="solid" weight="standard" color="standard" width="0.13"/>
                        <speed sOffset="0" max="13.89"/>
                    </lane>
                 </right>
            </laneSection>
        </lanes>
        <objects/>
        <signals/>
        <userData code="sumoId" value="CE"/>
    </road>
    <road name="" length="89.60000000" id="51" junction="-1">
        <link>
            <predecessor elementType="junction" elementId="1"/>
            <successor elementType="junction" elementId="3"/>
        </link>
        <type s="0" type="town"/>
        <planView>
            <geometry s="0.00000000" x="93.60000000" y="110.40000000" hdg="1.57079633" length="89.60000000">
                <line/>
            </geometry>
        </planView>
        <elevationProfile>
            <elevation s="0" a="0.00" b="0" c="0" d="0"/>
        </elevationProfile>
        <lateralProfile/>
        <lanes>
            <laneSection s="0">
                <center>
                    <lane id="0" type="none" level="true">
                        <link/>
                        <roadMark sOffset="0" type="solid" weight="standard" color="standard" width="0.13"/>
                    </lane>
                </center>
                <right>
                    <lane id="-1" type="driving" level="true">
                        <link/>
                        <width sOffset="0" a="3.20" b="0" c="0" d="0"/>
                        <roadMark sOffset="0" type="broken" weight="standard" color="standard" width="0.13"/>
                        <speed sOffset="0" max="13.89"/>
                    </lane>
                    <lane id="-2" type="driving" level="true">
                        <link/>
                        <width sOffset="0" a="3.20" b="0" c="0" d="0"/>
                        <roadMark sOffset="0" type="solid" weight="standard" color="standard" width="0.13"/>
                        <speed sOffset="0" max="13.89"/>
                    </lane>
                 </right>
            </laneSection>
        </lanes>
        <objects/>
        <signals/>
        <userData code="sumoId" value="CN"/>
    </road>
    <road name="" length="89.60000000" id="52" junction="-1">
        <link>
            <predecessor elementType="junction" elementId="1"/>
            <successor elementType="junction" elementId="4"/>
        </link>
        <type s="0" type="town"/>
        <planView>
            <geometry s="0.00000000" x="106.40000000" y="89.60000000" hdg="-1.57079633" length="89.60000000">
                <line/>
            </geometry>
        </planView>
        <elevationProfile>
            <elevation s="0" a="0.00" b="0" c="0" d="0"/>
        </elevationProfile>
        <lateralProfile/>
        <lanes>
            <laneSection s="0">
                <center>
                    <lane id="0" type="none" level="true">
                        <link/>
                        <roadMark sOffset="0" type="solid" weight="standard" color="standard" width="0.13"/>
                    </lane>
                </center>
                <right>
                    <lane id="-1" type="driving" level="true">
                        <link/>
                        <width sOffset="0" a="3.20" b="0" c="0" d="0"/>
                        <roadMark sOffset="0" type="broken" weight="standard" color="standard" width="0.13"/>
                        <speed sOffset="0" max="13.89"/>
                    </lane>
                    <lane id="-2" type="driving" level="true">
                        <link/>
                        <width sOffset="0" a="3.20" b="0" c="0" d="0"/>
                        <roadMark sOffset="0" type="solid" weight="standard" color="standard" width="0.13"/>
                        <speed sOffset="0" max="13.89"/>
                    </lane>
                 </right>
            </laneSection>
        </lanes>
        <objects/>
        <signals/>
        <userData code="sumoId" value="CS"/>
    </road>
    <road name="" length="89.60000000" id="53" junction="-1">
        <link>
            <predecessor elementType="junction" elementId="1"/>
            <successor elementType="junction" elementId="5"/>
        </link>
        <type s="0" type="town"/>
        <planView>
            <geometry s="0.00000000" x="89.60000000" y="93.60000000" hdg="3.14159265" length="89.60000000">
                <line/>
            </geometry>
        </planView>
        <elevationProfile>
            <elevation s="0" a="0.00" b="0" c="0" d="0"/>
        </elevationProfile>
        <lateralProfile/>
        <lanes>
            <laneSection s="0">
                <center>
                    <lane id="0" type="none" level="true">
                        <link/>
                        <roadMark sOffset="0" type="solid" weight="standard" color="standard" width="0.13"/>
                    </lane>
                </center>
                <right>
                    <lane id="-1" type="driving" level="true">
                        <link/>
                        <width sOffset="0" a="3.20" b="0" c="0" d="0"/>
                        <roadMark sOffset="0" type="broken" weight="standard" color="standard" width="0.13"/>
                        <speed sOffset="0" max="13.89"/>
                    </lane>
                    <lane id="-2" type="driving" level="true">
                        <link/>
                        <width sOffset="0" a="3.20" b="0" c="0" d="0"/>
                        <roadMark sOffset="0" type="solid" weight="standard" color="standard" width="0.13"/>
                        <speed sOffset="0" max="13.89"/>
                    </lane>
                 </right>
            </laneSection>
        </lanes>
        <objects/>
        <signals/>
        <userData code="sumoId" value="CW"/>
    </road>
    <road name="" length="89.60000000" id="54" junction="-1">
        <link>
            <predecessor elementType="junction" elementId="2"/>
            <successor elementType="junction" elementId="1"/>
        </link>
        <type s="0" type="town"/>
        <planView>
            <geometry s="0.00000000" x="200.00000000" y="93.60000000" hdg="3.14159265" length="89.60000000">
                <line/>
            </geometry>
        </planView>
        <elevationProfile>
            <elevation s="0" a="0.00" b="0" c="0" d="0"/>
        </elevationProfile>
        <lateralProfile/>
        <lanes>
            <laneSection s="0">
                <center>
                    <lane id="0" type="none" level="true">
                        <link/>
                        <roadMark sOffset="0" type="solid" weight="standard" color="standard" width="0.13"/>
                    </lane>
                </center>
                <right>
                    <lane id="-1" type="driving" level="true">
                        <link/>
                        <width sOffset="0" a="3.20" b="0" c="0" d="0"/>
                        <roadMark sOffset="0" type="broken" weight="standard" color="standard" width="0.13"/>
                        <speed sOffset="0" max="13.89"/>
                    </lane>
                    <lane id="-2" type="driving" level="true">
                        <link/>
                        <width sOffset="0" a="3.20" b="0" c="0" d="0"/>
                        <roadMark sOffset="0" type="solid" weight="standard" color="standard" width="0.13"/>
                        <speed sOffset="0" max="13.89"/>
                    </lane>
                 </right>
            </laneSection>
        </lanes>
        <objects/>
        <signals>
            <signal id="C_5" s="89.60" t="-4.80" orientation="+" dynamic="yes" zOffset="5" country="OpenDRIVE" type="1000011" subtype="10" height="0.78" width="0.26">
                <validity fromLane="0" toLane="0"/>
            </signal>
            <signal id="C_6" s="89.60" t="-4.80" orientation="+" dynamic="yes" zOffset="5" country="OpenDRIVE" type="1000011" subtype="30" height="0.78" width="0.26">
                <validity fromLane="0" toLane="0"/>
            </signal>
            <signal id="C_7" s="89.60" t="-1.60" orientation="+" dynamic="yes" zOffset="5" country="OpenDRIVE" type="1000011" subtype="30" height="0.78" width="0.26">
                <validity fromLane="1" toLane="1"/>
            </signal>
            <signal id="C_8" s="89.60" t="-1.60" orientation="+" dynamic="yes" zOffset="5" country="OpenDRIVE" type="1000011" subtype="20" height="0.78" width="0.26">
                <validity fromLane="1" toLane="1"/>
            </signal>
            <signal id="C_9" s="89.60" t="-1.60" orientation="+" dynamic="yes" zOffset="5" country="OpenDRIVE" type="1000001" subtype="-1" height="0.78" width="0.26">
                <validity fromLane="1" toLane="1"/>
            </signal>
        </signals>
        <userData code="sumoId" value="EC"/>
    </road>
    <road name="" length="89.60000000" id="55" junction="-1">
        <link>
            <predecessor elementType="junction" elementId="3"/>
            <successor elementType="junction" elementId="1"/>
        </link>
        <type s="0" type="town"/>
        <planView>
            <geometry s="0.00000000" x="106.40000000" y="200.00000000" hdg="-1.57079633" length="89.60000000">
                <line/>
            </geometry>
        </planView>
        <elevationProfile>
            <elevation s="0" a="0.00" b="0" c="0" d="0"/>
        </elevationProfile>
        <lateralProfile/>
        <lanes>
            <laneSection s="0">
                <center>
                    <lane id="0" type="none" level="true">
                        <link/>
                        <roadMark sOffset="0" type="solid" weight="standard" color="standard" width="0.13"/>
                    </lane>
                </center>
                <right>
                    <lane id="-1" type="driving" level="true">
                        <link/>
                        <width sOffset="0" a="3.20" b="0" c="0" d="0"/>
                        <roadMark sOffset="0" type="broken" weight="standard" color="standard" width="0.13"/>
                        <speed sOffset="0" max="13.89"/>
                    </lane>
                    <lane id="-2" type="driving" level="true">
                        <link/>
                        <width sOffset="0" a="3.20" b="0" c="0" d="0"/>
                        <roadMark sOffset="0" type="solid" weight="standard" color="standard" width="0.13"/>
                        <speed sOffset="0" max="13.89"/>
                    </lane>
                 </right>
            </laneSection>
        </lanes>
        <objects/>
        <signals>
            <signal id="C_10" s="89.60" t="-4.80" orientation="+" dynamic="yes" zOffset="5" country="OpenDRIVE" type="1000011" subtype="10" height="0.78" width="0.26">
                <validity fromLane="0" toLane="0"/>
            </signal>
            <signal id="C_11" s="89.60" t="-4.80" orientation="+" dynamic="yes" zOffset="5" country="OpenDRIVE" type="1000011" subtype="30" height="0.78" width="0.26">
                <validity fromLane="0" toLane="0"/>
            </signal>
            <signal id="C_12" s="89.60" t="-1.60" orientation="+" dynamic="yes" zOffset="5" country="OpenDRIVE" type="1000011" subtype="30" height="0.78" width="0.26">
                <validity fromLane="1" toLane="1"/>
            </signal>
            <signal id="C_13" s="89.60" t="-1.60" orientation="+" dynamic="yes" zOffset="5" country="OpenDRIVE" type="1000011" subtype="20" height="0.78" width="0.26">
                <validity fromLane="1" toLane="1"/>
            </signal>
            <signal id="C_14" s="89.60" t="-1.60" orientation="+" dynamic="yes" zOffset="5" country="OpenDRIVE" type="1000001" subtype="-1" height="0.78" width="0.26">
                <validity fromLane="1" toLane="1"/>
            </signal>
        </signals>
        <userData code="sumoId" value="NC"/>
    </road>
    <road name="" length="89.60000000" id="56" junction="-1">
        <link>
            <predecessor elementType="junction" elementId="4"/>
            <successor elementType="junction" elementId="1"/>
        </link>
        <type s="0" type="town"/>
        <planView>
            <geometry s="0.00000000" x="93.60000000" y="0.00000000" hdg="1.57079633" length="89.60000000">
                <line/>
            </geometry>
        </planView>
        <elevationProfile>
            <elevation s="0" a="0.00" b="0" c="0" d="0"/>
        </elevationProfile>
        <lateralProfile/>
        <lanes>
            <laneSection s="0">
                <center>
                    <lane id="0" type="none" level="true">
                        <link/>
                        <roadMark sOffset="0" type="solid" weight="standard" color="standard" width="0.13"/>
                    </lane>
                </center>
                <right>
                    <lane id="-1" type="driving" level="true">
                        <link/>
                        <width sOffset="0" a="3.20" b="0" c="0" d="0"/>
                        <roadMark sOffset="0" type="broken" weight="standard" color="standard" width="0.13"/>
                        <speed sOffset="0" max="13.89"/>
                    </lane>
                    <lane id="-2" type="driving" level="true">
                        <link/>
                        <width sOffset="0" a="3.20" b="0" c="0" d="0"/>
                        <roadMark sOffset="0" type="solid" weight="standard" color="standard" width="0.13"/>
                        <speed sOffset="0" max="13.89"/>
                    </lane>
                 </right>
            </laneSection>
        </lanes>
        <objects/>
        <signals>
            <signal id="C_0" s="89.60" t="-4.80" orientation="+" dynamic="yes" zOffset="5" country="OpenDRIVE" type="1000011" subtype="10" height="0.78" width="0.26">
                <validity fromLane="0" toLane="0"/>
            </signal>
            <signal id="C_1" s="89.60" t="-4.80" orientation="+" dynamic="yes" zOffset="5" country="OpenDRIVE" type="1000011" subtype="30" height="0.78" width="0.26">
                <validity fromLane="0" toLane="0"/>
            </signal>
            <signal id="C_2" s="89.60" t="-1.60" orientation="+" dynamic="yes" zOffset="5" country="OpenDRIVE" type="1000011" subtype="30" height="0.78" width="0.26">
                <validity fromLane="1" toLane="1"/>
            </signal>
            <signal id="C_3" s="89.60" t="-1.60" orientation="+" dynamic="yes" zOffset="5" country="OpenDRIVE" type="1000011" subtype="20" height="0.78" width="0.26">
                <validity fromLane="1" toLane="1"/>
            </signal>
            <signal id="C_4" s="89.60" t="-1.60" orientation="+" dynamic="yes" zOffset="5" country="OpenDRIVE" type="1000001" subtype="-1" height="0.78" width="0.26">
                <validity fromLane="1" toLane="1"/>
            </signal>
        </signals>
        <userData code="sumoId" value="SC"/>
    </road>
    <road name="" length="89.60000000" id="57" junction="-1">
        <link>
            <predecessor elementType="junction" elementId="5"/>
            <successor elementType="junction" elementId="1"/>
        </link>
        <type s="0" type="town"/>
        <planView>
            <geometry s="0.00000000" x="0.00000000" y="106.40000000" hdg="0.00000000" length="89.60000000">
                <line/>
            </geometry>
        </planView>
        <elevationProfile>
            <elevation s="0" a="0.00" b="0" c="0" d="0"/>
        </elevationProfile>
        <lateralProfile/>
        <lanes>
            <laneSection s="0">
                <center>
                    <lane id="0" type="none" level="true">
                        <link/>
                        <roadMark sOffset="0" type="solid" weight="standard" color="standard" width="0.13"/>
                    </lane>
                </center>
                <right>
                    <lane id="-1" type="driving" level="true">
                        <link/>
                        <width sOffset="0" a="3.20" b="0" c="0" d="0"/>
                        <roadMark sOffset="0" type="broken" weight="standard" color="standard" width="0.13"/>
                        <speed sOffset="0" max="13.89"/>
                    </lane>
                    <lane id="-2" type="driving" level="true">
                        <link/>
                        <width sOffset="0" a="3.20" b="0" c="0" d="0"/>
                        <roadMark sOffset="0" type="solid" weight="standard" color="standard" width="0.13"/>
                        <speed sOffset="0" max="13.89"/>
                    </lane>
                 </right>
            </laneSection>
        </lanes>
        <objects/>
        <signals>
            <signal id="C_15" s="89.60" t="-4.80" orientation="+" dynamic="yes" zOffset="5" country="OpenDRIVE" type="1000011" subtype="10" height="0.78" width="0.26">
                <validity fromLane="0" toLane="0"/>
            </signal>
            <signal id="C_16" s="89.60" t="-4.80" orientation="+" dynamic="yes" zOffset="5" country="OpenDRIVE" type="1000011" subtype="30" height="0.78" width="0.26">
                <validity fromLane="0" toLane="0"/>
            </signal>
            <signal id="C_17" s="89.60" t="-1.60" orientation="+" dynamic="yes" zOffset="5" country="OpenDRIVE" type="1000011" subtype="30" height="0.78" width="0.26">
                <validity fromLane="1" toLane="1"/>
            </signal>
            <signal id="C_18" s="89.60" t="-1.60" orientation="+" dynamic="yes" zOffset="5" country="OpenDRIVE" type="1000011" subtype="20" height="0.78" width="0.26">
                <validity fromLane="1" toLane="1"/>
            </signal>
            <signal id="C_19" s="89.60" t="-1.60" orientation="+" dynamic="yes" zOffset="5" country="OpenDRIVE" type="1000001" subtype="-1" height="0.78" width="0.26">
                <validity fromLane="1" toLane="1"/>
            </signal>
        </signals>
        <userData code="sumoId" value="WC"/>
    </road>

    <road name=":C_15" length="6.48738734" id="58" junction="1">
        <link>
            <predecessor elementType="road" elementId="57" contactPoint="end"/>
            <successor elementType="road" elementId="51" contactPoint="start"/>
        </link>
        <type s="0" type="town"/>
        <planView>
            <geometry s="0.00000000" x="89.60000000" y="106.40000000" hdg="0.00000000" length="6.48738734">
                <paramPoly3 aU="0.00000000" bU="8.00000000" cU="-4.00000000" dU="0.00000000" aV="0.00000000" bV="0.00000000" cV="4.00000000" dV="0.00000000" pRange="normalized"/>
            </geometry>
        </planView>
        <elevationProfile>
            <elevation s="0" a="0.00" b="0" c="0" d="0"/>
        </elevationProfile>
        <lateralProfile/>
        <lanes>
            <laneSection s="0">
                <left>
                    <lane id="-1" type="driving" level="true">
                        <link>
                            <predecessor id="-1"/>
                            <successor id="-1"/>
                        </link>
                        <width sOffset="0" a="3.20" b="0" c="0" d="0"/>
                        <roadMark sOffset="0" type="solid" weight="standard" color="standard" width="0.13"/>
                        <speed sOffset="0" max="13.89"/>
                    </lane>
                 </left>
                <center>
                    <lane id="0" type="none" level="true">
                        <link/>
                        <roadMark sOffset="0" type="none" weight="standard" color="standard" width="0.00"/>
                    </lane>
                </center>
            </laneSection>
        </lanes>
        <objects/>
        <signals/>
    </road>
    <road name=":C_16" length="20.80000000" id="59" junction="1">
        <link>
            <predecessor elementType="road" elementId="57" contactPoint="end"/>
            <successor elementType="road" elementId="50" contactPoint="start"/>
        </link>
        <type s="0" type="town"/>
        <planView>
            <geometry s="0.00000000" x="89.60000000" y="106.40000000" hdg="0.00000000" length="20.80000000">
                <line/>
            </geometry>
        </planView>
        <elevationProfile>
            <elevation s="0" a="0.00" b="0" c="0" d="0"/>
        </elevationProfile>
        <lateralProfile/>
        <lanes>
            <laneSection s="0">
                <left>
                    <lane id="-1" type="driving" level="true">
                        <link>
                            <predecessor id="-1"/>
                            <successor id="-1"/>
                        </link>
                        <width sOffset="0" a="3.20" b="0" c="0" d="0"/>
                        <roadMark sOffset="0" type="broken" weight="standard" color="standard" width="0.13"/>
                        <speed sOffset="0" max="13.89"/>
                    </lane>
                    <lane id="-2" type="driving" level="true">
                        <link>
                            <predecessor id="-2"/>
                            <successor id="-2"/>
                        </link>
                        <width sOffset="0" a="3.20" b="0" c="0" d="0"/>
                        <roadMark sOffset="0" type="broken" weight="standard" color="standard" width="0.13"/>
                        <speed sOffset="0" max="13.89"/>
                    </lane>
                 </left>
                <center>
                    <lane id="0" type="none" level="true">
                        <link/>
                        <roadMark sOffset="0" type="none" weight="standard" color="standard" width="0.00"/>
                    </lane>
                </center>
            </laneSection>
        </lanes>
        <objects/>
        <signals/>
    </road>
    <road name=":C_18" length="22.05711695" id="60" junction="1">
        <link>
            <predecessor elementType="road" elementId="57" contactPoint="end"/>
            <successor elementType="road" elementId="52" contactPoint="start"/>
        </link>
        <type s="0" type="town"/>
        <planView>
            <geometry s="0.00000000" x="89.60000000" y="103.20000000" hdg="0.00000000" length="22.05711695">
                <paramPoly3 aU="0.00000000" bU="27.20000000" cU="-13.60000000" dU="0.00000000" aV="0.00000000" bV="0.00000000" cV="-13.60000000" dV="0.00000000" pRange="normalized"/>
            </geometry>
        </planView>
        <elevationProfile>
            <elevation s="0" a="0.00" b="0" c="0" d="0"/>
        </elevationProfile>
        <lateralProfile/>
        <lanes>
            <laneSection s="0">
                <left>
                    <lane id="-1" type="driving" level="true">
                        <link>
                            <predecessor id="-2"/>
                            <successor id="-2"/>
                        </link>
                        <width sOffset="0" a="3.20" b="0" c="0" d="0"/>
                        <roadMark sOffset="0" type="none" weight="standard" color="standard" width="0.13"/>
                        <speed sOffset="0" max="13.89"/>
                    </lane>
                 </left>
                <center>
                    <lane id="0" type="none" level="true">
                        <link/>
                        <roadMark sOffset="0" type="none" weight="standard" color="standard" width="0.00"/>
                    </lane>
                </center>
            </laneSection>
        </lanes>
        <objects/>
        <signals/>
    </road>
    <road name=":C_19" length="9.44945754" id="61" junction="1">
        <link>
            <predecessor elementType="road" elementId="57" contactPoint="end"/>
            <successor elementType="road" elementId="53" contactPoint="start"/>
        </link>
        <type s="0" type="town"/>
        <planView>
            <geometry s="0.00000000" x="89.60000000" y="103.20000000" hdg="-2.67794504" length="9.44945754">
                <paramPoly3 aU="-0.00000000" bU="14.31083506" cU="-11.44866804" dU="0.00000000" aV="0.00000000" bV="-0.00000000" cV="5.72433402" dV="0.00000000" pRange="normalized"/>
            </geometry>
        </planView>
        <elevationProfile>
            <elevation s="0" a="0.00" b="0" c="0" d="0"/>
        </elevationProfile>
        <lateralProfile/>
        <lanes>
            <laneSection s="0">
                <left>
                    <lane id="-1" type="driving" level="true">
                        <link>
                            <predecessor id="-2"/>
                            <successor id="-2"/>
                        </link>
                        <width sOffset="0" a="3.20" b="0" c="0" d="0"/>
                        <roadMark sOffset="0" type="none" weight="standard" color="standard" width="0.13"/>
                        <speed sOffset="0" max="13.89"/>
                    </lane>
                 </left>
                <center>
                    <lane id="0" type="none" level="true">
                        <link/>
                        <roadMark sOffset="0" type="none" weight="standard" color="standard" width="0.00"/>
                    </lane>
                </center>
            </laneSection>
        </lanes>
        <objects/>
        <signals/>
    </road>
    <road name=":C_10" length="6.48738734" id="62" junction="1">
        <link>
            <predecessor elementType="road" elementId="55" contactPoint="end"/>
            <successor elementType="road" elementId="50" contactPoint="start"/>
        </link>
        <type s="0" type="town"/>
        <planView>
            <geometry s="0.00000000" x="106.40000000" y="110.40000000" hdg="-1.57079633" length="6.48738734">
                <paramPoly3 aU="0.00000000" bU="8.00000000" cU="-4.00000000" dU="0.00000000" aV="0.00000000" bV="-0.00000000" cV="4.00000000" dV="0.00000000" pRange="normalized"/>
            </geometry>
        </planView>
        <elevationProfile>
            <elevation s="0" a="0.00" b="0" c="0" d="0"/>
        </elevationProfile>
        <lateralProfile/>
        <lanes>
            <laneSection s="0">
                <left>
                    <lane id="-1" type="driving" level="true">
                        <link>
                            <predecessor id="-1"/>
                            <successor id="-1"/>
                        </link>
                        <width sOffset="0" a="3.20" b="0" c="0" d="0"/>
                        <roadMark sOffset="0" type="solid" weight="standard" color="standard" width="0.13"/>
                        <speed sOffset="0" max="13.89"/>
                    </lane>