<?xml version="1.0" encoding="UTF-8"?>

<!-- generated on 2022-03-04 10:11:55 by Eclipse SUMO netedit Version v1_12_0+1137-e9106068858
-->

<additional xmlns:xsi="http://www.w3.org/2001/XMLSchema-instance" xsi:noNamespaceSchemaLocation="http://sumo.dlr.de/xsd/additional_file.xsd">
    <!-- Other additionals -->
    <rerouter id="rerouter_0" edges="gneE0 gneE1" pos="44.00,-4.60"/>
    <rerouter id="rerouter_3" edges="gneE0 gneE1" pos="40.00,-10.00"/>
</additional>
