<?xml version="1.0" encoding="UTF-8"?>

<!-- generated on 2024-12-02 16:00:20 by Eclipse SUMO sumo Version v1_14_1+16242-ac142271946
This data file and the accompanying materials
are made available under the terms of the Eclipse Public License v2.0
which accompanies this distribution, and is available at
http://www.eclipse.org/legal/epl-v20.html
This file may also be made available under the following Secondary
Licenses when the conditions for such availability set forth in the Eclipse
Public License 2.0 are satisfied: GNU General Public License, version 2
or later which is available at
https://www.gnu.org/licenses/old-licenses/gpl-2.0-standalone.html
SPDX-License-Identifier: EPL-2.0 OR GPL-2.0-or-later
<sumoConfiguration xmlns:xsi="http://www.w3.org/2001/XMLSchema-instance" xsi:noNamespaceSchemaLocation="http://sumo.dlr.de/xsd/sumoConfiguration.xsd">

    <input>
        <net-file value="net.net.xml"/>
        <route-files value="input_routes.rou.xml"/>
        <additional-files value="input_additional.add.xml"/>
    </input>

    <output>
        <write-license value="true"/>
        <battery-output value="battery.xml"/>
        <battery-output.precision value="4"/>
        <stop-output value="stopinfos.xml"/>
    </output>

    <processing>
        <default.speeddev value="0"/>
    </processing>

    <report>
        <xml-validation value="never"/>
        <duration-log.disable value="true"/>
        <no-step-log value="true"/>
    </report>

    <battery>
        <device.battery.probability value="1"/>
    </battery>

</sumoConfiguration>
-->

<battery-export xmlns:xsi="http://www.w3.org/2001/XMLSchema-instance" xsi:noNamespaceSchemaLocation="http://sumo.dlr.de/xsd/battery_file.xsd">
    <timestep time="0.00">
        <vehicle id="veh0" energyConsumed="0.0000" totalEnergyConsumed="0.0000" totalEnergyRegenerated="0.0000" actualBatteryCapacity="13000.0000" maximumBatteryCapacity="35000.0000" chargingStationId="NULL" energyCharged="0.0000" energyChargedInTransit="0.0000" energyChargedStopped="0.0000" speed="0.0000" acceleration="0.0000" x="-987.9000" y="995.0500" lane="D2_0" posOnLane="12.1000" timeStopped="0"/>
    </timestep>
    <timestep time="1.00">
        <vehicle id="veh0" energyConsumed="0.8418" totalEnergyConsumed="0.8418" totalEnergyRegenerated="0.0000" actualBatteryCapacity="12999.1582" maximumBatteryCapacity="35000.0000" chargingStationId="NULL" energyCharged="0.0000" energyChargedInTransit="0.0000" energyChargedStopped="0.0000" speed="1.0000" acceleration="1.0000" x="-986.9000" y="995.0500" lane="D2_0" posOnLane="13.1000" timeStopped="0"/>
    </timestep>
    <timestep time="2.00">
        <vehicle id="veh0" energyConsumed="1.9537" totalEnergyConsumed="2.7955" totalEnergyRegenerated="0.0000" actualBatteryCapacity="12997.2045" maximumBatteryCapacity="35000.0000" chargingStationId="NULL" energyCharged="0.0000" energyChargedInTransit="0.0000" energyChargedStopped="0.0000" speed="2.0000" acceleration="1.0000" x="-984.9000" y="995.0500" lane="D2_0" posOnLane="15.1000" timeStopped="0"/>
    </timestep>
    <timestep time="3.00">
        <vehicle id="veh0" energyConsumed="3.0674" totalEnergyConsumed="5.8629" totalEnergyRegenerated="0.0000" actualBatteryCapacity="12994.1371" maximumBatteryCapacity="35000.0000" chargingStationId="NULL" energyCharged="0.0000" energyChargedInTransit="0.0000" energyChargedStopped="0.0000" speed="3.0000" acceleration="1.0000" x="-981.9000" y="995.0500" lane="D2_0" posOnLane="18.1000" timeStopped="0"/>
    </timestep>
    <timestep time="4.00">
        <vehicle id="veh0" energyConsumed="4.1838" totalEnergyConsumed="10.0466" totalEnergyRegenerated="0.0000" actualBatteryCapacity="12989.9534" maximumBatteryCapacity="35000.0000" chargingStationId="NULL" energyCharged="0.0000" energyChargedInTransit="0.0000" energyChargedStopped="0.0000" speed="4.0000" acceleration="1.0000" x="-977.9000" y="995.0500" lane="D2_0" posOnLane="22.1000" timeStopped="0"/>
    </timestep>
    <timestep time="5.00">
        <vehicle id="veh0" energyConsumed="5.3038" totalEnergyConsumed="15.3505" totalEnergyRegenerated="0.0000" actualBatteryCapacity="12984.6495" maximumBatteryCapacity="35000.0000" chargingStationId="NULL" energyCharged="0.0000" energyChargedInTransit="0.0000" energyChargedStopped="0.0000" speed="5.0000" acceleration="1.0000" x="-972.9000" y="995.0500" lane="D2_0" posOnLane="27.1000" timeStopped="0"/>
    </timestep>
    <timestep time="6.00">
        <vehicle id="veh0" energyConsumed="6.4284" totalEnergyConsumed="21.7789" totalEnergyRegenerated="0.0000" actualBatteryCapacity="12978.2211" maximumBatteryCapacity="35000.0000" chargingStationId="NULL" energyCharged="0.0000" energyChargedInTransit="0.0000" energyChargedStopped="0.0000" speed="6.0000" acceleration="1.0000" x="-966.9000" y="995.0500" lane="D2_0" posOnLane="33.1000" timeStopped="0"/>
    </timestep>
    <timestep time="7.00">
        <vehicle id="veh0" energyConsumed="7.5585" totalEnergyConsumed="29.3373" totalEnergyRegenerated="0.0000" actualBatteryCapacity="12970.6627" maximumBatteryCapacity="35000.0000" chargingStationId="NULL" energyCharged="0.0000" energyChargedInTransit="0.0000" energyChargedStopped="0.0000" speed="7.0000" acceleration="1.0000" x="-959.9000" y="995.0500" lane="D2_0" posOnLane="40.1000" timeStopped="0"/>
    </timestep>
    <timestep time="8.00">
        <vehicle id="veh0" energyConsumed="8.6949" totalEnergyConsumed="38.0322" totalEnergyRegenerated="0.0000" actualBatteryCapacity="12961.9678" maximumBatteryCapacity="35000.0000" chargingStationId="NULL" energyCharged="0.0000" energyChargedInTransit="0.0000" energyChargedStopped="0.0000" speed="8.0000" acceleration="1.0000" x="-951.9000" y="995.0500" lane="D2_0" posOnLane="48.1000" timeStopped="0"/>
    </timestep>
    <timestep time="9.00">
        <vehicle id="veh0" energyConsumed="9.8386" totalEnergyConsumed="47.8708" totalEnergyRegenerated="0.0000" actualBatteryCapacity="12952.1292" maximumBatteryCapacity="35000.0000" chargingStationId="NULL" energyCharged="0.0000" energyChargedInTransit="0.0000" energyChargedStopped="0.0000" speed="9.0000" acceleration="1.0000" x="-942.9000" y="995.0500" lane="D2_0" posOnLane="57.1000" timeStopped="0"/>
    </timestep>
    <timestep time="10.00">
        <vehicle id="veh0" energyConsumed="10.9905" totalEnergyConsumed="58.8614" totalEnergyRegenerated="0.0000" actualBatteryCapacity="12941.1386" maximumBatteryCapacity="35000.0000" chargingStationId="NULL" energyCharged="0.0000" energyChargedInTransit="0.0000" energyChargedStopped="0.0000" speed="10.0000" acceleration="1.0000" x="-932.9000" y="995.0500" lane="D2_0" posOnLane="67.1000" timeStopped="0"/>
    </timestep>
    <timestep time="11.00">
        <vehicle id="veh0" energyConsumed="12.1516" totalEnergyConsumed="71.0129" totalEnergyRegenerated="0.0000" actualBatteryCapacity="12928.9871" maximumBatteryCapacity="35000.0000" chargingStationId="NULL" energyCharged="0.0000" energyChargedInTransit="0.0000" energyChargedStopped="0.0000" speed="11.0000" acceleration="1.0000" x="-921.9000" y="995.0500" lane="D2_0" posOnLane="78.1000" timeStopped="0"/>
    </timestep>
    <timestep time="12.00">
        <vehicle id="veh0" energyConsumed="13.3226" totalEnergyConsumed="84.3355" totalEnergyRegenerated="0.0000" actualBatteryCapacity="12915.6645" maximumBatteryCapacity="35000.0000" chargingStationId="NULL" energyCharged="0.0000" energyChargedInTransit="0.0000" energyChargedStopped="0.0000" speed="12.0000" acceleration="1.0000" x="-909.9000" y="995.0500" lane="D2_0" posOnLane="90.1000" timeStopped="0"/>
    </timestep>
    <timestep time="13.00">
        <vehicle id="veh0" energyConsumed="14.5046" totalEnergyConsumed="98.8401" totalEnergyRegenerated="0.0000" actualBatteryCapacity="12901.1599" maximumBatteryCapacity="35000.0000" chargingStationId="NULL" energyCharged="0.0000" energyChargedInTransit="0.0000" energyChargedStopped="0.0000" speed="13.0000" acceleration="1.0000" x="-896.9000" y="995.0500" lane="D2_0" posOnLane="103.1000" timeStopped="0"/>
    </timestep>
    <timestep time="14.00">
        <vehicle id="veh0" energyConsumed="-6.2980" totalEnergyConsumed="98.8401" totalEnergyRegenerated="6.2980" actualBatteryCapacity="12907.4580" maximumBatteryCapacity="35000.0000" chargingStationId="NULL" energyCharged="0.0000" energyChargedInTransit="0.0000" energyChargedStopped="0.0000" speed="10.6330" acceleration="-2.3670" x="-886.2670" y="995.0500" lane="D2_0" posOnLane="113.7330" timeStopped="0"/>
    </timestep>
    <timestep time="15.00">
        <vehicle id="veh0" energyConsumed="-12.7394" totalEnergyConsumed="98.8401" totalEnergyRegenerated="19.0374" actualBatteryCapacity="12920.1974" maximumBatteryCapacity="35000.0000" chargingStationId="NULL" energyCharged="0.0000" energyChargedInTransit="0.0000" energyChargedStopped="0.0000" speed="5.6330" acceleration="-5.0000" x="-880.6340" y="995.0500" lane="D2_0" posOnLane="119.3660" timeStopped="0"/>
    </timestep>
    <timestep time="16.00">
        <vehicle id="veh0" energyConsumed="-5.4446" totalEnergyConsumed="98.8401" totalEnergyRegenerated="24.4820" actualBatteryCapacity="12925.6420" maximumBatteryCapacity="35000.0000" chargingStationId="NULL" energyCharged="0.0000" energyChargedInTransit="0.0000" energyChargedStopped="0.0000" speed="0.6330" acceleration="-5.0000" x="-880.0010" y="995.0500" lane="D2_0" posOnLane="119.9990" timeStopped="0"/>
    </timestep>
    <timestep time="17.00">
        <vehicle id="veh0" energyConsumed="-0.0637" totalEnergyConsumed="98.8401" totalEnergyRegenerated="24.5457" actualBatteryCapacity="12928.4557" maximumBatteryCapacity="35000.0000" chargingStationId="CS2" energyCharged="2.7500" energyChargedInTransit="0.0000" energyChargedStopped="2.7500" speed="0.0000" acceleration="-0.6330" x="-890.0000" y="976.0000" lane="D2_0" posOnLane="119.9990" timeStopped="1"/>
    </timestep>
    <timestep time="18.00">
        <vehicle id="veh0" energyConsumed="0.0000" totalEnergyConsumed="98.8401" totalEnergyRegenerated="24.5457" actualBatteryCapacity="12931.2057" maximumBatteryCapacity="35000.0000" chargingStationId="CS2" energyCharged="2.7500" energyChargedInTransit="0.0000" energyChargedStopped="2.7500" speed="0.0000" acceleration="0.0000" x="-890.0000" y="976.0000" lane="D2_0" posOnLane="119.9990" timeStopped="2"/>
    </timestep>
    <timestep time="19.00">
        <vehicle id="veh0" energyConsumed="0.0000" totalEnergyConsumed="98.8401" totalEnergyRegenerated="24.5457" actualBatteryCapacity="12933.9557" maximumBatteryCapacity="35000.0000" chargingStationId="CS2" energyCharged="2.7500" energyChargedInTransit="0.0000" energyChargedStopped="2.7500" speed="0.0000" acceleration="0.0000" x="-890.0000" y="976.0000" lane="D2_0" posOnLane="119.9990" timeStopped="3"/>
    </timestep>
    <timestep time="20.00">
        <vehicle id="veh0" energyConsumed="0.0000" totalEnergyConsumed="98.8401" totalEnergyRegenerated="24.5457" actualBatteryCapacity="12936.7057" maximumBatteryCapacity="35000.0000" chargingStationId="CS2" energyCharged="2.7500" energyChargedInTransit="0.0000" energyChargedStopped="2.7500" speed="0.0000" acceleration="0.0000" x="-890.0000" y="976.0000" lane="D2_0" posOnLane="119.9990" timeStopped="4"/>
    </timestep>
    <timestep time="21.00">
        <vehicle id="veh0" energyConsumed="0.0000" totalEnergyConsumed="98.8401" totalEnergyRegenerated="24.5457" actualBatteryCapacity="12939.4557" maximumBatteryCapacity="35000.0000" chargingStationId="CS2" energyCharged="2.7500" energyChargedInTransit="0.0000" energyChargedStopped="2.7500" speed="0.0000" acceleration="0.0000" x="-890.0000" y="976.0000" lane="D2_0" posOnLane="119.9990" timeStopped="5"/>
    </timestep>
    <timestep time="22.00">
        <vehicle id="veh0" energyConsumed="0.0000" totalEnergyConsumed="98.8401" totalEnergyRegenerated="24.5457" actualBatteryCapacity="12942.2057" maximumBatteryCapacity="35000.0000" chargingStationId="CS2" energyCharged="2.7500" energyChargedInTransit="0.0000" energyChargedStopped="2.7500" speed="0.0000" acceleration="0.0000" x="-890.0000" y="976.0000" lane="D2_0" posOnLane="119.9990" timeStopped="6"/>
    </timestep>
    <timestep time="23.00">
        <vehicle id="veh0" energyConsumed="0.0000" totalEnergyConsumed="98.8401" totalEnergyRegenerated="24.5457" actualBatteryCapacity="12944.9557" maximumBatteryCapacity="35000.0000" chargingStationId="CS2" energyCharged="2.7500" energyChargedInTransit="0.0000" energyChargedStopped="2.7500" speed="0.0000" acceleration="0.0000" x="-890.0000" y="976.0000" lane="D2_0" posOnLane="119.9990" timeStopped="7"/>
    </timestep>
    <timestep time="24.00">
        <vehicle id="veh0" energyConsumed="0.0000" totalEnergyConsumed="98.8401" totalEnergyRegenerated="24.5457" actualBatteryCapacity="12947.7057" maximumBatteryCapacity="35000.0000" chargingStationId="CS2" energyCharged="2.7500" energyChargedInTransit="0.0000" energyChargedStopped="2.7500" speed="0.0000" acceleration="0.0000" x="-890.0000" y="976.0000" lane="D2_0" posOnLane="120.0000" timeStopped="8"/>
    </timestep>
    <timestep time="25.00">
        <vehicle id="veh0" energyConsumed="0.8418" totalEnergyConsumed="99.6819" totalEnergyRegenerated="24.5457" actualBatteryCapacity="12946.8638" maximumBatteryCapacity="35000.0000" chargingStationId="NULL" energyCharged="0.0000" energyChargedInTransit="0.0000" energyChargedStopped="0.0000" speed="1.0000" acceleration="1.0000" x="-879.0000" y="998.3500" lane="D2_1" posOnLane="121.0000" timeStopped="0"/>
    </timestep>
    <timestep time="26.00">
        <vehicle id="veh0" energyConsumed="1.9537" totalEnergyConsumed="101.6356" totalEnergyRegenerated="24.5457" actualBatteryCapacity="12944.9101" maximumBatteryCapacity="35000.0000" chargingStationId="NULL" energyCharged="0.0000" energyChargedInTransit="0.0000" energyChargedStopped="0.0000" speed="2.0000" acceleration="1.0000" x="-877.0000" y="998.3500" lane="D2_1" posOnLane="123.0000" timeStopped="0"/>
    </timestep>
    <timestep time="27.00">
        <vehicle id="veh0" energyConsumed="3.0674" totalEnergyConsumed="104.7029" totalEnergyRegenerated="24.5457" actualBatteryCapacity="12941.8428" maximumBatteryCapacity="35000.0000" chargingStationId="NULL" energyCharged="0.0000" energyChargedInTransit="0.0000" energyChargedStopped="0.0000" speed="3.0000" acceleration="1.0000" x="-874.0000" y="998.3500" lane="D2_1" posOnLane="126.0000" timeStopped="0"/>
    </timestep>
    <timestep time="28.00">
        <vehicle id="veh0" energyConsumed="4.1838" totalEnergyConsumed="108.8867" totalEnergyRegenerated="24.5457" actualBatteryCapacity="12937.6590" maximumBatteryCapacity="35000.0000" chargingStationId="NULL" energyCharged="0.0000" energyChargedInTransit="0.0000" energyChargedStopped="0.0000" speed="4.0000" acceleration="1.0000" x="-870.0000" y="998.3500" lane="D2_1" posOnLane="130.0000" timeStopped="0"/>
    </timestep>
    <timestep time="29.00">
        <vehicle id="veh0" energyConsumed="5.3038" totalEnergyConsumed="114.1905" totalEnergyRegenerated="24.5457" actualBatteryCapacity="12932.3552" maximumBatteryCapacity="35000.0000" chargingStationId="NULL" energyCharged="0.0000" energyChargedInTransit="0.0000" energyChargedStopped="0.0000" speed="5.0000" acceleration="1.0000" x="-865.0000" y="998.3500" lane="D2_1" posOnLane="135.0000" timeStopped="0"/>
    </timestep>
    <timestep time="30.00">
        <vehicle id="veh0" energyConsumed="6.4284" totalEnergyConsumed="120.6189" totalEnergyRegenerated="24.5457" actualBatteryCapacity="12925.9268" maximumBatteryCapacity="35000.0000" chargingStationId="NULL" energyCharged="0.0000" energyChargedInTransit="0.0000" energyChargedStopped="0.0000" speed="6.0000" acceleration="1.0000" x="-859.0000" y="998.3500" lane="D2_1" posOnLane="141.0000" timeStopped="0"/>
    </timestep>
    <timestep time="31.00">
        <vehicle id="veh0" energyConsumed="7.5585" totalEnergyConsumed="128.1774" totalEnergyRegenerated="24.5457" actualBatteryCapacity="12918.3683" maximumBatteryCapacity="35000.0000" chargingStationId="NULL" energyCharged="0.0000" energyChargedInTransit="0.0000" energyChargedStopped="0.0000" speed="7.0000" acceleration="1.0000" x="-852.0000" y="998.3500" lane="D2_1" posOnLane="148.0000" timeStopped="0"/>
    </timestep>
    <timestep time="32.00">
        <vehicle id="veh0" energyConsumed="8.6949" totalEnergyConsumed="136.8723" totalEnergyRegenerated="24.5457" actualBatteryCapacity="12909.6734" maximumBatteryCapacity="35000.0000" chargingStationId="NULL" energyCharged="0.0000" energyChargedInTransit="0.0000" energyChargedStopped="0.0000" speed="8.0000" acceleration="1.0000" x="-844.0000" y="998.3500" lane="D2_1" posOnLane="156.0000" timeStopped="0"/>
    </timestep>
    <timestep time="33.00">
        <vehicle id="veh0" energyConsumed="9.8386" totalEnergyConsumed="146.7109" totalEnergyRegenerated="24.5457" actualBatteryCapacity="12899.8348" maximumBatteryCapacity="35000.0000" chargingStationId="NULL" energyCharged="0.0000" energyChargedInTransit="0.0000" energyChargedStopped="0.0000" speed="9.0000" acceleration="1.0000" x="-835.0000" y="998.3500" lane="D2_1" posOnLane="165.0000" timeStopped="0"/>
    </timestep>
    <timestep time="34.00">
        <vehicle id="veh0" energyConsumed="10.9905" totalEnergyConsumed="157.7014" totalEnergyRegenerated="24.5457" actualBatteryCapacity="12888.8443" maximumBatteryCapacity="35000.0000" chargingStationId="NULL" energyCharged="0.0000" energyChargedInTransit="0.0000" energyChargedStopped="0.0000" speed="10.0000" acceleration="1.0000" x="-825.0000" y="998.3500" lane="D2_1" posOnLane="175.0000" timeStopped="0"/>
    </timestep>
    <timestep time="35.00">
        <vehicle id="veh0" energyConsumed="12.1516" totalEnergyConsumed="169.8530" totalEnergyRegenerated="24.5457" actualBatteryCapacity="12876.6927" maximumBatteryCapacity="35000.0000" chargingStationId="NULL" energyCharged="0.0000" energyChargedInTransit="0.0000" energyChargedStopped="0.0000" speed="11.0000" acceleration="1.0000" x="-814.0000" y="998.3500" lane="D2_1" posOnLane="186.0000" timeStopped="0"/>
    </timestep>
    <timestep time="36.00">
        <vehicle id="veh0" energyConsumed="13.3226" totalEnergyConsumed="183.1756" totalEnergyRegenerated="24.5457" actualBatteryCapacity="12863.3702" maximumBatteryCapacity="35000.0000" chargingStationId="NULL" energyCharged="0.0000" energyChargedInTransit="0.0000" energyChargedStopped="0.0000" speed="12.0000" acceleration="1.0000" x="-802.0000" y="998.3500" lane="D2_1" posOnLane="198.0000" timeStopped="0"/>
    </timestep>
    <timestep time="37.00">
        <vehicle id="veh0" energyConsumed="14.5046" totalEnergyConsumed="197.6801" totalEnergyRegenerated="24.5457" actualBatteryCapacity="12848.8656" maximumBatteryCapacity="35000.0000" chargingStationId="CS4" energyCharged="0.0000" energyChargedInTransit="0.0000" energyChargedStopped="0.0000" speed="13.0000" acceleration="1.0000" x="-789.0000" y="998.3500" lane="D2_1" posOnLane="211.0000" timeStopped="0"/>
    </timestep>
    <timestep time="38.00">
        <vehicle id="veh0" energyConsumed="14.7605" totalEnergyConsumed="212.4406" totalEnergyRegenerated="24.5457" actualBatteryCapacity="12834.1051" maximumBatteryCapacity="35000.0000" chargingStationId="NULL" energyCharged="0.0000" energyChargedInTransit="0.0000" energyChargedStopped="0.0000" speed="13.8900" acceleration="0.8900" x="-775.1100" y="998.3500" lane="D2_1" posOnLane="224.8900" timeStopped="0"/>
    </timestep>
    <timestep time="39.00">
        <vehicle id="veh0" energyConsumed="7.9881" totalEnergyConsumed="220.4287" totalEnergyRegenerated="24.5457" actualBatteryCapacity="12826.1170" maximumBatteryCapacity="35000.0000" chargingStationId="NULL" energyCharged="0.0000" energyChargedInTransit="0.0000" energyChargedStopped="0.0000" speed="13.8900" acceleration="0.0000" x="-761.2200" y="998.3500" lane="D2_1" posOnLane="238.7800" timeStopped="0"/>
    </timestep>
    <timestep time="40.00">
        <vehicle id="veh0" energyConsumed="7.9881" totalEnergyConsumed="228.4167" totalEnergyRegenerated="24.5457" actualBatteryCapacity="12818.1290" maximumBatteryCapacity="35000.0000" chargingStationId="NULL" energyCharged="0.0000" energyChargedInTransit="0.0000" energyChargedStopped="0.0000" speed="13.8900" acceleration="0.0000" x="-747.3300" y="998.3500" lane="D2_1" posOnLane="252.6700" timeStopped="0"/>
    </timestep>
    <timestep time="41.00">
        <vehicle id="veh0" energyConsumed="7.9881" totalEnergyConsumed="236.4048" totalEnergyRegenerated="24.5457" actualBatteryCapacity="12810.1409" maximumBatteryCapacity="35000.0000" chargingStationId="NULL" energyCharged="0.0000" energyChargedInTransit="0.0000" energyChargedStopped="0.0000" speed="13.8900" acceleration="0.0000" x="-733.4400" y="998.3500" lane="D2_1" posOnLane="266.5600" timeStopped="0"/>
    </timestep>
    <timestep time="42.00">
        <vehicle id="veh0" energyConsumed="7.9881" totalEnergyConsumed="244.3929" totalEnergyRegenerated="24.5457" actualBatteryCapacity="12802.1528" maximumBatteryCapacity="35000.0000" chargingStationId="NULL" energyCharged="0.0000" energyChargedInTransit="0.0000" energyChargedStopped="0.0000" speed="13.8900" acceleration="0.0000" x="-719.5500" y="998.3500" lane="D2_1" posOnLane="280.4500" timeStopped="0"/>
    </timestep>
    <timestep time="43.00">
        <vehicle id="veh0" energyConsumed="7.9881" totalEnergyConsumed="252.3809" totalEnergyRegenerated="24.5457" actualBatteryCapacity="12794.1648" maximumBatteryCapacity="35000.0000" chargingStationId="NULL" energyCharged="0.0000" energyChargedInTransit="0.0000" energyChargedStopped="0.0000" speed="13.8900" acceleration="0.0000" x="-705.6600" y="998.3500" lane="D2_1" posOnLane="294.3400" timeStopped="0"/>
    </timestep>
    <timestep time="44.00">
        <vehicle id="veh0" energyConsumed="5.1612" totalEnergyConsumed="257.5421" totalEnergyRegenerated="24.5457" actualBatteryCapacity="12789.0036" maximumBatteryCapacity="35000.0000" chargingStationId="NULL" energyCharged="0.0000" energyChargedInTransit="0.0000" energyChargedStopped="0.0000" speed="13.5533" acceleration="-0.3367" x="-692.1067" y="998.3500" lane="D2_1" posOnLane="307.8933" timeStopped="0"/>
    </timestep>
    <timestep time="45.00">
        <vehicle id="veh0" energyConsumed="-16.9668" totalEnergyConsumed="257.5421" totalEnergyRegenerated="41.5125" actualBatteryCapacity="12805.9703" maximumBatteryCapacity="35000.0000" chargingStationId="NULL" energyCharged="0.0000" energyChargedInTransit="0.0000" energyChargedStopped="0.0000" speed="8.5533" acceleration="-5.0000" x="-683.5533" y="998.3500" lane="D2_1" posOnLane="316.4467" timeStopped="0"/>
    </timestep>
    <timestep time="46.00">
        <vehicle id="veh0" energyConsumed="-9.7110" totalEnergyConsumed="257.5421" totalEnergyRegenerated="51.2235" actualBatteryCapacity="12815.6814" maximumBatteryCapacity="35000.0000" chargingStationId="NULL" energyCharged="0.0000" energyChargedInTransit="0.0000" energyChargedStopped="0.0000" speed="3.5533" acceleration="-5.0000" x="-680.0000" y="998.3500" lane="D2_1" posOnLane="320.0000" timeStopped="0"/>
    </timestep>
    <timestep time="47.00">
        <vehicle id="veh0" energyConsumed="-2.2779" totalEnergyConsumed="257.5421" totalEnergyRegenerated="53.5014" actualBatteryCapacity="12817.9592" maximumBatteryCapacity="35000.0000" chargingStationId="NULL" energyCharged="0.0000" energyChargedInTransit="0.0000" energyChargedStopped="0.0000" speed="0.0000" acceleration="-3.5533" x="-680.0000" y="998.3500" lane="D2_1" posOnLane="320.0000" timeStopped="1"/>
    </timestep>
    <timestep time="48.00">
        <vehicle id="veh0" energyConsumed="0.0139" totalEnergyConsumed="257.5560" totalEnergyRegenerated="53.5014" actualBatteryCapacity="12817.9453" maximumBatteryCapacity="35000.0000" chargingStationId="NULL" energyCharged="0.0000" energyChargedInTransit="0.0000" energyChargedStopped="0.0000" speed="0.0000" acceleration="0.0000" x="-680.0000" y="998.3500" lane="D2_1" posOnLane="320.0000" timeStopped="2"/>
    </timestep>
    <timestep time="49.00">
        <vehicle id="veh0" energyConsumed="0.0139" totalEnergyConsumed="257.5699" totalEnergyRegenerated="53.5014" actualBatteryCapacity="12817.9314" maximumBatteryCapacity="35000.0000" chargingStationId="NULL" energyCharged="0.0000" energyChargedInTransit="0.0000" energyChargedStopped="0.0000" speed="0.0000" acceleration="0.0000" x="-680.0000" y="998.3500" lane="D2_1" posOnLane="320.0000" timeStopped="3"/>
    </timestep>
    <timestep time="50.00">
        <vehicle id="veh0" energyConsumed="0.0139" totalEnergyConsumed="257.5838" totalEnergyRegenerated="53.5014" actualBatteryCapacity="12817.9176" maximumBatteryCapacity="35000.0000" chargingStationId="NULL" energyCharged="0.0000" energyChargedInTransit="0.0000" energyChargedStopped="0.0000" speed="0.0000" acceleration="0.0000" x="-680.0000" y="998.3500" lane="D2_1" posOnLane="320.0000" timeStopped="4"/>
    </timestep>
    <timestep time="51.00">
        <vehicle id="veh0" energyConsumed="0.0139" totalEnergyConsumed="257.5977" totalEnergyRegenerated="53.5014" actualBatteryCapacity="12817.9037" maximumBatteryCapacity="35000.0000" chargingStationId="NULL" energyCharged="0.0000" energyChargedInTransit="0.0000" energyChargedStopped="0.0000" speed="0.0000" acceleration="0.0000" x="-680.0000" y="998.3500" lane="D2_1" posOnLane="320.0000" timeStopped="5"/>
    </timestep>
    <timestep time="52.00">
        <vehicle id="veh0" energyConsumed="0.0139" totalEnergyConsumed="257.6116" totalEnergyRegenerated="53.5014" actualBatteryCapacity="12817.8898" maximumBatteryCapacity="35000.0000" chargingStationId="NULL" energyCharged="0.0000" energyChargedInTransit="0.0000" energyChargedStopped="0.0000" speed="0.0000" acceleration="0.0000" x="-680.0000" y="998.3500" lane="D2_1" posOnLane="320.0000" timeStopped="6"/>
    </timestep>
    <timestep time="53.00">
        <vehicle id="veh0" energyConsumed="0.0139" totalEnergyConsumed="257.6255" totalEnergyRegenerated="53.5014" actualBatteryCapacity="12817.8759" maximumBatteryCapacity="35000.0000" chargingStationId="NULL" energyCharged="0.0000" energyChargedInTransit="0.0000" energyChargedStopped="0.0000" speed="0.0000" acceleration="0.0000" x="-680.0000" y="998.3500" lane="D2_1" posOnLane="320.0000" timeStopped="7"/>
    </timestep>
    <timestep time="54.00">
        <vehicle id="veh0" energyConsumed="0.0139" totalEnergyConsumed="257.6394" totalEnergyRegenerated="53.5014" actualBatteryCapacity="12817.8620" maximumBatteryCapacity="35000.0000" chargingStationId="NULL" energyCharged="0.0000" energyChargedInTransit="0.0000" energyChargedStopped="0.0000" speed="0.0000" acceleration="0.0000" x="-680.0000" y="998.3500" lane="D2_1" posOnLane="320.0000" timeStopped="8"/>
    </timestep>
    <timestep time="55.00">
        <vehicle id="veh0" energyConsumed="0.0139" totalEnergyConsumed="257.6532" totalEnergyRegenerated="53.5014" actualBatteryCapacity="12817.8481" maximumBatteryCapacity="35000.0000" chargingStationId="NULL" energyCharged="0.0000" energyChargedInTransit="0.0000" energyChargedStopped="0.0000" speed="0.0000" acceleration="0.0000" x="-680.0000" y="998.3500" lane="D2_1" posOnLane="320.0000" timeStopped="9"/>
    </timestep>
    <timestep time="56.00">
        <vehicle id="veh0" energyConsumed="0.0139" totalEnergyConsumed="257.6671" totalEnergyRegenerated="53.5014" actualBatteryCapacity="12817.8342" maximumBatteryCapacity="35000.0000" chargingStationId="NULL" energyCharged="0.0000" energyChargedInTransit="0.0000" energyChargedStopped="0.0000" speed="0.0000" acceleration="0.0000" x="-680.0000" y="998.3500" lane="D2_1" posOnLane="320.0000" timeStopped="10"/>
    </timestep>
    <timestep time="57.00">
        <vehicle id="veh0" energyConsumed="0.0139" totalEnergyConsumed="257.6810" totalEnergyRegenerated="53.5014" actualBatteryCapacity="12817.8203" maximumBatteryCapacity="35000.0000" chargingStationId="NULL" energyCharged="0.0000" energyChargedInTransit="0.0000" energyChargedStopped="0.0000" speed="0.0000" acceleration="0.0000" x="-680.0000" y="998.3500" lane="D2_1" posOnLane="320.0000" timeStopped="11"/>
    </timestep>
    <timestep time="58.00">
        <vehicle id="veh0" energyConsumed="0.8418" totalEnergyConsumed="258.5229" totalEnergyRegenerated="53.5014" actualBatteryCapacity="12816.9785" maximumBatteryCapacity="35000.0000" chargingStationId="NULL" energyCharged="0.0000" energyChargedInTransit="0.0000" energyChargedStopped="0.0000" speed="1.0000" acceleration="1.0000" x="-679.0000" y="998.3500" lane="D2_1" posOnLane="321.0000" timeStopped="0"/>
    </timestep>
    <timestep time="59.00">
        <vehicle id="veh0" energyConsumed="1.9537" totalEnergyConsumed="260.4765" totalEnergyRegenerated="53.5014" actualBatteryCapacity="12815.0248" maximumBatteryCapacity="35000.0000" chargingStationId="NULL" energyCharged="0.0000" energyChargedInTransit="0.0000" energyChargedStopped="0.0000" speed="2.0000" acceleration="1.0000" x="-677.0000" y="995.0500" lane="D2_0" posOnLane="323.0000" timeStopped="0"/>
    </timestep>
    <timestep time="60.00">
        <vehicle id="veh0" energyConsumed="3.0674" totalEnergyConsumed="263.5439" totalEnergyRegenerated="53.5014" actualBatteryCapacity="12811.9574" maximumBatteryCapacity="35000.0000" chargingStationId="NULL" energyCharged="0.0000" energyChargedInTransit="0.0000" energyChargedStopped="0.0000" speed="3.0000" acceleration="1.0000" x="-674.0000" y="995.0500" lane="D2_0" posOnLane="326.0000" timeStopped="0"/>
    </timestep>
    <timestep time="61.00">
        <vehicle id="veh0" energyConsumed="4.1838" totalEnergyConsumed="267.7277" totalEnergyRegenerated="53.5014" actualBatteryCapacity="12807.7737" maximumBatteryCapacity="35000.0000" chargingStationId="NULL" energyCharged="0.0000" energyChargedInTransit="0.0000" energyChargedStopped="0.0000" speed="4.0000" acceleration="1.0000" x="-670.0000" y="995.0500" lane="D2_0" posOnLane="330.0000" timeStopped="0"/>
    </timestep>
    <timestep time="62.00">