<?xml version="1.0" encoding="UTF-8"?>

<!-- generated on 2024-12-18 15:41:49 by Eclipse SUMO netedit Version v1_21_0+1443-eacf6376ad0
-->

<routes xmlns:xsi="http://www.w3.org/2001/XMLSchema-instance" xsi:noNamespaceSchemaLocation="http://sumo.dlr.de/xsd/routes_file.xsd">
    <!-- VTypes -->
    <vType id="t_0" lcSigma="1.0" speedDev="0.5"/>
    <route id="r_0" edges="E0"/>
    <!-- Vehicles, persons and containers (sorted by depart) -->
    <flow id="f_0" type="t_0" begin="0.00" route="r_0" departLane="0" arrivalLane="1" departSpeed="avg" end="3600.00" period="exp(0.25)"/>
    <flow id="f_1" type="t_0" begin="0.00" route="r_0" departLane="1" arrivalLane="0" departSpeed="avg" end="3600.00" period="exp(0.25)"/>
</routes>
