<routes xmlns:xsi="http://www.w3.org/2001/XMLSchema-instance" xsi:noNamespaceSchemaLocation="http://sumo.dlr.de/xsd/routes_file.xsd">
   <vType id="DEFAULT_VEHTYPE" sigma="0"/>
    <vehicle id="v1_triggered" depart="0" departPos="0">
        <route edges="beg beg2left left left2end end">
            <stop lane="beg_0" endPos="50" triggered="true"/>
        </route>
    </vehicle>
    <vehicle id="v2_following" depart="10" departPos="0">
        <route edges="beg beg2left left left2end end">
        </route>
    </vehicle>
</routes>
