<additional xmlns:xsi="http://www.w3.org/2001/XMLSchema-instance" xsi:noNamespaceSchemaLocation="http://sumo.dlr.de/xsd/additional_file.xsd">
    <routeProbe id="RouteProbeA" edge="EdgeCenter0" period="3600" file="RouteProbeA.xml" begin="0.00"/>
    <routeProbe id="customRouteProbeName" edge="EdgeCenter0" period="3600" file="RouteProbeB.xml" begin="0.00"/>

    <!-- calibrator A -->
    <calibrator id="calibratorA" edge="Edge0" pos="1" period="30" name="NameA" routeProbe="RouteProbeA" output="fileA.txt">
        <param key="KeyA1" value="valueA1"/>
        <param key="KeyA3" value="valueA2"/>
        <param key="KeyA2" value="valueA3"/>
    </calibrator>
</additional>
