<flowdefs>

	<interval begin="0" end="200">
		<flow id="0" from="beg" to="rend" no="10"/>
	</interval>

</flowdefs>
