<additional xmlns:xsi="http://www.w3.org/2001/XMLSchema-instance" xsi:noNamespaceSchemaLocation="http://sumo.dlr.de/xsd/additional_file.xsd">

    <!-- Without problem -->
    <routeProbe id="routeProbe_0" edge="center1" period="100.00" file="routeProbe_0.txt" begin="0.00"/>

</additional>
