<?xml version="1.0" encoding="UTF-8"?>

<!-- generated on 2024-10-17 10:50:05 by Eclipse SUMO sumo Version v1_21_0+0407-08724d0e971
<sumoConfiguration xmlns:xsi="http://www.w3.org/2001/XMLSchema-instance" xsi:noNamespaceSchemaLocation="http://sumo.dlr.de/xsd/sumoConfiguration.xsd">

    <input>
        <net-file value="net.net.xml"/>
        <route-files value="input_routes.rou.xml"/>
        <additional-files value="input_additional.add.xml,input_additional2.add.xml"/>
    </input>

    <output>
        <tripinfo-output value="tripinfo.xml"/>
        <save-state.times value="10,60"/>
        <save-state.files value="state2.xml,state.xml"/>
    </output>

    <processing>
        <default.speeddev value="0"/>
    </processing>

    <report>
        <verbose value="true"/>
        <duration-log.disable value="true"/>
        <no-step-log value="true"/>
    </report>

</sumoConfiguration>
-->

<snapshot xmlns:xsi="http://www.w3.org/2001/XMLSchema-instance" xsi:noNamespaceSchemaLocation="http://sumo.dlr.de/xsd/state_file.xsd" version="v1_21_0+0407-08724d0e971" time="60.00" type="micro" rail="1">
    <route id="!t0!var#1" state="0" edges="a b c"/>
    <route id="!t1!var#1" state="0" edges="d e c"/>
    <delay number="2" begin="3" end="1" depart="9.00" time="36.00"/>
    <vType id="train" length="50.00" vClass="rail"/>
    <vehicle id="t0" type="train" depart="0.00" departSpeed="max" route="!t0!var#1" distance="0 1" speedFactor="1.0000" reroute="1" state="262162 0 0 50.10 29000 33.88 59000 0 0" pos="399.00 349.00 0.00" speed="0.00 0.00" angle="90.00" posLat="0.00" waitingTime="100000 1 0 29000">
        <stop busStop="stop_c" arrival="100.00" duration="30.00" until="130.00"/>
        <device id="tripinfo_t0" state="a_0 0 13.89 -50.1 29000 1 1 0 -1 -1000 NONE -1 0 -1"/>
        <device id="routing_t0" state="0"/>
    </vehicle>
    <vehicle id="t1" type="train" depart="20.00" departSpeed="max" route="!t1!var#1" distance="400.05 1" speedFactor="1.0000" reroute="1" state="262162 29000 1 50.10 0 0.00 59000 0 0" pos="66.75 16.75 13.89" speed="13.89 13.89" angle="135.00" posLat="0.00" waitingTime="100000 0">
        <stop busStop="stop_c" arrival="50.00" duration="30.00" until="80.00"/>
        <device id="tripinfo_t1" state="d_0 0 13.89 349.95 0 0 0 0 -1 -1000 NONE -1 0 -1"/>
        <device id="routing_t1" state="0"/>
    </vehicle>
    <lane id="a_0">
        <vehicles value="t0"/>
        <link to="b_0">
            <approaching id="t0" arrivalTime="60001" arrivalSpeed="0.00" departSpeed="0.25" request="0" arrivalSpeedBraking="0.00" waitingTime="28000" distance="1.00"/>
        </link>
    </lane>
    <lane id="e_0">
        <vehicles value="t1"/>
    </lane>
    <railSignalConstraintTracker lane="e_0" index="1" state="between t1"/>
    <driveWay id="gneJ1.d0" edges="a" vehicles="t0"/>
    <driveWay id="D.1" edges="e c" vehicles="t1"/>
    <subDriveWay id="D.1.0" edges="e" vehicles="t1"/>
</snapshot>
