<?xml version="1.0" encoding="UTF-8"?>

<!-- generated on Mon Feb 17 15:31:03 2020 by Eclipse SUMO netconvert Version v1_5_0+0130-ceb0a01
This data file and the accompanying materials
are made available under the terms of the Eclipse Public License v2.0
which accompanies this distribution, and is available at
http://www.eclipse.org/legal/epl-v20.html
SPDX-License-Identifier: EPL-2.0
<configuration xmlns:xsi="http://www.w3.org/2001/XMLSchema-instance" xsi:noNamespaceSchemaLocation="http://sumo.dlr.de/xsd/netconvertConfiguration.xsd">

    <input>
        <sumo-net-file value="input_net.net.xml"/>
    </input>

    <output>
        <write-license value="true"/>
        <output-file value="net.net.xml"/>
    </output>

    <processing>
        <geometry.min-radius.fix.railways value="false"/>
        <geometry.max-grade.fix value="false"/>
        <offset.disable-normalization value="true"/>
        <roundabouts.guess value="true"/>
        <lefthand value="false"/>
    </processing>

    <junctions>
        <no-turnarounds value="true"/>
        <junctions.corner-detail value="0"/>
        <junctions.limit-turn-speed value="-1"/>
        <rectangular-lane-cut value="false"/>
    </junctions>

    <pedestrian>
        <walkingareas value="false"/>
    </pedestrian>

    <report>
        <xml-validation value="never"/>
        <aggregate-warnings value="5"/>
    </report>

</configuration>
-->

<net version="1.6" xmlns:xsi="http://www.w3.org/2001/XMLSchema-instance" xsi:noNamespaceSchemaLocation="http://sumo.dlr.de/xsd/net_file.xsd">

    <location netOffset="-593345.09,-5779253.43" convBoundary="11671.30,15816.38,11852.28,16140.50" origBoundary="1036887.000000,5215434.000000,1076426.000000,5239923.000000" projParameter="+proj=utm +zone=32 +ellps=WGS84 +datum=WGS84 +units=m +no_defs"/>

    <edge id=":54536750_0" function="internal">
        <lane id=":54536750_0_0" index="0" speed="13.89" length="4.67" shape="11671.76,15864.74 11670.38,15864.32 11669.77,15863.67 11669.92,15862.79 11670.84,15861.68"/>
    </edge>
    <edge id=":54536752_0" function="internal">
        <lane id=":54536752_0_0" index="0" speed="13.89" length="4.67" shape="11717.19,15816.94 11717.52,15815.54 11718.13,15814.88 11719.02,15814.98 11720.19,15815.82"/>
    </edge>
    <edge id=":54536788_0" function="internal">
        <lane id=":54536788_0_0" index="0" speed="13.89" length="4.67" shape="11840.22,16140.90 11839.15,16141.86 11838.27,16142.05 11837.60,16141.46 11837.12,16140.10"/>
    </edge>
    <edge id=":n0_0" function="internal">
        <lane id=":n0_0_0" index="0" speed="13.89" length="0.27" shape="11742.92,15899.35 11742.88,15899.28 11742.85,15899.23 11742.83,15899.18 11742.80,15899.10"/>
    </edge>
    <edge id=":n1_0" function="internal">
        <lane id=":n1_0_0" index="0" speed="13.89" length="20.93" shape="11731.47,15836.71 11739.85,15855.28"/>
        <lane id=":n1_0_1" index="1" speed="13.89" length="20.93" shape="11728.47,15837.84 11737.25,15857.44"/>
    </edge>
    <edge id=":n1_2" function="internal">
        <lane id=":n1_2_0" index="0" speed="13.89" length="23.56" shape="11719.03,15847.09 11725.00,15846.27 11730.03,15847.72 11734.11,15851.45 11737.25,15857.44"/>
    </edge>
    <edge id=":n1_3" function="internal">
        <lane id=":n1_3_0" index="0" speed="13.89" length="11.60" shape="11727.49,15854.39 11727.67,15851.48 11726.47,15849.81 11723.90,15849.36 11719.95,15850.15"/>
    </edge>
    <edge id=":n1_4" function="internal">
        <lane id=":n1_4_0" index="0" speed="13.89" length="15.64" shape="11727.49,15854.39 11727.59,15851.10 11726.43,15848.08 11724.56,15844.63 11722.48,15840.09"/>
        <lane id=":n1_4_1" index="1" speed="13.89" length="15.64" shape="11727.49,15854.39 11728.07,15850.95 11727.96,15847.58 11727.11,15843.76 11725.48,15838.96"/>
    </edge>
    <edge id=":n1_6" function="internal">
        <lane id=":n1_6_0" index="0" speed="13.89" length="7.65" shape="11727.49,15854.39 11729.38,15849.35 11731.40,15848.31"/>
    </edge>
    <edge id=":n1_7" function="internal">
        <lane id=":n1_7_0" index="0" speed="13.89" length="11.24" shape="11731.40,15848.31 11731.64,15848.18 11734.26,15850.88 11737.25,15857.44"/>
    </edge>
    <edge id=":n2_0" function="internal">
        <lane id=":n2_0_0" index="0" speed="13.89" length="0.72" shape="11755.18,15896.34 11755.22,15896.44 11755.25,15896.51 11755.29,15896.57 11755.34,15896.66"/>
        <lane id=":n2_0_1" index="1" speed="13.89" length="0.72" shape="11752.19,15897.46 11752.30,15897.76 11752.39,15897.96 11752.50,15898.15 11752.67,15898.42"/>
    </edge>
    <edge id=":n3_0" function="internal">
        <lane id=":n3_0_0" index="0" speed="13.89" length="8.06" shape="11777.42,15930.31 11778.51,15932.41 11778.94,15934.03 11779.39,15935.62 11780.57,15937.67"/>
    </edge>
    <edge id=":n4_0" function="internal">
        <lane id=":n4_0_0" index="0" speed="13.89" length="7.82" shape="11849.72,16056.41 11849.43,16054.17 11848.82,16052.72 11847.86,16051.37 11846.54,16049.44"/>
    </edge>
    <edge id=":n4_1" function="internal">
        <lane id=":n4_1_0" index="0" speed="13.89" length="8.67" shape="11850.07,16048.18 11850.74,16050.63 11851.65,16052.21 11852.48,16053.79 11852.92,16056.27"/>
    </edge>
    <edge id=":n4_2" function="internal">
        <lane id=":n4_2_0" index="0" speed="13.89" length="3.81" shape="11850.07,16048.18 11850.33,16051.68 11850.23,16051.95"/>
    </edge>
    <edge id=":n4_3" function="internal">
        <lane id=":n4_3_0" index="0" speed="13.89" length="6.16" shape="11850.23,16051.95 11849.83,16053.06 11848.57,16052.32 11846.54,16049.44"/>
    </edge>

    <edge id="-51805615" from="54536788" to="n4" priority="-1" shape="11838.67,16140.50 11850.58,16094.02 11852.28,16078.48 11851.36,16057.32">
        <lane id="-51805615_0" index="0" speed="13.89" length="85.30" shape="11837.12,16140.10 11849.00,16093.73 11850.68,16078.43 11849.72,16056.41"/>
    </edge>
    <edge id="-51811895" from="n1" to="54536752" priority="-1">
        <lane id="-51811895_0" index="0" speed="13.89" length="23.53" shape="11722.48,15840.09 11714.20,15818.07"/>
        <lane id="-51811895_1" index="1" speed="13.89" length="23.53" shape="11725.48,15838.96 11717.19,15816.94"/>
    </edge>
    <edge id="-51812052" from="54536750" to="n1" priority="-1">
        <lane id="-51812052_0" index="0" speed="13.89" length="50.35" shape="11670.84,15861.68 11719.03,15847.09"/>
    </edge>
    <edge id="51805615" from="n4" to="54536788" priority="-1" shape="11851.36,16057.32 11852.28,16078.48 11850.58,16094.02 11838.67,16140.50">
        <lane id="51805615_0" index="0" speed="13.89" length="86.25" shape="11852.92,16056.27 11853.88,16078.53 11852.16,16094.31 11840.22,16140.90"/>
    </edge>
    <edge id="51811895" from="54536752" to="n1" priority="-1">
        <lane id="51811895_0" index="0" speed="13.89" length="23.53" shape="11723.18,15814.69 11731.47,15836.71"/>
        <lane id="51811895_1" index="1" speed="13.89" length="23.53" shape="11720.19,15815.82 11728.47,15837.84"/>
    </edge>
    <edge id="51812052" from="n1" to="54536750" priority="-1">
        <lane id="51812052_0" index="0" speed="13.89" length="50.35" shape="11719.95,15850.15 11671.76,15864.74"/>
    </edge>
    <edge id="e0" from="n4" to="n0" priority="-1" spreadType="center" shape="11851.36,16057.32 11836.20,16032.51 11807.71,15992.96 11764.59,15935.30 11742.85,15899.23">
        <lane id="e0_0" index="0" speed="13.89" length="182.56" shape="11846.54,16049.44 11836.20,16032.51 11807.71,15992.96 11764.59,15935.30 11742.92,15899.35"/>
    </edge>
    <edge id="e1" from="n0" to="n1" priority="-1" spreadType="center" shape="11742.85,15899.23 11726.68,15857.71 11729.66,15845.54">
        <lane id="e1_0" index="0" speed="13.89" length="47.84" shape="11742.80,15899.10 11726.68,15857.71 11727.49,15854.39"/>
    </edge>
    <edge id="e2" from="n1" to="n2" priority="-1" spreadType="center" shape="11729.66,15845.54 11738.32,15855.74 11753.81,15897.24">
        <lane id="e2_0" index="0" speed="13.89" length="43.28" shape="11739.85,15855.28 11755.18,15896.34"/>
        <lane id="e2_1" index="1" speed="13.89" length="43.28" shape="11737.25,15857.44 11752.19,15897.46"/>
    </edge>
    <edge id="e3" from="n2" to="n3" priority="-1" spreadType="center">
        <lane id="e3_0" index="0" speed="13.89" length="40.24" shape="11755.34,15896.66 11777.42,15930.31"/>
        <lane id="e3_1" index="1" speed="13.89" length="40.24" shape="11752.67,15898.42 11774.75,15932.06"/>
    </edge>
    <edge id="e4" from="n3" to="n4" priority="-1" spreadType="center" shape="11778.25,15934.48 11816.03,15986.46 11839.87,16020.35 11848.99,16040.57 11851.36,16057.32">
        <lane id="e4_0" index="0" speed="13.89" length="131.61" shape="11780.57,15937.67 11816.03,15986.46 11839.87,16020.35 11848.99,16040.57 11850.07,16048.18"/>
    </edge>

    <junction id="54536750" type="priority" x="11671.30" y="15863.21" incLanes="51812052_0" intLanes=":54536750_0_0" shape="11671.30,15863.21 11672.23,15866.27 11671.30,15863.21">
        <request index="0" response="0" foes="0" cont="0"/>
    </junction>
    <junction id="54536752" type="priority" x="11718.69" y="15816.38" incLanes="-51811895_0 -51811895_1" intLanes=":54536752_0_0" shape="11718.69,15816.38 11712.70,15818.63 11718.69,15816.38">
        <request index="0" response="0" foes="0" cont="0"/>
    </junction>
    <junction id="54536788" type="priority" x="11838.67" y="16140.50" incLanes="51805615_0" intLanes=":54536788_0_0" shape="11838.67,16140.50 11841.77,16141.29 11838.67,16140.50">
        <request index="0" response="0" foes="0" cont="0"/>
    </junction>
    <junction id="n0" type="priority" x="11742.85" y="15899.23" incLanes="e0_0" intLanes=":n0_0_0" shape="11741.55,15900.17 11744.29,15898.52 11741.31,15899.68">
        <request index="0" response="0" foes="0" cont="0"/>
    </junction>
    <junction id="n1" type="priority" x="11729.66" y="15845.54" incLanes="51811895_0 51811895_1 -51812052_0 e1_0" intLanes=":n1_0_0 :n1_0_1 :n1_2_0 :n1_3_0 :n1_4_0 :n1_4_1 :n1_7_0" shape="11735.95,15858.53 11741.16,15854.19 11732.96,15836.15 11720.98,15840.65 11718.56,15845.56 11720.42,15851.68 11725.94,15854.01 11729.05,15854.77">
        <request index="0" response="0000000" foes="1000100" cont="0"/>
        <request index="1" response="0000000" foes="1000100" cont="0"/>
        <request index="2" response="1110011" foes="1110011" cont="0"/>
        <request index="3" response="0000000" foes="0000000" cont="0"/>
        <request index="4" response="0000000" foes="0000100" cont="0"/>
        <request index="5" response="0000000" foes="0000100" cont="0"/>
        <request index="6" response="0000011" foes="0000111" cont="1"/>
    </junction>
    <junction id="n2" type="priority" x="11753.81" y="15897.24" incLanes="e2_0 e2_1" intLanes=":n2_0_0 :n2_0_1" shape="11751.33,15899.30 11756.68,15895.78 11750.69,15898.02">
        <request index="0" response="00" foes="00" cont="0"/>
        <request index="1" response="00" foes="00" cont="0"/>
    </junction>
    <junction id="n3" type="priority" x="11778.25" y="15934.48" incLanes="e3_0 e3_1" intLanes=":n3_0_0" shape="11779.27,15938.61 11781.86,15936.73 11778.76,15929.43 11773.41,15932.94">
        <request index="0" response="0" foes="0" cont="0"/>
    </junction>
    <junction id="n4" type="priority" x="11851.36" y="16057.32" incLanes="-51805615_0 e4_0" intLanes=":n4_0_0 :n4_1_0 :n4_3_0" shape="11848.12,16056.48 11854.51,16056.20 11851.65,16047.95 11848.48,16048.40 11847.91,16048.61 11845.18,16050.27">
        <request index="0" response="000" foes="100" cont="0"/>
        <request index="1" response="000" foes="000" cont="0"/>
        <request index="2" response="001" foes="001" cont="1"/>
    </junction>

    <junction id=":n1_7_0" type="internal" x="11731.40" y="15848.31" incLanes=":n1_6_0 51811895_0 51811895_1" intLanes=":n1_0_0 :n1_0_1 :n1_2_0"/>
    <junction id=":n4_3_0" type="internal" x="11850.23" y="16051.95" incLanes=":n4_2_0 -51805615_0" intLanes=":n4_0_0"/>

    <connection from="-51805615" to="e0" fromLane="0" toLane="0" via=":n4_0_0" dir="s" state="M"/>
    <connection from="-51811895" to="51811895" fromLane="1" toLane="1" via=":54536752_0_0" dir="t" state="M"/>
    <connection from="-51812052" to="e2" fromLane="0" toLane="1" via=":n1_2_0" dir="l" state="m"/>
    <connection from="51805615" to="-51805615" fromLane="0" toLane="0" via=":54536788_0_0" dir="t" state="M"/>
    <connection from="51811895" to="e2" fromLane="0" toLane="0" via=":n1_0_0" dir="s" state="M"/>
    <connection from="51811895" to="e2" fromLane="1" toLane="1" via=":n1_0_1" dir="s" state="M"/>
    <connection from="51812052" to="-51812052" fromLane="0" toLane="0" via=":54536750_0_0" dir="t" state="M"/>
    <connection from="e0" to="e1" fromLane="0" toLane="0" via=":n0_0_0" dir="s" state="M"/>
    <connection from="e1" to="51812052" fromLane="0" toLane="0" via=":n1_3_0" dir="r" state="M"/>
    <connection from="e1" to="-51811895" fromLane="0" toLane="0" via=":n1_4_0" dir="s" state="M"/>
    <connection from="e1" to="-51811895" fromLane="0" toLane="1" via=":n1_4_1" dir="s" state="M"/>
    <connection from="e1" to="e2" fromLane="0" toLane="1" via=":n1_6_0" dir="l" state="m"/>
    <connection from="e2" to="e3" fromLane="0" toLane="0" via=":n2_0_0" dir="s" state="M"/>
    <connection from="e2" to="e3" fromLane="1" toLane="1" via=":n2_0_1" dir="s" state="M"/>
    <connection from="e3" to="e4" fromLane="0" toLane="0" via=":n3_0_0" dir="s" state="M"/>
    <connection from="e4" to="51805615" fromLane="0" toLane="0" via=":n4_1_0" dir="s" state="M"/>
    <connection from="e4" to="e0" fromLane="0" toLane="0" via=":n4_2_0" dir="l" state="m"/>

    <connection from=":54536750_0" to="-51812052" fromLane="0" toLane="0" dir="t" state="M"/>
    <connection from=":54536752_0" to="51811895" fromLane="0" toLane="1" dir="t" state="M"/>
    <connection from=":54536788_0" to="-51805615" fromLane="0" toLane="0" dir="t" state="M"/>
    <connection from=":n0_0" to="e1" fromLane="0" toLane="0" dir="s" state="M"/>
    <connection from=":n1_0" to="e2" fromLane="0" toLane="0" dir="s" state="M"/>
    <connection from=":n1_0" to="e2" fromLane="1" toLane="1" dir="s" state="M"/>
    <connection from=":n1_2" to="e2" fromLane="0" toLane="1" dir="l" state="M"/>
    <connection from=":n1_3" to="51812052" fromLane="0" toLane="0" dir="r" state="M"/>
    <connection from=":n1_4" to="-51811895" fromLane="0" toLane="0" dir="s" state="M"/>
    <connection from=":n1_4" to="-51811895" fromLane="1" toLane="1" dir="s" state="M"/>
    <connection from=":n1_6" to="e2" fromLane="0" toLane="1" via=":n1_7_0" dir="l" state="m"/>
    <connection from=":n1_7" to="e2" fromLane="0" toLane="1" dir="l" state="M"/>
    <connection from=":n2_0" to="e3" fromLane="0" toLane="0" dir="s" state="M"/>
    <connection from=":n2_0" to="e3" fromLane="1" toLane="1" dir="s" state="M"/>
    <connection from=":n3_0" to="e4" fromLane="0" toLane="0" dir="s" state="M"/>
    <connection from=":n4_0" to="e0" fromLane="0" toLane="0" dir="s" state="M"/>
    <connection from=":n4_1" to="51805615" fromLane="0" toLane="0" dir="s" state="M"/>
    <connection from=":n4_2" to="e0" fromLane="0" toLane="0" via=":n4_3_0" dir="l" state="m"/>
    <connection from=":n4_3" to="e0" fromLane="0" toLane="0" dir="l" state="M"/>

</net>
