<?xml version="1.0" encoding="UTF-8"?>

<!-- generated on Thu Apr 12 00:04:23 2018 by SUMO netconvert Version c8481b0
This data file and the accompanying materials
are made available under the terms of the Eclipse Public License v2.0
which accompanies this distribution, and is available at
http://www.eclipse.org/legal/epl-v20.html
SPDX-License-Identifier: EPL-2.0
<configuration xmlns:xsi="http://www.w3.org/2001/XMLSchema-instance" xsi:noNamespaceSchemaLocation="http://sumo.dlr.de/xsd/netconvertConfiguration.xsd">

    <input>
        <sumo-net-file value="input_net.net.xml"/>
        <edge-files value="input_plain.edg.xml"/>
    </input>

    <output>
        <write-license value="true"/>
        <output-file value="net.net.xml"/>
        <plain-output-prefix value="plain"/>
    </output>

    <processing>
        <no-turnarounds value="true"/>
        <offset.disable-normalization value="true"/>
        <lefthand value="false"/>
        <junctions.corner-detail value="0"/>
        <rectangular-lane-cut value="false"/>
        <walkingareas value="false"/>
    </processing>

    <report>
        <xml-validation value="never"/>
    </report>

</configuration>
-->

<net version="0.27" xmlns:xsi="http://www.w3.org/2001/XMLSchema-instance" xsi:noNamespaceSchemaLocation="http://sumo.dlr.de/xsd/net_file.xsd">

    <location netOffset="0.00,0.00" convBoundary="0.00,100.00,200.00,200.00" origBoundary="0.00,0.00,200.00,200.00" projParameter="!"/>

    <edge id=":C_0" function="internal">
        <lane id=":C_0_0" index="0" speed="13.89" length="5.23" shape="95.20,109.41 94.99,107.94 94.36,106.99 93.32,106.55 91.85,106.63"/>
    </edge>
    <edge id=":C_1" function="internal">
        <lane id=":C_1_0" index="0" speed="13.89" length="16.56" shape="98.40,109.41 98.99,104.59 100.78,101.15 103.74,99.09 107.90,98.40"/>
    </edge>
    <edge id=":C_2" function="internal">
        <lane id=":C_2_0" index="0" speed="13.89" length="4.67" shape="98.40,109.41 99.20,108.21 100.00,107.81 100.80,108.21 101.60,109.41"/>
    </edge>
    <edge id=":C_3" function="internal">
        <lane id=":C_3_0" index="0" speed="13.89" length="6.27" shape="107.90,104.80 106.54,105.09 105.57,105.95 104.99,107.39 104.80,109.41"/>
    </edge>
    <edge id=":C_4" function="internal">
        <lane id=":C_4_0" index="0" speed="13.89" length="16.57" shape="107.90,104.80 103.10,104.86 99.82,105.12 96.56,105.68 91.85,106.63"/>
        <lane id=":C_4_1" index="1" speed="13.89" length="16.57" shape="107.90,101.60 90.96,101.60"/>
    </edge>
    <edge id=":C_6" function="internal">
        <lane id=":C_6_0" index="0" speed="13.89" length="2.34" shape="107.90,101.60 106.70,100.80 106.30,100.00"/>
    </edge>
    <edge id=":C_11" function="internal">
        <lane id=":C_11_0" index="0" speed="13.89" length="2.34" shape="106.30,100.00 106.70,99.20 107.90,98.40"/>
    </edge>
    <edge id=":C_7" function="internal">
        <lane id=":C_7_0" index="0" speed="13.89" length="17.92" shape="89.61,93.96 95.03,94.54 98.74,94.92 102.46,95.13 107.90,95.20"/>
        <lane id=":C_7_1" index="1" speed="13.89" length="17.92" shape="90.40,98.40 107.90,98.40"/>
    </edge>
    <edge id=":C_9" function="internal">
        <lane id=":C_9_0" index="0" speed="13.89" length="6.74" shape="90.40,98.40 95.30,99.09 96.84,100.00"/>
    </edge>
    <edge id=":C_10" function="internal">
        <lane id=":C_10_0" index="0" speed="13.89" length="2.67" shape="90.40,98.40 91.74,98.99 92.28,99.72 92.20,100.00"/>
    </edge>
    <edge id=":C_12" function="internal">
        <lane id=":C_12_0" index="0" speed="13.89" length="11.17" shape="96.84,100.00 98.80,101.15 100.90,104.59 101.60,109.41"/>
    </edge>
    <edge id=":C_13" function="internal">
        <lane id=":C_13_0" index="0" speed="13.89" length="2.08" shape="92.20,100.00 92.02,100.59 90.96,101.60"/>
    </edge>
    <edge id=":E_0" function="internal">
        <lane id=":E_0_0" index="0" speed="13.89" length="4.67" shape="200.00,98.40 201.20,99.20 201.60,100.00 201.20,100.80 200.00,101.60"/>
    </edge>
    <edge id=":N_0" function="internal">
        <lane id=":N_0_0" index="0" speed="13.89" length="4.67" shape="101.60,200.00 100.80,201.20 100.00,201.60 99.20,201.20 98.40,200.00"/>
    </edge>
    <edge id=":W_0" function="internal">
        <lane id=":W_0_0" index="0" speed="13.89" length="4.70" shape="-0.32,101.60 -1.44,100.68 -1.76,99.84 -1.28,99.08 0.00,98.40"/>
    </edge>

    <edge id="CE" from="C" to="E" priority="2">
        <lane id="CE_0" index="0" speed="13.89" length="92.10" shape="107.90,95.20 200.00,95.20"/>
        <lane id="CE_1" index="1" speed="13.89" length="92.10" shape="107.90,98.40 200.00,98.40"/>
    </edge>
    <edge id="CN" from="C" to="N" priority="2">
        <lane id="CN_0" index="0" speed="13.89" length="90.59" shape="104.80,109.41 104.80,200.00"/>
        <lane id="CN_1" index="1" speed="13.89" length="90.59" shape="101.60,109.41 101.60,200.00"/>
    </edge>
    <edge id="CW" from="C" to="W" priority="2">
        <lane id="CW_0" index="0" speed="13.89" length="92.97" customShape="1" shape="91.85,106.63 50.00,115.00 -0.96,104.81"/>
        <lane id="CW_1" index="1" speed="13.89" length="92.97" shape="90.96,101.60 -0.32,101.60"/>
    </edge>
    <edge id="EC" from="E" to="C" priority="2">
        <lane id="EC_0" index="0" speed="13.89" length="92.10" shape="200.00,104.80 107.90,104.80"/>
        <lane id="EC_1" index="1" speed="13.89" length="92.10" shape="200.00,101.60 107.90,101.60"/>
    </edge>
    <edge id="NC" from="N" to="C" priority="2">
        <lane id="NC_0" index="0" speed="13.89" length="90.59" shape="95.20,200.00 95.20,109.41"/>
        <lane id="NC_1" index="1" speed="13.89" length="90.59" shape="98.40,200.00 98.40,109.41"/>
    </edge>
    <edge id="WC" from="W" to="C" priority="2">
        <lane id="WC_0" index="0" speed="13.89" length="90.23" customShape="1" shape="-0.00,95.00 50.00,90.00 89.61,93.96"/>
        <lane id="WC_1" index="1" speed="13.89" length="90.23" shape="0.00,98.40 90.40,98.40"/>
    </edge>

    <junction id="C" type="priority" x="100.00" y="100.00" incLanes="NC_0 NC_1 EC_0 EC_1 WC_0 WC_1" intLanes=":C_0_0 :C_1_0 :C_2_0 :C_3_0 :C_4_0 :C_4_1 :C_11_0 :C_7_0 :C_7_1 :C_12_0 :C_13_0" shape="93.60,109.41 106.40,109.41 107.90,106.40 107.90,93.60 89.33,92.33 92.13,108.21">
        <request index="0"  response="00000110000" foes="10000110000" cont="0"/>
        <request index="1"  response="01110110000" foes="01111110000" cont="0"/>
        <request index="2"  response="01000001000" foes="01000001000" cont="0"/>
        <request index="3"  response="00000000000" foes="01000000100" cont="0"/>
        <request index="4"  response="00000000000" foes="11000000011" cont="0"/>
        <request index="5"  response="00000000000" foes="11000000011" cont="0"/>
        <request index="6"  response="00110000010" foes="00110000010" cont="1"/>
        <request index="7"  response="00000000000" foes="00001000010" cont="0"/>
        <request index="8"  response="00000000000" foes="00001000010" cont="0"/>
        <request index="9"  response="00000111000" foes="00000111110" cont="1"/>
        <request index="10" response="00000110001" foes="00000110001" cont="1"/>
    </junction>
    <junction id="E" type="priority" x="200.00" y="100.00" incLanes="CE_0 CE_1" intLanes=":E_0_0" shape="200.00,100.00 200.00,93.60 200.00,100.00">
        <request index="0" response="0" foes="0" cont="0"/>
    </junction>
    <junction id="N" type="priority" x="100.00" y="200.00" incLanes="CN_0 CN_1" intLanes=":N_0_0" shape="100.00,200.00 106.40,200.00 100.00,200.00">
        <request index="0" response="0" foes="0" cont="0"/>
    </junction>
    <junction id="W" type="priority" x="0.00" y="100.00" incLanes="CW_0 CW_1" intLanes=":W_0_0" shape="0.00,100.00 -0.00,93.39 -1.28,106.38">
        <request index="0" response="0" foes="0" cont="0"/>
    </junction>

    <junction id=":C_11_0" type="internal" x="106.30" y="100.00" incLanes=":C_6_0 NC_1 WC_0 WC_1" intLanes=":C_1_0 :C_7_0 :C_7_1"/>
    <junction id=":C_12_0" type="internal" x="96.84" y="100.00" incLanes=":C_9_0 EC_0 EC_1" intLanes=":C_1_0 :C_2_0 :C_3_0 :C_4_0 :C_4_1"/>
    <junction id=":C_13_0" type="internal" x="92.20" y="100.00" incLanes=":C_10_0 EC_0 EC_1 NC_0" intLanes=":C_0_0 :C_4_0 :C_4_1"/>

    <connection from="CE" to="EC" fromLane="1" toLane="1" via=":E_0_0" dir="t" state="M"/>
    <connection from="CN" to="NC" fromLane="1" toLane="1" via=":N_0_0" dir="t" state="M"/>
    <connection from="CW" to="WC" fromLane="1" toLane="1" via=":W_0_0" dir="t" state="M"/>
    <connection from="EC" to="CN" fromLane="0" toLane="0" via=":C_3_0" dir="r" state="M"/>
    <connection from="EC" to="CW" fromLane="0" toLane="0" via=":C_4_0" dir="s" state="M"/>
    <connection from="EC" to="CW" fromLane="1" toLane="1" via=":C_4_1" dir="s" state="M"/>
    <connection from="EC" to="CE" fromLane="1" toLane="1" via=":C_6_0" dir="t" state="m"/>
    <connection from="NC" to="CW" fromLane="0" toLane="0" via=":C_0_0" dir="r" state="m"/>
    <connection from="NC" to="CE" fromLane="1" toLane="1" via=":C_1_0" dir="l" state="m"/>
    <connection from="NC" to="CN" fromLane="1" toLane="1" via=":C_2_0" dir="t" state="m"/>
    <connection from="WC" to="CE" fromLane="0" toLane="0" via=":C_7_0" dir="s" state="M"/>
    <connection from="WC" to="CE" fromLane="1" toLane="1" via=":C_7_1" dir="s" state="M"/>
    <connection from="WC" to="CN" fromLane="1" toLane="1" via=":C_9_0" dir="l" state="m"/>
    <connection from="WC" to="CW" fromLane="1" toLane="1" via=":C_10_0" dir="t" state="m"/>

    <connection from=":C_0" to="CW" fromLane="0" toLane="0" dir="r" state="M"/>
    <connection from=":C_1" to="CE" fromLane="0" toLane="1" dir="l" state="M"/>
    <connection from=":C_2" to="CN" fromLane="0" toLane="1" dir="t" state="M"/>
    <connection from=":C_3" to="CN" fromLane="0" toLane="0" dir="r" state="M"/>
    <connection from=":C_4" to="CW" fromLane="0" toLane="0" dir="s" state="M"/>
    <connection from=":C_4" to="CW" fromLane="1" toLane="1" dir="s" state="M"/>
    <connection from=":C_6" to="CE" fromLane="0" toLane="1" via=":C_11_0" dir="t" state="m"/>
    <connection from=":C_11" to="CE" fromLane="0" toLane="1" dir="t" state="M"/>
    <connection from=":C_7" to="CE" fromLane="0" toLane="0" dir="s" state="M"/>
    <connection from=":C_7" to="CE" fromLane="1" toLane="1" dir="s" state="M"/>
    <connection from=":C_9" to="CN" fromLane="0" toLane="1" via=":C_12_0" dir="l" state="m"/>
    <connection from=":C_12" to="CN" fromLane="0" toLane="1" dir="l" state="M"/>
    <connection from=":C_10" to="CW" fromLane="0" toLane="1" via=":C_13_0" dir="t" state="m"/>
    <connection from=":C_13" to="CW" fromLane="0" toLane="1" dir="t" state="M"/>
    <connection from=":E_0" to="EC" fromLane="0" toLane="1" dir="t" state="M"/>
    <connection from=":N_0" to="NC" fromLane="0" toLane="1" dir="t" state="M"/>
    <connection from=":W_0" to="WC" fromLane="0" toLane="1" dir="t" state="M"/>

</net>
