<?xml version="1.0" encoding="UTF-8"?>

<!-- generated on 2023-01-26 15:53:08 by Eclipse SUMO netconvert Version v1_15_0+1990-019f60057a9
<configuration xmlns:xsi="http://www.w3.org/2001/XMLSchema-instance" xsi:noNamespaceSchemaLocation="http://sumo.dlr.de/xsd/netconvertConfiguration.xsd">

    <input>
        <sumo-net-file value="D:/SUMO/tests/netedit\netelements\junctions\load/net.net.xml"/>
    </input>

    <output>
        <plain-output-prefix value="D:/SUMO/tests/netedit\netelements\junctions\load/net"/>
    </output>

    <processing>
        <geometry.min-radius.fix.railways value="false"/>
        <geometry.max-grade.fix value="false"/>
        <offset.disable-normalization value="true"/>
        <lefthand value="0"/>
    </processing>

    <junctions>
        <no-turnarounds value="true"/>
        <junctions.corner-detail value="5"/>
        <junctions.limit-turn-speed value="5.50"/>
        <rectangular-lane-cut value="0"/>
    </junctions>

    <pedestrian>
        <walkingareas value="0"/>
    </pedestrian>

</configuration>
-->

<nodes version="1.16" xmlns:xsi="http://www.w3.org/2001/XMLSchema-instance" xsi:noNamespaceSchemaLocation="http://sumo.dlr.de/xsd/nodes_file.xsd">
    <location netOffset="3.00,-25.00" convBoundary="0.00,0.00,100.00,60.00" origBoundary="-10000000000.00,-10000000000.00,10000000000.00,10000000000.00" projParameter="!"/>

    <node id="gneJ0" x="0.00" y="60.00" type="dead_end"/>
    <node id="gneJ1" x="20.00" y="60.00" type="dead_end"/>
    <node id="gneJ11" x="70.00" y="40.00" type="priority"/>
    <node id="gneJ12" x="90.00" y="40.00" type="priority"/>
    <node id="gneJ13" x="90.00" y="20.00" type="priority"/>
    <node id="gneJ14" x="90.00" y="0.00" type="priority"/>
    <node id="gneJ15" x="70.00" y="0.00" type="priority"/>
    <node id="gneJ16" x="50.00" y="0.00" type="priority"/>
    <node id="gneJ17" x="50.00" y="20.00" type="priority"/>
    <node id="gneJ18" x="50.00" y="40.00" type="priority"/>
    <node id="gneJ19" x="70.00" y="20.00" type="priority"/>
    <node id="gneJ2" x="40.00" y="60.00" type="priority"/>
    <node id="gneJ3" x="60.00" y="60.00" type="priority"/>
    <node id="gneJ4" x="80.00" y="60.00" type="priority"/>
    <node id="gneJ5" x="100.00" y="60.00" type="priority"/>
    <node id="gneJ6" x="0.00" y="40.00" type="priority"/>
    <node id="gneJ7" x="20.00" y="40.00" type="priority"/>
    <node id="gneJ8" x="20.00" y="20.00" type="priority"/>
    <node id="gneJ9" x="0.00" y="20.00" type="priority"/>
</nodes>
