<?xml version="1.0" encoding="UTF-8"?>

<!-- generated on 2024-11-04 15:27:26 by Eclipse SUMO netedit Version v1_21_0+0580-cdb6acec4c9
-->

<routes xmlns:xsi="http://www.w3.org/2001/XMLSchema-instance" xsi:noNamespaceSchemaLocation="http://sumo.dlr.de/xsd/routes_file.xsd">
    <!-- Vehicles, persons and containers (sorted by depart) -->
    <vehicle id="v_0" depart="0.00" departPos="0.5" departSpeed="max" departLane="best">
        <route edges=":J1_0 E1 E2"/>
    </vehicle>
</routes>
