<?xml version="1.0" encoding="UTF-8"?>

<!-- generated on Wed Jun 27 22:13:12 2018 by Eclipse SUMO netconvert Version 9448296
This data file and the accompanying materials
are made available under the terms of the Eclipse Public License v2.0
which accompanies this distribution, and is available at
http://www.eclipse.org/legal/epl-v20.html
SPDX-License-Identifier: EPL-2.0
<configuration xmlns:xsi="http://www.w3.org/2001/XMLSchema-instance" xsi:noNamespaceSchemaLocation="http://sumo.dlr.de/xsd/netconvertConfiguration.xsd">

    <input>
        <node-files value="input_nodes.nod.xml"/>
        <edge-files value="input_edges.edg.xml"/>
    </input>

    <output>
        <write-license value="true"/>
        <output-file value="net.net.xml"/>
        <plain-output-prefix value="plain"/>
    </output>

    <processing>
        <junctions.limit-turn-speed value="2"/>
    </processing>

    <report>
        <xml-validation value="never"/>
    </report>

</configuration>
-->

<connections version="0.27" xmlns:xsi="http://www.w3.org/2001/XMLSchema-instance" xsi:noNamespaceSchemaLocation="http://sumo.dlr.de/xsd/connections_file.xsd">
    <connection from="CE" to="EE2" fromLane="0" toLane="0"/>
    <connection from="CE" to="EC" fromLane="1" toLane="1" speed="3.02"/>

    <connection from="CN" to="NC" fromLane="1" toLane="1" speed="3.02"/>

    <connection from="CS" to="SC" fromLane="1" toLane="1" speed="3.02"/>

    <connection from="CW" to="WC" fromLane="1" toLane="1" speed="3.02"/>

    <connection from="E2E3" to="E3E4" fromLane="0" toLane="0" speed="3.11"/>

    <connection from="EC" to="CN" fromLane="0" toLane="0" speed="5.12"/>
    <connection from="EC" to="CW" fromLane="0" toLane="0"/>
    <connection from="EC" to="CW" fromLane="1" toLane="1"/>
    <connection from="EC" to="CS" fromLane="1" toLane="1" speed="7.24"/>
    <connection from="EC" to="CE" fromLane="1" toLane="1" speed="3.02"/>

    <connection from="EE2" to="E2E3" fromLane="0" toLane="0"/>

    <connection from="NC" to="CW" fromLane="0" toLane="0" speed="5.12"/>
    <connection from="NC" to="CS" fromLane="0" toLane="0"/>
    <connection from="NC" to="CS" fromLane="1" toLane="1"/>
    <connection from="NC" to="CE" fromLane="1" toLane="1" speed="7.24"/>
    <connection from="NC" to="CN" fromLane="1" toLane="1" speed="3.02"/>

    <connection from="SC" to="CE" fromLane="0" toLane="0" speed="5.12"/>
    <connection from="SC" to="CN" fromLane="0" toLane="0"/>
    <connection from="SC" to="CN" fromLane="1" toLane="1"/>
    <connection from="SC" to="CW" fromLane="1" toLane="1" speed="7.24"/>
    <connection from="SC" to="CS" fromLane="1" toLane="1" speed="3.02"/>

    <connection from="WC" to="CS" fromLane="0" toLane="0" speed="5.12"/>
    <connection from="WC" to="CE" fromLane="0" toLane="0"/>
    <connection from="WC" to="CE" fromLane="1" toLane="1"/>
    <connection from="WC" to="CN" fromLane="1" toLane="1" speed="7.24"/>
    <connection from="WC" to="CW" fromLane="1" toLane="1" speed="3.02"/>

</connections>
