<?xml version="1.0" encoding="UTF-8"?>

<!-- generated on 2022-01-28 11:35:39 by Eclipse SUMO sumo Version v1_12_0+0086-e034d65
This data file and the accompanying materials
are made available under the terms of the Eclipse Public License v2.0
which accompanies this distribution, and is available at
http://www.eclipse.org/legal/epl-v20.html
SPDX-License-Identifier: EPL-2.0
<configuration xmlns:xsi="http://www.w3.org/2001/XMLSchema-instance" xsi:noNamespaceSchemaLocation="http://sumo.dlr.de/xsd/sumoConfiguration.xsd">

    <input>
        <net-file value="net.net.xml"/>
        <route-files value="input_routes.rou.xml"/>
        <additional-files value="input_additional.add.xml"/>
    </input>

    <output>
        <write-license value="true"/>
        <stop-output value="stopinfos.xml"/>
    </output>

    <processing>
        <default.speeddev value="0"/>
    </processing>

    <report>
        <verbose value="true"/>
        <xml-validation value="never"/>
        <xml-validation.routes value="never"/>
        <duration-log.disable value="true"/>
        <duration-log.statistics value="true"/>
        <no-step-log value="true"/>
    </report>

</configuration>
-->

<stops xmlns:xsi="http://www.w3.org/2001/XMLSchema-instance" xsi:noNamespaceSchemaLocation="http://sumo.dlr.de/xsd/stopinfo_file.xsd">
    <stopinfo id="f_0.0" type="DEFAULT_VEHTYPE" lane="E0_0" pos="255.99" parking="1" started="27.00" ended="147.00" delay="-1.00" initialPersons="0" loadedPersons="0" unloadedPersons="0" initialContainers="0" loadedContainers="0" unloadedContainers="0" parkingArea="pa_0"/>
    <stopinfo id="f_0.2" type="DEFAULT_VEHTYPE" lane="E0_0" pos="288.00" parking="1" started="44.00" ended="164.00" delay="-1.00" initialPersons="0" loadedPersons="0" unloadedPersons="0" initialContainers="0" loadedContainers="0" unloadedContainers="0" parkingArea="pa_0"/>
    <stopinfo id="f_0.1" type="DEFAULT_VEHTYPE" lane="E0_0" pos="303.99" parking="1" started="51.00" ended="171.00" delay="-1.00" initialPersons="0" loadedPersons="0" unloadedPersons="0" initialContainers="0" loadedContainers="0" unloadedContainers="0" parkingArea="pa_0"/>
    <stopinfo id="f_0.3" type="DEFAULT_VEHTYPE" lane="E0_0" pos="319.99" parking="1" started="57.00" ended="177.00" delay="-1.00" initialPersons="0" loadedPersons="0" unloadedPersons="0" initialContainers="0" loadedContainers="0" unloadedContainers="0" parkingArea="pa_0"/>
    <stopinfo id="f_0.4" type="DEFAULT_VEHTYPE" lane="E0_0" pos="367.98" parking="1" started="80.00" ended="200.00" delay="-1.00" initialPersons="0" loadedPersons="0" unloadedPersons="0" initialContainers="0" loadedContainers="0" unloadedContainers="0" parkingArea="pa_0"/>
    <stopinfo id="f_0.5" type="DEFAULT_VEHTYPE" lane="E0_0" pos="383.97" parking="1" started="88.00" ended="208.00" delay="-1.00" initialPersons="0" loadedPersons="0" unloadedPersons="0" initialContainers="0" loadedContainers="0" unloadedContainers="0" parkingArea="pa_0"/>
    <stopinfo id="f_1.0" type="DEFAULT_VEHTYPE" lane="E0_0" pos="272.00" parking="1" started="35.00" ended="215.00" delay="-1.00" initialPersons="0" loadedPersons="0" unloadedPersons="0" initialContainers="0" loadedContainers="0" unloadedContainers="0" parkingArea="pa_0"/>
    <stopinfo id="f_1.2" type="DEFAULT_VEHTYPE" lane="E0_0" pos="336.00" parking="1" started="65.00" ended="245.00" delay="-1.00" initialPersons="0" loadedPersons="0" unloadedPersons="0" initialContainers="0" loadedContainers="0" unloadedContainers="0" parkingArea="pa_0"/>
    <stopinfo id="f_1.1" type="DEFAULT_VEHTYPE" lane="E0_0" pos="351.99" parking="1" started="74.00" ended="254.00" delay="-1.00" initialPersons="0" loadedPersons="0" unloadedPersons="0" initialContainers="0" loadedContainers="0" unloadedContainers="0" parkingArea="pa_0"/>
    <stopinfo id="f_1.3" type="DEFAULT_VEHTYPE" lane="E0_0" pos="399.98" parking="1" started="97.00" ended="277.00" delay="-1.00" initialPersons="0" loadedPersons="0" unloadedPersons="0" initialContainers="0" loadedContainers="0" unloadedContainers="0" parkingArea="pa_0"/>
    <stopinfo id="f_0.6" type="DEFAULT_VEHTYPE" lane="E0_0" pos="255.99" parking="1" started="172.00" ended="292.00" delay="-1.00" initialPersons="0" loadedPersons="0" unloadedPersons="0" initialContainers="0" loadedContainers="0" unloadedContainers="0" parkingArea="pa_0"/>
    <stopinfo id="f_1.5" type="DEFAULT_VEHTYPE" lane="E0_0" pos="287.99" parking="1" started="173.00" ended="353.00" delay="-1.00" initialPersons="0" loadedPersons="0" unloadedPersons="0" initialContainers="0" loadedContainers="0" unloadedContainers="0" parkingArea="pa_0"/>
    <stopinfo id="f_1.6" type="DEFAULT_VEHTYPE" lane="E0_0" pos="303.99" parking="1" started="184.00" ended="364.00" delay="-1.00" initialPersons="0" loadedPersons="0" unloadedPersons="0" initialContainers="0" loadedContainers="0" unloadedContainers="0" parkingArea="pa_0"/>
    <stopinfo id="f_1.7" type="DEFAULT_VEHTYPE" lane="E0_0" pos="320.00" parking="1" started="206.00" ended="386.00" delay="-1.00" initialPersons="0" loadedPersons="0" unloadedPersons="0" initialContainers="0" loadedContainers="0" unloadedContainers="0" parkingArea="pa_0"/>
    <stopinfo id="f_1.4" type="DEFAULT_VEHTYPE" lane="E0_0" pos="367.98" parking="1" started="210.00" ended="390.00" delay="-1.00" initialPersons="0" loadedPersons="0" unloadedPersons="0" initialContainers="0" loadedContainers="0" unloadedContainers="0" parkingArea="pa_0"/>
    <stopinfo id="f_1.8" type="DEFAULT_VEHTYPE" lane="E0_0" pos="383.99" parking="1" started="216.00" ended="396.00" delay="-1.00" initialPersons="0" loadedPersons="0" unloadedPersons="0" initialContainers="0" loadedContainers="0" unloadedContainers="0" parkingArea="pa_0"/>
</stops>
