<?xml version="1.0" encoding="UTF-8"?>

<!-- generated on 2022-12-04 14:19:42 by Eclipse SUMO sumo Version v1_15_0+0751-db72905
This data file and the accompanying materials
are made available under the terms of the Eclipse Public License v2.0
which accompanies this distribution, and is available at
http://www.eclipse.org/legal/epl-v20.html
This file may also be made available under the following Secondary
Licenses when the conditions for such availability set forth in the Eclipse
Public License 2.0 are satisfied: GNU General Public License, version 2
or later which is available at
https://www.gnu.org/licenses/old-licenses/gpl-2.0-standalone.html
SPDX-License-Identifier: EPL-2.0 OR GPL-2.0-or-later
<configuration xmlns:xsi="http://www.w3.org/2001/XMLSchema-instance" xsi:noNamespaceSchemaLocation="http://sumo.dlr.de/xsd/sumoConfiguration.xsd">

    <input>
        <net-file value="net.net.xml"/>
        <route-files value="input_routes.rou.xml"/>
        <additional-files value="input_additional.add.xml"/>
    </input>

    <output>
        <write-license value="true"/>
        <stop-output value="stopinfos.xml"/>
    </output>

    <processing>
        <default.speeddev value="0"/>
    </processing>

    <report>
        <xml-validation value="never"/>
        <duration-log.disable value="true"/>
        <duration-log.statistics value="true"/>
        <no-step-log value="true"/>
    </report>

</configuration>
-->

<stops xmlns:xsi="http://www.w3.org/2001/XMLSchema-instance" xsi:noNamespaceSchemaLocation="http://sumo.dlr.de/xsd/stopinfo_file.xsd">
    <stopinfo id="f_0.0" type="DEFAULT_VEHTYPE" lane="E0_0" pos="255.99" parking="1" started="27.00" ended="147.00" delay="-1.00" initialPersons="0" loadedPersons="0" unloadedPersons="0" initialContainers="0" loadedContainers="0" unloadedContainers="0" parkingArea="pa_0"/>
    <stopinfo id="f_0.1" type="DEFAULT_VEHTYPE" lane="E0_0" pos="287.99" parking="1" started="44.00" ended="164.00" delay="-1.00" initialPersons="0" loadedPersons="0" unloadedPersons="0" initialContainers="0" loadedContainers="0" unloadedContainers="0" parkingArea="pa_0"/>
    <stopinfo id="f_0.2" type="DEFAULT_VEHTYPE" lane="E0_0" pos="304.00" parking="1" started="50.00" ended="170.00" delay="-1.00" initialPersons="0" loadedPersons="0" unloadedPersons="0" initialContainers="0" loadedContainers="0" unloadedContainers="0" parkingArea="pa_0"/>
    <stopinfo id="f_0.3" type="DEFAULT_VEHTYPE" lane="E0_0" pos="320.00" parking="1" started="56.00" ended="176.00" delay="-1.00" initialPersons="0" loadedPersons="0" unloadedPersons="0" initialContainers="0" loadedContainers="0" unloadedContainers="0" parkingArea="pa_0"/>
    <stopinfo id="f_0.4" type="DEFAULT_VEHTYPE" lane="E0_0" pos="367.99" parking="1" started="71.00" ended="191.00" delay="-1.00" initialPersons="0" loadedPersons="0" unloadedPersons="0" initialContainers="0" loadedContainers="0" unloadedContainers="0" parkingArea="pa_0"/>
    <stopinfo id="f_0.5" type="DEFAULT_VEHTYPE" lane="E0_0" pos="383.96" parking="1" started="81.00" ended="201.00" delay="-1.00" initialPersons="0" loadedPersons="0" unloadedPersons="0" initialContainers="0" loadedContainers="0" unloadedContainers="0" parkingArea="pa_0"/>
    <stopinfo id="f_1.0" type="DEFAULT_VEHTYPE" lane="E0_0" pos="271.98" parking="1" started="37.00" ended="217.00" delay="-1.00" initialPersons="0" loadedPersons="0" unloadedPersons="0" initialContainers="0" loadedContainers="0" unloadedContainers="0" parkingArea="pa_0"/>
    <stopinfo id="f_1.1" type="DEFAULT_VEHTYPE" lane="E0_0" pos="335.99" parking="1" started="61.00" ended="241.00" delay="-1.00" initialPersons="0" loadedPersons="0" unloadedPersons="0" initialContainers="0" loadedContainers="0" unloadedContainers="0" parkingArea="pa_0"/>
    <stopinfo id="f_1.2" type="DEFAULT_VEHTYPE" lane="E0_0" pos="352.00" parking="1" started="67.00" ended="247.00" delay="-1.00" initialPersons="0" loadedPersons="0" unloadedPersons="0" initialContainers="0" loadedContainers="0" unloadedContainers="0" parkingArea="pa_0"/>
    <stopinfo id="f_0.6" type="DEFAULT_VEHTYPE" lane="E0_0" pos="255.99" parking="1" started="155.00" ended="275.00" delay="-1.00" initialPersons="0" loadedPersons="0" unloadedPersons="0" initialContainers="0" loadedContainers="0" unloadedContainers="0" parkingArea="pa_0"/>
    <stopinfo id="f_1.3" type="DEFAULT_VEHTYPE" lane="E0_0" pos="400.00" parking="1" started="98.00" ended="278.00" delay="-1.00" initialPersons="0" loadedPersons="0" unloadedPersons="0" initialContainers="0" loadedContainers="0" unloadedContainers="0" parkingArea="pa_0"/>
    <stopinfo id="f_1.5" type="DEFAULT_VEHTYPE" lane="E0_0" pos="287.98" parking="1" started="170.00" ended="350.00" delay="-1.00" initialPersons="0" loadedPersons="0" unloadedPersons="0" initialContainers="0" loadedContainers="0" unloadedContainers="0" parkingArea="pa_0"/>
    <stopinfo id="f_1.6" type="DEFAULT_VEHTYPE" lane="E0_0" pos="304.00" parking="1" started="176.00" ended="356.00" delay="-1.00" initialPersons="0" loadedPersons="0" unloadedPersons="0" initialContainers="0" loadedContainers="0" unloadedContainers="0" parkingArea="pa_0"/>
    <stopinfo id="f_1.7" type="DEFAULT_VEHTYPE" lane="E0_0" pos="319.99" parking="1" started="183.00" ended="363.00" delay="-1.00" initialPersons="0" loadedPersons="0" unloadedPersons="0" initialContainers="0" loadedContainers="0" unloadedContainers="0" parkingArea="pa_0"/>
    <stopinfo id="f_1.4" type="DEFAULT_VEHTYPE" lane="E0_0" pos="368.00" parking="1" started="199.00" ended="379.00" delay="-1.00" initialPersons="0" loadedPersons="0" unloadedPersons="0" initialContainers="0" loadedContainers="0" unloadedContainers="0" parkingArea="pa_0"/>
    <stopinfo id="f_1.8" type="DEFAULT_VEHTYPE" lane="E0_0" pos="383.99" parking="1" started="208.00" ended="388.00" delay="-1.00" initialPersons="0" loadedPersons="0" unloadedPersons="0" initialContainers="0" loadedContainers="0" unloadedContainers="0" parkingArea="pa_0"/>
</stops>
