<?xml version="1.0"?>

<!-- generated on 03/18/10 13:38:29 by SUMO sumo Version dev-SVN-r8460
<configuration>

    <input>
        <net-file value="net.net.xml"/>
        <additional-files value="input_routes.rou.xml,input_additional.add.xml,input_additional2.add.xml"/>
    </input>

    <time>
        <begin value="0"/>
        <end value="150"/>
    </time>

    <report>
        <no-duration-log value="true"/>
        <no-step-log value="true"/>
    </report>

</configuration>
-->

<netstats>
    <interval begin="0.00" end="15.00" id="dump_15">
        <edge id="4/1to3/1" sampledSeconds="15.00" noise="61.77"/>
    </interval>
    <interval begin="15.00" end="30.00" id="dump_15">
        <edge id="4/1to3/1" sampledSeconds="15.00" noise="61.77"/>
    </interval>
    <interval begin="30.00" end="45.00" id="dump_15">
        <edge id="3/1to2/1" sampledSeconds="14.95" noise="61.77"/>
        <edge id="4/1to3/1" sampledSeconds="0.05" noise="50.01"/>
    </interval>
    <interval begin="45.00" end="60.00" id="dump_15">
        <edge id="3/1to2/1" sampledSeconds="15.00" noise="61.77"/>
    </interval>
    <interval begin="60.00" end="75.00" id="dump_15">
        <edge id="2/1to1/1" sampledSeconds="5.90" noise="57.80"/>
        <edge id="3/1to2/1" sampledSeconds="9.10" noise="60.01"/>
    </interval>
    <interval begin="75.00" end="90.00" id="dump_15">
        <edge id="2/1to1/1" sampledSeconds="15.00" noise="61.77"/>
    </interval>
    <interval begin="90.00" end="105.00" id="dump_15">
        <edge id="2/1to1/1" sampledSeconds="15.00" noise="61.77"/>
    </interval>
    <interval begin="105.00" end="120.00" id="dump_15">
        <edge id="1/1to0/1" sampledSeconds="0.85" noise="50.01"/>
        <edge id="2/1to1/1" sampledSeconds="3.15" noise="56.03"/>
    </interval>
    <interval begin="120.00" end="135.00" id="dump_15">
    </interval>
    <interval begin="135.00" end="150.00" id="dump_15">
    </interval>
</netstats>
