<?xml version="1.0" encoding="UTF-8"?>

<!-- generated on 02.10.2018 10:30:41 by Eclipse SUMO netedit Version v1_0_0+0003-85a2829977
<configuration xmlns:xsi="http://www.w3.org/2001/XMLSchema-instance" xsi:noNamespaceSchemaLocation="http://sumo.dlr.de/xsd/netconvertConfiguration.xsd">

    <input>
        <sumo-net-file value="C:/Users/alva_pa/.texttest/tmp/netedit.gui.02Oct103027.4336/netedit.gui/additionalElements/e2MultiLaneDetector/create/create_basic_nonconsecutive\input_net.net.xml"/>
    </input>

    <output>
        <output-file value="C:/Users/alva_pa/.texttest/tmp/netedit.gui.02Oct103027.4336/netedit.gui/additionalElements/e2MultiLaneDetector/create/create_basic_nonconsecutive\net.net.xml"/>
    </output>

    <processing>
        <offset.disable-normalization value="true"/>
        <lefthand value="false"/>
    </processing>

    <junctions>
        <no-turnarounds value="true"/>
        <junctions.corner-detail value="5"/>
        <junctions.limit-turn-speed value="5.5"/>
        <rectangular-lane-cut value="false"/>
    </junctions>

    <pedestrian>
        <walkingareas value="false"/>
    </pedestrian>

    <netedit>
        <additionals-output value="C:/Users/alva_pa/.texttest/tmp/netedit.gui.02Oct103027.4336/netedit.gui/additionalElements/e2MultiLaneDetector/create/create_basic_nonconsecutive\additionals.xml"/>
        <shapes-output value="C:/Users/alva_pa/.texttest/tmp/netedit.gui.02Oct103027.4336/netedit.gui/additionalElements/e2MultiLaneDetector/create/create_basic_nonconsecutive\shapes.xml"/>
    </netedit>

    <visualisation>
        <gui-settings-file value="C:/Users/alva_pa/.texttest/tmp/netedit.gui.02Oct103027.4336/netedit.gui/additionalElements/e2MultiLaneDetector/create/create_basic_nonconsecutive\gui-settings.xml"/>
        <window-size value="700,500"/>
        <window-pos value="50,50"/>
        <gui-testing value="true"/>
        <gui-testing-debug value="true"/>
        <gui-testing-debug-gl value="true"/>
    </visualisation>

    <report>
        <no-warnings value="true"/>
        <error-log value="C:/Users/alva_pa/.texttest/tmp/netedit.gui.02Oct103027.4336/netedit.gui/additionalElements/e2MultiLaneDetector/create/create_basic_nonconsecutive\log.txt"/>
    </report>

</configuration>
-->

<additional xmlns:xsi="http://www.w3.org/2001/XMLSchema-instance" xsi:noNamespaceSchemaLocation="http://sumo.dlr.de/xsd/additional_file.xsd">
    <e2Detector id="e2MultilaneDetector_0" lanes="gneE3_0 gneE4_0 gneE5_0" pos="11.00" freq="900.00" file="e2MultilaneDetector_0.xml" endPos="14.00"/>
</additional>
