<?xml version="1.0" encoding="UTF-8"?>

<!-- generated on 2022-06-03 15:47:39 by Eclipse SUMO netedit Version v1_13_0+0610-e5b7f68bfcb
-->

<additional xmlns:xsi="http://www.w3.org/2001/XMLSchema-instance" xsi:noNamespaceSchemaLocation="http://sumo.dlr.de/xsd/additional_file.xsd">
    <!-- Detectors -->
    <e2Detector id="e2_0" lanes="gneE3_0 gneE4_0 gneE5_0" pos="13.00" endPos="15.00" period="300.00" file="e2_0.xml"/>
</additional>
