<?xml version="1.0"?>

<!-- generated on 10/21/09 17:56:03 by SUMO sumo Version dev-SVN-r7871
<configuration>

    <input>
        <net-file value="net.net.xml"/>
        <route-files value="input_routes.rou.xml"/>
        <additional-files value="input_additional.add.xml,input_additional2.add.xml"/>
    </input>

    <time>
        <begin value="0"/>
        <end value="1000"/>
    </time>

    <report>
        <no-duration-log value="true"/>
        <no-step-log value="true"/>
    </report>

    <mesoscopic>
        <mesosim value="true"/>
    </mesoscopic>

</configuration>
-->

<netstats>
   <interval begin="0" end="25" id="dump_25">
      <edge id="beg" traveltime="25.24" sampledSeconds="282.13" density="23.03" occupancy="11.52" noStops="0" speed="19.41" entered="0" emitted="25" left="5" flow="1609.52"/>
      <edge id="middle" traveltime="70.50" sampledSeconds="17.87" density="0.73" occupancy="0.36" noStops="0" speed="13.90" entered="5" emitted="0" left="0" flow="36.50"/>
   </interval>
   <interval begin="25" end="50" id="dump_25">
      <edge id="beg" traveltime="42.36" sampledSeconds="595.34" density="48.60" occupancy="24.30" noStops="0" speed="11.57" entered="0" emitted="19" left="13" flow="2023.64"/>
      <edge id="middle" traveltime="70.50" sampledSeconds="299.66" density="12.23" occupancy="6.12" noStops="0" speed="13.90" entered="13" emitted="0" left="0" flow="612.05"/>
   </interval>
   <interval begin="50" end="75" id="dump_25">
      <edge id="beg" traveltime="49.22" sampledSeconds="642.54" density="52.45" occupancy="26.23" noStops="0" speed="9.95" entered="0" emitted="13" left="13" flow="1879.72"/>
      <edge id="middle" traveltime="70.50" sampledSeconds="613.46" density="25.04" occupancy="12.52" noStops="0" speed="13.90" entered="13" emitted="0" left="0" flow="1252.97"/>
   </interval>
   <interval begin="75" end="100" id="dump_25">
      <edge id="beg" traveltime="48.57" sampledSeconds="643.11" density="52.50" occupancy="26.25" noStops="0" speed="10.09" entered="0" emitted="12" left="12" flow="1906.70"/>
      <edge id="end" traveltime="17.63" sampledSeconds="47.76" density="3.90" occupancy="1.95" noStops="0" speed="27.80" entered="8" emitted="0" left="0" flow="390.22"/>
      <edge id="middle" traveltime="70.50" sampledSeconds="878.13" density="35.84" occupancy="17.92" noStops="0" speed="13.90" entered="12" emitted="0" left="8" flow="1793.53"/>
   </interval>
   <interval begin="100" end="125" id="dump_25">
      <edge id="beg" traveltime="51.27" sampledSeconds="642.54" density="52.45" occupancy="26.23" noStops="0" speed="9.56" entered="0" emitted="13" left="13" flow="1804.77"/>
      <edge id="end" traveltime="17.63" sampledSeconds="236.38" density="19.30" occupancy="9.65" noStops="0" speed="27.80" entered="13" emitted="0" left="12" flow="1931.19"/>
      <edge id="middle" traveltime="70.50" sampledSeconds="881.55" density="35.98" occupancy="17.99" noStops="0" speed="13.90" entered="13" emitted="0" left="13" flow="1800.51"/>
   </interval>
   <interval begin="125" end="150" id="dump_25">
      <edge id="beg" traveltime="50.83" sampledSeconds="643.11" density="52.50" occupancy="26.25" noStops="0" speed="9.64" entered="0" emitted="12" left="12" flow="1822.04"/>
      <edge id="end" traveltime="17.63" sampledSeconds="220.51" density="18.00" occupancy="9.00" noStops="0" speed="27.80" entered="12" emitted="0" left="12" flow="1801.53"/>
      <edge id="middle" traveltime="70.50" sampledSeconds="881.04" density="35.96" occupancy="17.98" noStops="0" speed="13.90" entered="12" emitted="0" left="12" flow="1799.49"/>
   </interval>
   <interval begin="150" end="175" id="dump_25">
      <edge id="beg" traveltime="52.94" sampledSeconds="612.54" density="50.00" occupancy="25.00" noStops="0" speed="9.26" entered="0" emitted="7" left="13" flow="1666.26"/>
      <edge id="end" traveltime="17.63" sampledSeconds="220.14" density="17.97" occupancy="8.99" noStops="0" speed="27.80" entered="13" emitted="0" left="13" flow="1798.47"/>
      <edge id="middle" traveltime="70.50" sampledSeconds="881.55" density="35.98" occupancy="17.99" noStops="0" speed="13.90" entered="13" emitted="0" left="13" flow="1800.52"/>
   </interval>
   <interval begin="175" end="200" id="dump_25">
      <edge id="beg" traveltime="35.41" sampledSeconds="349.11" density="28.50" occupancy="14.25" noStops="0" speed="13.84" entered="0" emitted="0" left="12" flow="1419.55"/>
      <edge id="end" traveltime="17.63" sampledSeconds="220.51" density="18.00" occupancy="9.00" noStops="0" speed="27.80" entered="12" emitted="0" left="12" flow="1801.53"/>
      <edge id="middle" traveltime="70.50" sampledSeconds="881.04" density="35.96" occupancy="17.98" noStops="0" speed="13.90" entered="12" emitted="0" left="12" flow="1799.49"/>
   </interval>
   <interval begin="200" end="225" id="dump_25">
      <edge id="beg" traveltime="17.63" sampledSeconds="50.41" density="4.11" occupancy="2.06" noStops="0" speed="27.80" entered="0" emitted="0" left="8" flow="411.82"/>
      <edge id="end" traveltime="17.63" sampledSeconds="220.14" density="17.97" occupancy="8.99" noStops="0" speed="27.80" entered="13" emitted="0" left="13" flow="1798.47"/>
      <edge id="middle" traveltime="70.50" sampledSeconds="867.68" density="35.42" occupancy="17.71" noStops="0" speed="13.90" entered="8" emitted="0" left="13" flow="1772.18"/>
   </interval>
   <interval begin="225" end="250" id="dump_25">
      <edge id="end" traveltime="17.63" sampledSeconds="220.51" density="18.00" occupancy="9.00" noStops="0" speed="27.80" entered="12" emitted="0" left="12" flow="1801.53"/>
      <edge id="middle" traveltime="70.50" sampledSeconds="605.15" density="24.70" occupancy="12.35" noStops="0" speed="13.90" entered="0" emitted="0" left="12" flow="1236.00"/>
   </interval>
   <interval begin="250" end="275" id="dump_25">
      <edge id="end" traveltime="17.63" sampledSeconds="220.14" density="17.97" occupancy="8.99" noStops="0" speed="27.80" entered="13" emitted="0" left="13" flow="1798.47"/>
      <edge id="middle" traveltime="70.50" sampledSeconds="293.08" density="11.96" occupancy="5.98" noStops="0" speed="13.90" entered="0" emitted="0" left="13" flow="598.61"/>
   </interval>
   <interval begin="275" end="300" id="dump_25">
      <edge id="end" traveltime="17.63" sampledSeconds="174.13" density="14.21" occupancy="7.11" noStops="0" speed="27.80" entered="5" emitted="0" left="14" flow="1422.59"/>
      <edge id="middle" traveltime="70.50" sampledSeconds="20.65" density="0.84" occupancy="0.42" noStops="0" speed="13.90" entered="0" emitted="0" left="5" flow="42.17"/>
   </interval>
   <interval begin="300" end="325" id="dump_25">
   </interval>
   <interval begin="325" end="350" id="dump_25">
   </interval>
   <interval begin="350" end="375" id="dump_25">
   </interval>
   <interval begin="375" end="400" id="dump_25">
   </interval>
   <interval begin="400" end="425" id="dump_25">
   </interval>
   <interval begin="425" end="450" id="dump_25">
   </interval>
   <interval begin="450" end="475" id="dump_25">
   </interval>
   <interval begin="475" end="500" id="dump_25">
   </interval>
   <interval begin="500" end="525" id="dump_25">
   </interval>
   <interval begin="525" end="550" id="dump_25">
   </interval>
   <interval begin="550" end="575" id="dump_25">
   </interval>
   <interval begin="575" end="600" id="dump_25">
   </interval>
   <interval begin="600" end="625" id="dump_25">
   </interval>
   <interval begin="625" end="650" id="dump_25">
   </interval>
   <interval begin="650" end="675" id="dump_25">
   </interval>
   <interval begin="675" end="700" id="dump_25">
   </interval>
   <interval begin="700" end="725" id="dump_25">
   </interval>
   <interval begin="725" end="750" id="dump_25">
   </interval>
   <interval begin="750" end="775" id="dump_25">
   </interval>
   <interval begin="775" end="800" id="dump_25">
   </interval>
   <interval begin="800" end="825" id="dump_25">
   </interval>
   <interval begin="825" end="850" id="dump_25">
   </interval>
   <interval begin="850" end="875" id="dump_25">
   </interval>
   <interval begin="875" end="900" id="dump_25">
   </interval>
   <interval begin="900" end="925" id="dump_25">
   </interval>
   <interval begin="925" end="950" id="dump_25">
   </interval>
   <interval begin="950" end="975" id="dump_25">
   </interval>
   <interval begin="975" end="1000" id="dump_25">
   </interval>
</netstats>
