<?xml version="1.0"?>

<!-- generated on 03/18/10 13:42:44 by SUMO sumo Version dev-SVN-r8460
<configuration>

    <input>
        <net-file value="net.net.xml"/>
        <route-files value="input_routes.rou.xml"/>
        <additional-files value="input_additional.add.xml,input_additional2.add.xml"/>
    </input>

    <time>
        <begin value="0"/>
        <end value="1000"/>
    </time>

    <report>
        <no-duration-log value="true"/>
        <no-step-log value="true"/>
    </report>

</configuration>
-->

<netstats>
    <interval begin="0.00" end="25.00" id="dump_25">
        <edge id="beg" sampledSeconds="136.00" traveltime="34.21" density="10.91" occupancy="5.46" waitingTime="0.00" speed="14.57" departed="11" arrived="0" entered="0" left="0" laneChangedFrom="0" laneChangedTo="0"/>
    </interval>
    <interval begin="25.00" end="50.00" id="dump_25">
        <edge id="beg" sampledSeconds="329.66" traveltime="32.06" density="26.45" occupancy="13.22" waitingTime="0.00" speed="15.55" departed="11" arrived="0" entered="0" left="6" laneChangedFrom="0" laneChangedTo="0"/>
        <edge id="middle" sampledSeconds="56.34" traveltime="495.28" density="2.28" occupancy="1.14" waitingTime="0.00" speed="2.00" departed="0" arrived="0" entered="5" left="0" laneChangedFrom="0" laneChangedTo="0"/>
    </interval>
    <interval begin="50.00" end="75.00" id="dump_25">
        <edge id="beg" sampledSeconds="436.76" traveltime="43.06" density="35.04" occupancy="17.52" waitingTime="0.00" speed="11.58" departed="10" arrived="0" entered="0" left="6" laneChangedFrom="0" laneChangedTo="0"/>
        <edge id="middle" sampledSeconds="209.65" traveltime="477.96" density="8.47" occupancy="4.23" waitingTime="0.00" speed="2.07" departed="0" arrived="0" entered="6" left="0" laneChangedFrom="0" laneChangedTo="0"/>
    </interval>
    <interval begin="75.00" end="100.00" id="dump_25">
        <edge id="beg" sampledSeconds="549.86" traveltime="56.37" density="44.12" occupancy="22.06" waitingTime="0.00" speed="8.84" departed="10" arrived="0" entered="0" left="6" laneChangedFrom="0" laneChangedTo="0"/>
        <edge id="middle" sampledSeconds="362.24" traveltime="475.70" density="14.63" occupancy="7.31" waitingTime="0.00" speed="2.08" departed="0" arrived="0" entered="6" left="0" laneChangedFrom="0" laneChangedTo="0"/>
    </interval>
    <interval begin="100.00" end="125.00" id="dump_25">
        <edge id="beg" sampledSeconds="642.57" traveltime="69.69" density="51.56" occupancy="25.78" waitingTime="0.00" speed="7.15" departed="11" arrived="0" entered="0" left="8" laneChangedFrom="0" laneChangedTo="0"/>
        <edge id="middle" sampledSeconds="527.93" traveltime="96.89" density="21.32" occupancy="10.66" waitingTime="0.00" speed="10.22" departed="0" arrived="0" entered="8" left="0" laneChangedFrom="0" laneChangedTo="0"/>
    </interval>
    <interval begin="125.00" end="150.00" id="dump_25">
        <edge id="beg" sampledSeconds="665.69" traveltime="68.41" density="53.41" occupancy="26.70" waitingTime="0.00" speed="7.29" departed="10" arrived="0" entered="0" left="12" laneChangedFrom="0" laneChangedTo="0"/>
        <edge id="end" sampledSeconds="28.19" traveltime="36.34" density="2.26" occupancy="1.13" waitingTime="0.00" speed="13.72" departed="0" arrived="0" entered="5" left="0" laneChangedFrom="0" laneChangedTo="0"/>
        <edge id="middle" sampledSeconds="732.67" traveltime="44.08" density="29.59" occupancy="14.79" waitingTime="0.00" speed="22.47" departed="0" arrived="0" entered="13" left="5" laneChangedFrom="0" laneChangedTo="0"/>
    </interval>
    <interval begin="150.00" end="175.00" id="dump_25">
        <edge id="beg" sampledSeconds="551.70" traveltime="46.39" density="44.26" occupancy="22.13" waitingTime="0.00" speed="10.75" departed="11" arrived="0" entered="0" left="17" laneChangedFrom="0" laneChangedTo="0"/>
        <edge id="end" sampledSeconds="199.78" traveltime="23.76" density="16.03" occupancy="8.01" waitingTime="0.00" speed="20.98" departed="0" arrived="0" entered="9" left="5" laneChangedFrom="0" laneChangedTo="0"/>
        <edge id="middle" sampledSeconds="914.24" traveltime="53.36" density="36.92" occupancy="18.46" waitingTime="0.00" speed="18.56" departed="0" arrived="0" entered="17" left="10" laneChangedFrom="0" laneChangedTo="0"/>
        <edge id="rend" sampledSeconds="1.89" traveltime="18.17" density="0.15" occupancy="0.08" waitingTime="0.00" speed="27.52" departed="0" arrived="5" entered="5" left="0" laneChangedFrom="0" laneChangedTo="0"/>
    </interval>
    <interval begin="175.00" end="200.00" id="dump_25">
        <edge id="beg" sampledSeconds="383.67" traveltime="30.31" density="30.78" occupancy="15.39" waitingTime="0.00" speed="16.45" departed="11" arrived="0" entered="0" left="18" laneChangedFrom="0" laneChangedTo="0"/>
        <edge id="end" sampledSeconds="224.40" traveltime="22.91" density="18.00" occupancy="9.00" waitingTime="0.00" speed="21.76" departed="0" arrived="0" entered="10" left="11" laneChangedFrom="0" laneChangedTo="0"/>
        <edge id="middle" sampledSeconds="1101.26" traveltime="70.64" density="44.47" occupancy="22.24" waitingTime="0.00" speed="14.02" departed="0" arrived="0" entered="18" left="10" laneChangedFrom="0" laneChangedTo="0"/>
        <edge id="rend" sampledSeconds="5.47" traveltime="18.23" density="0.44" occupancy="0.22" waitingTime="0.00" speed="27.43" departed="0" arrived="11" entered="11" left="0" laneChangedFrom="0" laneChangedTo="0"/>
    </interval>
    <interval begin="200.00" end="225.00" id="dump_25">
        <edge id="beg" sampledSeconds="287.63" traveltime="25.98" density="23.08" occupancy="11.54" waitingTime="0.00" speed="19.19" departed="11" arrived="0" entered="0" left="11" laneChangedFrom="0" laneChangedTo="0"/>
        <edge id="end" sampledSeconds="233.11" traveltime="22.78" density="18.70" occupancy="9.35" waitingTime="0.00" speed="21.89" departed="0" arrived="0" entered="10" left="10" laneChangedFrom="0" laneChangedTo="0"/>
        <edge id="middle" sampledSeconds="1217.92" traveltime="95.28" density="49.18" occupancy="24.59" waitingTime="0.00" speed="10.40" departed="0" arrived="0" entered="11" left="10" laneChangedFrom="0" laneChangedTo="0"/>
        <edge id="rend" sampledSeconds="4.01" traveltime="18.23" density="0.32" occupancy="0.16" waitingTime="0.00" speed="27.43" departed="0" arrived="10" entered="10" left="0" laneChangedFrom="0" laneChangedTo="0"/>
    </interval>
    <interval begin="225.00" end="250.00" id="dump_25">
        <edge id="beg" sampledSeconds="244.64" traveltime="24.52" density="19.63" occupancy="9.81" waitingTime="0.00" speed="20.33" departed="5" arrived="0" entered="0" left="11" laneChangedFrom="0" laneChangedTo="0"/>
        <edge id="end" sampledSeconds="224.16" traveltime="23.12" density="17.98" occupancy="8.99" waitingTime="0.00" speed="21.56" departed="0" arrived="0" entered="10" left="10" laneChangedFrom="0" laneChangedTo="0"/>
        <edge id="middle" sampledSeconds="1249.07" traveltime="117.15" density="50.44" occupancy="25.22" waitingTime="0.00" speed="8.46" departed="0" arrived="0" entered="11" left="9" laneChangedFrom="0" laneChangedTo="0"/>
        <edge id="rend" sampledSeconds="4.05" traveltime="18.18" density="0.32" occupancy="0.16" waitingTime="0.00" speed="27.51" departed="0" arrived="10" entered="10" left="0" laneChangedFrom="0" laneChangedTo="0"/>
    </interval>
    <interval begin="250.00" end="275.00" id="dump_25">
        <edge id="beg" sampledSeconds="44.70" traveltime="19.44" density="3.59" occupancy="1.79" waitingTime="0.00" speed="25.64" departed="0" arrived="0" entered="0" left="6" laneChangedFrom="0" laneChangedTo="0"/>
        <edge id="end" sampledSeconds="221.25" traveltime="23.14" density="17.75" occupancy="8.88" waitingTime="0.00" speed="21.54" departed="0" arrived="0" entered="10" left="8" laneChangedFrom="0" laneChangedTo="0"/>
        <edge id="middle" sampledSeconds="1247.71" traveltime="129.41" density="50.39" occupancy="25.19" waitingTime="0.00" speed="7.65" departed="0" arrived="0" entered="6" left="10" laneChangedFrom="0" laneChangedTo="0"/>
        <edge id="rend" sampledSeconds="4.80" traveltime="18.34" density="0.38" occupancy="0.19" waitingTime="0.00" speed="27.26" departed="0" arrived="8" entered="8" left="0" laneChangedFrom="0" laneChangedTo="0"/>
    </interval>
    <interval begin="275.00" end="300.00" id="dump_25">
        <edge id="end" sampledSeconds="228.59" traveltime="23.08" density="18.34" occupancy="9.17" waitingTime="0.00" speed="21.60" departed="0" arrived="0" entered="10" left="11" laneChangedFrom="0" laneChangedTo="0"/>
        <edge id="middle" sampledSeconds="1046.16" traveltime="219.05" density="42.25" occupancy="21.12" waitingTime="0.00" speed="4.52" departed="0" arrived="0" entered="0" left="10" laneChangedFrom="0" laneChangedTo="0"/>
        <edge id="rend" sampledSeconds="6.54" traveltime="18.28" density="0.52" occupancy="0.26" waitingTime="0.00" speed="27.35" departed="0" arrived="11" entered="11" left="0" laneChangedFrom="0" laneChangedTo="0"/>
    </interval>
    <interval begin="300.00" end="325.00" id="dump_25">
        <edge id="end" sampledSeconds="223.58" traveltime="22.94" density="17.94" occupancy="8.97" waitingTime="0.00" speed="21.73" departed="0" arrived="0" entered="9" left="9" laneChangedFrom="0" laneChangedTo="0"/>
        <edge id="middle" sampledSeconds="803.90" traveltime="251.51" density="32.46" occupancy="16.23" waitingTime="0.00" speed="3.94" departed="0" arrived="0" entered="0" left="10" laneChangedFrom="0" laneChangedTo="0"/>
        <edge id="rend" sampledSeconds="3.73" traveltime="18.25" density="0.30" occupancy="0.15" waitingTime="0.00" speed="27.39" departed="0" arrived="9" entered="9" left="0" laneChangedFrom="0" laneChangedTo="0"/>
    </interval>
    <interval begin="325.00" end="350.00" id="dump_25">
        <edge id="end" sampledSeconds="227.71" traveltime="22.87" density="18.27" occupancy="9.13" waitingTime="0.00" speed="21.80" departed="0" arrived="0" entered="10" left="10" laneChangedFrom="0" laneChangedTo="0"/>
        <edge id="middle" sampledSeconds="555.74" traveltime="244.84" density="22.44" occupancy="11.22" waitingTime="0.00" speed="4.05" departed="0" arrived="0" entered="0" left="10" laneChangedFrom="0" laneChangedTo="0"/>
        <edge id="rend" sampledSeconds="4.53" traveltime="18.25" density="0.36" occupancy="0.18" waitingTime="0.00" speed="27.40" departed="0" arrived="10" entered="10" left="0" laneChangedFrom="0" laneChangedTo="0"/>
    </interval>
    <interval begin="350.00" end="375.00" id="dump_25">
        <edge id="end" sampledSeconds="230.38" traveltime="23.12" density="18.48" occupancy="9.24" waitingTime="0.00" speed="21.56" departed="0" arrived="0" entered="11" left="10" laneChangedFrom="0" laneChangedTo="0"/>
        <edge id="middle" sampledSeconds="305.42" traveltime="236.12" density="12.33" occupancy="6.17" waitingTime="0.00" speed="4.19" departed="0" arrived="0" entered="0" left="10" laneChangedFrom="0" laneChangedTo="0"/>
        <edge id="rend" sampledSeconds="3.75" traveltime="18.21" density="0.30" occupancy="0.15" waitingTime="0.00" speed="27.45" departed="0" arrived="10" entered="10" left="0" laneChangedFrom="0" laneChangedTo="0"/>
    </interval>
    <interval begin="375.00" end="400.00" id="dump_25">
        <edge id="end" sampledSeconds="222.06" traveltime="22.47" density="17.82" occupancy="8.91" waitingTime="0.00" speed="22.19" departed="0" arrived="0" entered="7" left="10" laneChangedFrom="0" laneChangedTo="0"/>
        <edge id="middle" sampledSeconds="63.51" traveltime="233.28" density="2.56" occupancy="1.28" waitingTime="0.00" speed="4.25" departed="0" arrived="0" entered="0" left="7" laneChangedFrom="0" laneChangedTo="0"/>
        <edge id="rend" sampledSeconds="4.84" traveltime="18.29" density="0.39" occupancy="0.19" waitingTime="0.00" speed="27.34" departed="0" arrived="10" entered="10" left="0" laneChangedFrom="0" laneChangedTo="0"/>
    </interval>
    <interval begin="400.00" end="425.00" id="dump_25">
        <edge id="end" sampledSeconds="58.21" traveltime="18.91" density="4.67" occupancy="2.34" waitingTime="0.00" speed="26.37" departed="0" arrived="0" entered="0" left="7" laneChangedFrom="0" laneChangedTo="0"/>
        <edge id="rend" sampledSeconds="4.76" traveltime="18.27" density="0.38" occupancy="0.19" waitingTime="0.00" speed="27.36" departed="0" arrived="7" entered="7" left="0" laneChangedFrom="0" laneChangedTo="0"/>
    </interval>
    <interval begin="425.00" end="450.00" id="dump_25">
    </interval>
    <interval begin="450.00" end="475.00" id="dump_25">
    </interval>
    <interval begin="475.00" end="500.00" id="dump_25">
    </interval>
    <interval begin="500.00" end="525.00" id="dump_25">
    </interval>
    <interval begin="525.00" end="550.00" id="dump_25">
    </interval>
    <interval begin="550.00" end="575.00" id="dump_25">
    </interval>
    <interval begin="575.00" end="600.00" id="dump_25">
    </interval>
    <interval begin="600.00" end="625.00" id="dump_25">
    </interval>
    <interval begin="625.00" end="650.00" id="dump_25">
    </interval>
    <interval begin="650.00" end="675.00" id="dump_25">
    </interval>
    <interval begin="675.00" end="700.00" id="dump_25">
    </interval>
    <interval begin="700.00" end="725.00" id="dump_25">
    </interval>
    <interval begin="725.00" end="750.00" id="dump_25">
    </interval>
    <interval begin="750.00" end="775.00" id="dump_25">
    </interval>
    <interval begin="775.00" end="800.00" id="dump_25">
    </interval>
    <interval begin="800.00" end="825.00" id="dump_25">
    </interval>
    <interval begin="825.00" end="850.00" id="dump_25">
    </interval>
    <interval begin="850.00" end="875.00" id="dump_25">
    </interval>
    <interval begin="875.00" end="900.00" id="dump_25">
    </interval>
    <interval begin="900.00" end="925.00" id="dump_25">
    </interval>
    <interval begin="925.00" end="950.00" id="dump_25">
    </interval>
    <interval begin="950.00" end="975.00" id="dump_25">
    </interval>
    <interval begin="975.00" end="1000.00" id="dump_25">
    </interval>
</netstats>
