<?xml version="1.0"?>

<!-- generated on Wed May 30 11:28:47 2012 by SUMO sumo Version dev-SVN-r12334
<?xml version="1.0" encoding="UTF-8"?>

<configuration xmlns:xsi="http://www.w3.org/2001/XMLSchema-instance" xsi:noNamespaceSchemaLocation="http://sumo.sf.net/xsd/sumoConfiguration.xsd">

    <input>
        <net-file value="net.net.xml"/>
        <route-files value="input_routes.rou.xml"/>
        <additional-files value="input_additional.add.xml,input_additional2.add.xml"/>
    </input>

    <time>
        <begin value="0"/>
        <end value="1000"/>
    </time>

    <report>
        <no-duration-log value="true"/>
        <no-step-log value="true"/>
    </report>

</configuration>
-->

<netstats>
    <interval begin="0.00" end="25.00" id="dump_25">
        <edge id="beg" sampledSeconds="42.00" traveltime="29.66" density="3.37" occupancy="1.01" waitingTime="0.00" speed="16.81" departed="3" arrived="0" entered="0" left="0" laneChangedFrom="0" laneChangedTo="0"/>
    </interval>
    <interval begin="25.00" end="50.00" id="dump_25">
        <edge id="beg" sampledSeconds="69.29" traveltime="27.55" density="5.56" occupancy="1.67" waitingTime="0.00" speed="18.10" departed="2" arrived="0" entered="0" left="3" laneChangedFrom="0" laneChangedTo="0"/>
        <edge id="middle" sampledSeconds="29.11" traveltime="452.19" density="1.18" occupancy="0.35" waitingTime="0.00" speed="2.19" departed="0" arrived="0" entered="2" left="0" laneChangedFrom="0" laneChangedTo="0"/>
    </interval>
    <interval begin="50.00" end="75.00" id="dump_25">
        <edge id="beg" sampledSeconds="69.52" traveltime="28.28" density="5.58" occupancy="1.67" waitingTime="0.00" speed="17.63" departed="3" arrived="0" entered="0" left="2" laneChangedFrom="0" laneChangedTo="0"/>
        <edge id="middle" sampledSeconds="94.51" traveltime="450.10" density="3.82" occupancy="1.14" waitingTime="0.00" speed="2.20" departed="0" arrived="0" entered="3" left="0" laneChangedFrom="0" laneChangedTo="0"/>
    </interval>
    <interval begin="75.00" end="100.00" id="dump_25">
        <edge id="beg" sampledSeconds="70.65" traveltime="28.06" density="5.67" occupancy="1.70" waitingTime="0.00" speed="17.76" departed="2" arrived="0" entered="0" left="3" laneChangedFrom="0" laneChangedTo="0"/>
        <edge id="middle" sampledSeconds="153.72" traveltime="462.47" density="6.21" occupancy="1.86" waitingTime="0.00" speed="2.14" departed="0" arrived="0" entered="2" left="0" laneChangedFrom="0" laneChangedTo="0"/>
    </interval>
    <interval begin="100.00" end="125.00" id="dump_25">
        <edge id="beg" sampledSeconds="65.24" traveltime="25.46" density="5.23" occupancy="1.57" waitingTime="0.00" speed="19.58" departed="3" arrived="0" entered="0" left="2" laneChangedFrom="0" laneChangedTo="0"/>
        <edge id="middle" sampledSeconds="226.40" traveltime="52.87" density="9.14" occupancy="2.74" waitingTime="0.00" speed="18.73" departed="0" arrived="0" entered="3" left="0" laneChangedFrom="0" laneChangedTo="0"/>
    </interval>
    <interval begin="125.00" end="150.00" id="dump_25">
        <edge id="beg" sampledSeconds="62.24" traveltime="25.34" density="4.99" occupancy="1.50" waitingTime="0.00" speed="19.68" departed="2" arrived="0" entered="0" left="3" laneChangedFrom="0" laneChangedTo="0"/>
        <edge id="end" sampledSeconds="27.72" traveltime="32.13" density="2.22" occupancy="0.67" waitingTime="0.00" speed="15.52" departed="0" arrived="0" entered="4" left="0" laneChangedFrom="0" laneChangedTo="0"/>
        <edge id="middle" sampledSeconds="260.49" traveltime="41.56" density="10.52" occupancy="3.16" waitingTime="0.00" speed="23.83" departed="0" arrived="0" entered="3" left="5" laneChangedFrom="0" laneChangedTo="0"/>
    </interval>
    <interval begin="150.00" end="175.00" id="dump_25">
        <edge id="beg" sampledSeconds="64.99" traveltime="24.99" density="5.21" occupancy="1.56" waitingTime="0.00" speed="19.95" departed="3" arrived="0" entered="0" left="2" laneChangedFrom="0" laneChangedTo="0"/>
        <edge id="end" sampledSeconds="160.02" traveltime="22.35" density="12.84" occupancy="3.85" waitingTime="0.00" speed="22.31" departed="0" arrived="0" entered="8" left="5" laneChangedFrom="0" laneChangedTo="0"/>
        <edge id="middle" sampledSeconds="147.25" traveltime="52.69" density="5.95" occupancy="1.78" waitingTime="0.00" speed="18.80" departed="0" arrived="0" entered="2" left="7" laneChangedFrom="0" laneChangedTo="0"/>
        <edge id="rend" sampledSeconds="41.04" traveltime="18.43" density="3.28" occupancy="0.99" waitingTime="0.00" speed="27.13" departed="0" arrived="0" entered="5" left="0" laneChangedFrom="0" laneChangedTo="0"/>
    </interval>
    <interval begin="175.00" end="200.00" id="dump_25">
        <edge id="beg" sampledSeconds="61.37" traveltime="25.60" density="4.92" occupancy="1.48" waitingTime="0.00" speed="19.47" departed="2" arrived="0" entered="0" left="3" laneChangedFrom="0" laneChangedTo="0"/>
        <edge id="end" sampledSeconds="108.54" traveltime="20.82" density="8.71" occupancy="2.61" waitingTime="0.00" speed="23.95" departed="0" arrived="0" entered="3" left="7" laneChangedFrom="0" laneChangedTo="0"/>
        <edge id="middle" sampledSeconds="85.28" traveltime="33.24" density="3.44" occupancy="1.03" waitingTime="0.00" speed="29.80" departed="0" arrived="0" entered="3" left="3" laneChangedFrom="0" laneChangedTo="0"/>
        <edge id="rend" sampledSeconds="140.83" traveltime="18.41" density="11.27" occupancy="3.38" waitingTime="0.00" speed="27.16" departed="0" arrived="0" entered="7" left="0" laneChangedFrom="0" laneChangedTo="0"/>
    </interval>
    <interval begin="200.00" end="225.00" id="dump_25">
        <edge id="beg" sampledSeconds="65.51" traveltime="25.37" density="5.26" occupancy="1.58" waitingTime="0.00" speed="19.65" departed="3" arrived="0" entered="0" left="2" laneChangedFrom="0" laneChangedTo="0"/>
        <edge id="end" sampledSeconds="58.53" traveltime="22.61" density="4.70" occupancy="1.41" waitingTime="0.00" speed="22.05" departed="0" arrived="0" entered="2" left="3" laneChangedFrom="0" laneChangedTo="0"/>
        <edge id="middle" sampledSeconds="79.23" traveltime="32.62" density="3.20" occupancy="0.96" waitingTime="0.00" speed="30.36" departed="0" arrived="0" entered="2" left="2" laneChangedFrom="0" laneChangedTo="0"/>
        <edge id="rend" sampledSeconds="74.44" traveltime="18.41" density="5.96" occupancy="1.79" waitingTime="0.00" speed="27.16" departed="0" arrived="0" entered="3" left="0" laneChangedFrom="0" laneChangedTo="0"/>
    </interval>
    <interval begin="225.00" end="250.00" id="dump_25">
        <edge id="beg" sampledSeconds="62.81" traveltime="25.85" density="5.04" occupancy="1.51" waitingTime="0.00" speed="19.29" departed="2" arrived="0" entered="0" left="3" laneChangedFrom="0" laneChangedTo="0"/>
        <edge id="end" sampledSeconds="55.27" traveltime="21.66" density="4.43" occupancy="1.33" waitingTime="0.00" speed="23.02" departed="0" arrived="0" entered="3" left="2" laneChangedFrom="0" laneChangedTo="0"/>
        <edge id="middle" sampledSeconds="82.33" traveltime="32.90" density="3.32" occupancy="1.00" waitingTime="0.00" speed="30.10" departed="0" arrived="0" entered="3" left="3" laneChangedFrom="0" laneChangedTo="0"/>
        <edge id="rend" sampledSeconds="47.41" traveltime="18.41" density="3.79" occupancy="1.14" waitingTime="0.00" speed="27.16" departed="0" arrived="0" entered="2" left="0" laneChangedFrom="0" laneChangedTo="0"/>
    </interval>
    <interval begin="250.00" end="275.00" id="dump_25">
        <edge id="beg" sampledSeconds="65.96" traveltime="24.58" density="5.29" occupancy="1.59" waitingTime="0.00" speed="20.29" departed="3" arrived="0" entered="0" left="2" laneChangedFrom="0" laneChangedTo="0"/>
        <edge id="end" sampledSeconds="55.57" traveltime="22.24" density="4.46" occupancy="1.34" waitingTime="0.00" speed="22.41" departed="0" arrived="0" entered="2" left="3" laneChangedFrom="0" laneChangedTo="0"/>
        <edge id="middle" sampledSeconds="79.40" traveltime="32.25" density="3.21" occupancy="0.96" waitingTime="0.00" speed="30.71" departed="0" arrived="0" entered="2" left="2" laneChangedFrom="0" laneChangedTo="0"/>
        <edge id="rend" sampledSeconds="47.08" traveltime="18.43" density="3.77" occupancy="1.13" waitingTime="0.00" speed="27.14" departed="0" arrived="0" entered="3" left="0" laneChangedFrom="0" laneChangedTo="0"/>
    </interval>
    <interval begin="275.00" end="300.00" id="dump_25">
        <edge id="beg" sampledSeconds="60.68" traveltime="25.11" density="4.87" occupancy="1.46" waitingTime="0.00" speed="19.86" departed="2" arrived="0" entered="0" left="3" laneChangedFrom="0" laneChangedTo="0"/>
        <edge id="end" sampledSeconds="52.38" traveltime="21.58" density="4.20" occupancy="1.26" waitingTime="0.00" speed="23.10" departed="0" arrived="0" entered="3" left="2" laneChangedFrom="0" laneChangedTo="0"/>
        <edge id="middle" sampledSeconds="86.91" traveltime="32.46" density="3.51" occupancy="1.05" waitingTime="0.00" speed="30.52" departed="0" arrived="0" entered="3" left="3" laneChangedFrom="0" laneChangedTo="0"/>
        <edge id="rend" sampledSeconds="45.92" traveltime="18.35" density="3.67" occupancy="1.10" waitingTime="0.00" speed="27.25" departed="0" arrived="0" entered="2" left="0" laneChangedFrom="0" laneChangedTo="0"/>
    </interval>
    <interval begin="300.00" end="325.00" id="dump_25">
        <edge id="beg" sampledSeconds="22.50" traveltime="19.67" density="1.80" occupancy="0.54" waitingTime="0.00" speed="25.34" departed="0" arrived="0" entered="0" left="2" laneChangedFrom="0" laneChangedTo="0"/>
        <edge id="end" sampledSeconds="59.50" traveltime="22.56" density="4.77" occupancy="1.43" waitingTime="0.00" speed="22.10" departed="0" arrived="0" entered="2" left="3" laneChangedFrom="0" laneChangedTo="0"/>
        <edge id="middle" sampledSeconds="78.98" traveltime="32.93" density="3.19" occupancy="0.96" waitingTime="0.00" speed="30.08" departed="0" arrived="0" entered="2" left="2" laneChangedFrom="0" laneChangedTo="0"/>
        <edge id="rend" sampledSeconds="44.61" traveltime="18.34" density="3.57" occupancy="1.07" waitingTime="0.00" speed="27.27" departed="0" arrived="0" entered="3" left="0" laneChangedFrom="0" laneChangedTo="0"/>
    </interval>
    <interval begin="325.00" end="350.00" id="dump_25">
        <edge id="end" sampledSeconds="53.38" traveltime="21.89" density="4.28" occupancy="1.28" waitingTime="0.00" speed="22.77" departed="0" arrived="0" entered="2" left="2" laneChangedFrom="0" laneChangedTo="0"/>
        <edge id="middle" sampledSeconds="43.79" traveltime="39.72" density="1.77" occupancy="0.53" waitingTime="0.00" speed="24.94" departed="0" arrived="0" entered="0" left="3" laneChangedFrom="0" laneChangedTo="0"/>
        <edge id="rend" sampledSeconds="48.27" traveltime="18.38" density="3.86" occupancy="1.16" waitingTime="0.00" speed="27.21" departed="0" arrived="1" entered="2" left="0" laneChangedFrom="0" laneChangedTo="0"/>
    </interval>
    <interval begin="350.00" end="375.00" id="dump_25">
        <edge id="end" sampledSeconds="36.73" traveltime="20.39" density="2.95" occupancy="0.88" waitingTime="0.00" speed="24.45" departed="0" arrived="0" entered="1" left="3" laneChangedFrom="0" laneChangedTo="0"/>
        <edge id="middle" sampledSeconds="0.52" traveltime="171.40" density="0.02" occupancy="0.01" waitingTime="0.00" speed="5.78" departed="0" arrived="0" entered="0" left="0" laneChangedFrom="0" laneChangedTo="0"/>
        <edge id="rend" sampledSeconds="43.15" traveltime="18.42" density="3.45" occupancy="1.04" waitingTime="0.00" speed="27.15" departed="0" arrived="1" entered="3" left="0" laneChangedFrom="0" laneChangedTo="0"/>
    </interval>
    <interval begin="375.00" end="400.00" id="dump_25">
        <edge id="rend" sampledSeconds="22.50" traveltime="18.45" density="1.80" occupancy="0.54" waitingTime="0.00" speed="27.10" departed="0" arrived="0" entered="0" left="0" laneChangedFrom="0" laneChangedTo="0"/>
    </interval>
    <interval begin="400.00" end="425.00" id="dump_25">
    </interval>
    <interval begin="425.00" end="450.00" id="dump_25">
    </interval>
    <interval begin="450.00" end="475.00" id="dump_25">
    </interval>
    <interval begin="475.00" end="500.00" id="dump_25">
    </interval>
    <interval begin="500.00" end="525.00" id="dump_25">
    </interval>
    <interval begin="525.00" end="550.00" id="dump_25">
    </interval>
    <interval begin="550.00" end="575.00" id="dump_25">
    </interval>
    <interval begin="575.00" end="600.00" id="dump_25">
    </interval>
    <interval begin="600.00" end="625.00" id="dump_25">
    </interval>
    <interval begin="625.00" end="650.00" id="dump_25">
    </interval>
    <interval begin="650.00" end="675.00" id="dump_25">
    </interval>
    <interval begin="675.00" end="700.00" id="dump_25">
    </interval>
    <interval begin="700.00" end="725.00" id="dump_25">
    </interval>
    <interval begin="725.00" end="750.00" id="dump_25">
    </interval>
    <interval begin="750.00" end="775.00" id="dump_25">
    </interval>
    <interval begin="775.00" end="800.00" id="dump_25">
    </interval>
    <interval begin="800.00" end="825.00" id="dump_25">
    </interval>
    <interval begin="825.00" end="850.00" id="dump_25">
    </interval>
    <interval begin="850.00" end="875.00" id="dump_25">
    </interval>
    <interval begin="875.00" end="900.00" id="dump_25">
    </interval>
    <interval begin="900.00" end="925.00" id="dump_25">
    </interval>
    <interval begin="925.00" end="950.00" id="dump_25">
    </interval>
    <interval begin="950.00" end="975.00" id="dump_25">
    </interval>
    <interval begin="975.00" end="1000.00" id="dump_25">
    </interval>
</netstats>
