<?xml version="1.0"?>

<!-- generated on 11/11/09 15:31:15 by SUMO sumo Version dev-SVN-r7969
<configuration>

    <input>
        <net-file value="net.net.xml"/>
        <route-files value="input_routes.rou.xml"/>
        <additional-files value="input_additional.add.xml,input_additional2.add.xml"/>
    </input>

    <time>
        <begin value="0"/>
        <end value="1000"/>
    </time>

    <report>
        <no-duration-log value="true"/>
        <no-step-log value="true"/>
    </report>

</configuration>
-->

<netstats>
   <interval begin="0" end="25" id="dump_25">
      <edge id="beg" sampledSeconds="126.00" traveltime="34.49" density="10.11" occupancy="5.05" waitingTime="0.00" speed="14.45" departed="10" arrived="0" entered="0" left="0" laneChangedFrom="0" laneChangedTo="0"/>
   </interval>
   <interval begin="25" end="50" id="dump_25">
      <edge id="beg" sampledSeconds="303.88" traveltime="31.62" density="24.38" occupancy="12.19" waitingTime="0.00" speed="15.77" departed="10" arrived="0" entered="0" left="6" laneChangedFrom="0" laneChangedTo="0"/>
      <edge id="middle" sampledSeconds="55.43" traveltime="468.06" density="2.24" occupancy="1.12" waitingTime="0.00" speed="2.12" departed="0" arrived="0" entered="5" left="0" laneChangedFrom="0" laneChangedTo="0"/>
   </interval>
   <interval begin="50" end="75" id="dump_25">
      <edge id="beg" sampledSeconds="391.82" traveltime="40.98" density="31.44" occupancy="15.72" waitingTime="0.00" speed="12.17" departed="10" arrived="0" entered="0" left="6" laneChangedFrom="0" laneChangedTo="0"/>
      <edge id="middle" sampledSeconds="209.12" traveltime="474.04" density="8.45" occupancy="4.22" waitingTime="0.00" speed="2.09" departed="0" arrived="0" entered="6" left="0" laneChangedFrom="0" laneChangedTo="0"/>
   </interval>
   <interval begin="75" end="100" id="dump_25">
      <edge id="beg" sampledSeconds="483.65" traveltime="52.46" density="38.80" occupancy="19.40" waitingTime="0.00" speed="9.50" departed="10" arrived="0" entered="0" left="6" laneChangedFrom="0" laneChangedTo="0"/>
      <edge id="middle" sampledSeconds="363.84" traveltime="475.05" density="14.69" occupancy="7.35" waitingTime="0.00" speed="2.09" departed="0" arrived="0" entered="7" left="0" laneChangedFrom="0" laneChangedTo="0"/>
   </interval>
   <interval begin="100" end="125" id="dump_25">
      <edge id="beg" sampledSeconds="570.53" traveltime="60.65" density="45.77" occupancy="22.89" waitingTime="0.00" speed="8.22" departed="10" arrived="0" entered="0" left="8" laneChangedFrom="0" laneChangedTo="0"/>
      <edge id="middle" sampledSeconds="530.92" traveltime="99.52" density="21.44" occupancy="10.72" waitingTime="0.00" speed="9.95" departed="0" arrived="0" entered="7" left="0" laneChangedFrom="0" laneChangedTo="0"/>
   </interval>
   <interval begin="125" end="150" id="dump_25">
      <edge id="beg" sampledSeconds="591.67" traveltime="61.31" density="47.47" occupancy="23.74" waitingTime="0.00" speed="8.13" departed="10" arrived="0" entered="0" left="11" laneChangedFrom="0" laneChangedTo="0"/>
      <edge id="end" sampledSeconds="31.50" traveltime="35.46" density="2.53" occupancy="1.26" waitingTime="0.00" speed="14.06" departed="0" arrived="0" entered="5" left="0" laneChangedFrom="0" laneChangedTo="0"/>
      <edge id="middle" sampledSeconds="729.92" traveltime="44.83" density="29.48" occupancy="14.74" waitingTime="0.00" speed="22.10" departed="0" arrived="0" entered="12" left="5" laneChangedFrom="0" laneChangedTo="0"/>
   </interval>
   <interval begin="150" end="175" id="dump_25">
      <edge id="beg" sampledSeconds="537.29" traveltime="50.40" density="43.11" occupancy="21.55" waitingTime="0.00" speed="9.89" departed="10" arrived="0" entered="0" left="13" laneChangedFrom="0" laneChangedTo="0"/>
      <edge id="end" sampledSeconds="200.72" traveltime="23.36" density="16.10" occupancy="8.05" waitingTime="0.00" speed="21.34" departed="0" arrived="0" entered="9" left="5" laneChangedFrom="0" laneChangedTo="0"/>
      <edge id="middle" sampledSeconds="822.65" traveltime="56.39" density="33.22" occupancy="16.61" waitingTime="0.00" speed="17.57" departed="0" arrived="0" entered="12" left="10" laneChangedFrom="0" laneChangedTo="0"/>
      <edge id="rend" sampledSeconds="2.44" traveltime="18.24" density="0.19" occupancy="0.10" waitingTime="0.00" speed="27.42" departed="0" arrived="5" entered="5" left="0" laneChangedFrom="0" laneChangedTo="0"/>
   </interval>
   <interval begin="175" end="200" id="dump_25">
      <edge id="beg" sampledSeconds="471.95" traveltime="44.53" density="37.87" occupancy="18.93" waitingTime="0.05" speed="11.20" departed="10" arrived="0" entered="0" left="12" laneChangedFrom="0" laneChangedTo="0"/>
      <edge id="end" sampledSeconds="224.69" traveltime="23.09" density="18.03" occupancy="9.01" waitingTime="0.00" speed="21.59" departed="0" arrived="0" entered="10" left="10" laneChangedFrom="0" laneChangedTo="0"/>
      <edge id="middle" sampledSeconds="890.71" traveltime="74.61" density="35.97" occupancy="17.99" waitingTime="0.00" speed="13.28" departed="0" arrived="0" entered="13" left="10" laneChangedFrom="0" laneChangedTo="0"/>
      <edge id="rend" sampledSeconds="4.81" traveltime="18.23" density="0.39" occupancy="0.19" waitingTime="0.00" speed="27.43" departed="0" arrived="10" entered="10" left="0" laneChangedFrom="0" laneChangedTo="0"/>
   </interval>
   <interval begin="200" end="225" id="dump_25">
      <edge id="beg" sampledSeconds="400.52" traveltime="39.25" density="32.13" occupancy="16.07" waitingTime="0.06" speed="12.70" departed="9" arrived="0" entered="0" left="13" laneChangedFrom="0" laneChangedTo="0"/>
      <edge id="end" sampledSeconds="224.72" traveltime="23.12" density="18.03" occupancy="9.02" waitingTime="0.00" speed="21.56" departed="0" arrived="0" entered="10" left="10" laneChangedFrom="0" laneChangedTo="0"/>
      <edge id="middle" sampledSeconds="960.19" traveltime="81.72" density="38.78" occupancy="19.39" waitingTime="0.00" speed="12.12" departed="0" arrived="0" entered="12" left="9" laneChangedFrom="0" laneChangedTo="0"/>
      <edge id="rend" sampledSeconds="4.75" traveltime="18.30" density="0.38" occupancy="0.19" waitingTime="0.00" speed="27.32" departed="0" arrived="10" entered="10" left="0" laneChangedFrom="0" laneChangedTo="0"/>
   </interval>
   <interval begin="225" end="250" id="dump_25">
      <edge id="beg" sampledSeconds="334.77" traveltime="33.02" density="26.86" occupancy="13.43" waitingTime="0.00" speed="15.10" departed="10" arrived="0" entered="0" left="12" laneChangedFrom="0" laneChangedTo="0"/>
      <edge id="end" sampledSeconds="220.34" traveltime="23.06" density="17.68" occupancy="8.84" waitingTime="0.00" speed="21.62" departed="0" arrived="0" entered="10" left="9" laneChangedFrom="0" laneChangedTo="0"/>
      <edge id="middle" sampledSeconds="1031.78" traveltime="88.05" density="41.67" occupancy="20.83" waitingTime="0.00" speed="11.25" departed="0" arrived="0" entered="13" left="10" laneChangedFrom="0" laneChangedTo="0"/>
      <edge id="rend" sampledSeconds="4.36" traveltime="18.28" density="0.35" occupancy="0.17" waitingTime="0.00" speed="27.35" departed="0" arrived="9" entered="9" left="0" laneChangedFrom="0" laneChangedTo="0"/>
   </interval>
   <interval begin="250" end="275" id="dump_25">
      <edge id="beg" sampledSeconds="194.31" traveltime="24.47" density="15.59" occupancy="7.80" waitingTime="0.00" speed="20.38" departed="2" arrived="0" entered="0" left="11" laneChangedFrom="0" laneChangedTo="0"/>
      <edge id="end" sampledSeconds="221.39" traveltime="22.94" density="17.76" occupancy="8.88" waitingTime="0.00" speed="21.73" departed="0" arrived="0" entered="9" left="11" laneChangedFrom="0" laneChangedTo="0"/>
      <edge id="middle" sampledSeconds="1101.00" traveltime="91.20" density="44.46" occupancy="22.23" waitingTime="0.00" speed="10.86" departed="0" arrived="0" entered="11" left="10" laneChangedFrom="0" laneChangedTo="0"/>
      <edge id="rend" sampledSeconds="4.81" traveltime="18.32" density="0.38" occupancy="0.19" waitingTime="0.00" speed="27.30" departed="0" arrived="11" entered="11" left="0" laneChangedFrom="0" laneChangedTo="0"/>
   </interval>
   <interval begin="275" end="300" id="dump_25">
      <edge id="beg" sampledSeconds="7.49" traveltime="21.11" density="0.60" occupancy="0.30" waitingTime="0.00" speed="23.62" departed="0" arrived="0" entered="0" left="3" laneChangedFrom="0" laneChangedTo="0"/>
      <edge id="end" sampledSeconds="228.67" traveltime="22.97" density="18.35" occupancy="9.17" waitingTime="0.00" speed="21.70" departed="0" arrived="0" entered="10" left="10" laneChangedFrom="0" laneChangedTo="0"/>
      <edge id="middle" sampledSeconds="1047.80" traveltime="120.29" density="42.31" occupancy="21.16" waitingTime="0.00" speed="8.23" departed="0" arrived="0" entered="3" left="10" laneChangedFrom="0" laneChangedTo="0"/>
      <edge id="rend" sampledSeconds="3.55" traveltime="18.13" density="0.28" occupancy="0.14" waitingTime="0.00" speed="27.58" departed="0" arrived="10" entered="10" left="0" laneChangedFrom="0" laneChangedTo="0"/>
   </interval>
   <interval begin="300" end="325" id="dump_25">
      <edge id="end" sampledSeconds="223.78" traveltime="23.04" density="17.95" occupancy="8.98" waitingTime="0.00" speed="21.64" departed="0" arrived="0" entered="10" left="9" laneChangedFrom="0" laneChangedTo="0"/>
      <edge id="middle" sampledSeconds="812.00" traveltime="243.29" density="32.79" occupancy="16.40" waitingTime="0.00" speed="4.07" departed="0" arrived="0" entered="0" left="9" laneChangedFrom="0" laneChangedTo="0"/>
      <edge id="rend" sampledSeconds="5.03" traveltime="18.29" density="0.40" occupancy="0.20" waitingTime="0.00" speed="27.33" departed="0" arrived="9" entered="9" left="0" laneChangedFrom="0" laneChangedTo="0"/>
   </interval>
   <interval begin="325" end="350" id="dump_25">
      <edge id="end" sampledSeconds="225.21" traveltime="23.03" density="18.07" occupancy="9.03" waitingTime="0.00" speed="21.65" departed="0" arrived="0" entered="10" left="10" laneChangedFrom="0" laneChangedTo="0"/>
      <edge id="middle" sampledSeconds="568.52" traveltime="248.87" density="22.96" occupancy="11.48" waitingTime="0.00" speed="3.98" departed="0" arrived="0" entered="0" left="10" laneChangedFrom="0" laneChangedTo="0"/>
      <edge id="rend" sampledSeconds="4.92" traveltime="18.36" density="0.39" occupancy="0.20" waitingTime="0.00" speed="27.24" departed="0" arrived="10" entered="10" left="0" laneChangedFrom="0" laneChangedTo="0"/>
   </interval>
   <interval begin="350" end="375" id="dump_25">
      <edge id="end" sampledSeconds="219.73" traveltime="22.68" density="17.63" occupancy="8.81" waitingTime="0.00" speed="21.98" departed="0" arrived="0" entered="9" left="10" laneChangedFrom="0" laneChangedTo="0"/>
      <edge id="middle" sampledSeconds="324.66" traveltime="248.14" density="13.11" occupancy="6.56" waitingTime="0.00" speed="3.99" departed="0" arrived="0" entered="0" left="10" laneChangedFrom="0" laneChangedTo="0"/>
      <edge id="rend" sampledSeconds="4.06" traveltime="18.20" density="0.32" occupancy="0.16" waitingTime="0.00" speed="27.47" departed="0" arrived="10" entered="10" left="0" laneChangedFrom="0" laneChangedTo="0"/>
   </interval>
   <interval begin="375" end="400" id="dump_25">
      <edge id="end" sampledSeconds="220.22" traveltime="23.34" density="17.67" occupancy="8.83" waitingTime="0.00" speed="21.36" departed="0" arrived="0" entered="9" left="9" laneChangedFrom="0" laneChangedTo="0"/>
      <edge id="middle" sampledSeconds="88.91" traveltime="254.29" density="3.59" occupancy="1.80" waitingTime="0.00" speed="3.90" departed="0" arrived="0" entered="0" left="8" laneChangedFrom="0" laneChangedTo="0"/>
      <edge id="rend" sampledSeconds="4.19" traveltime="18.28" density="0.34" occupancy="0.17" waitingTime="0.00" speed="27.35" departed="0" arrived="9" entered="9" left="0" laneChangedFrom="0" laneChangedTo="0"/>
   </interval>
   <interval begin="400" end="425" id="dump_25">
      <edge id="end" sampledSeconds="82.10" traveltime="19.12" density="6.59" occupancy="3.29" waitingTime="0.00" speed="26.08" departed="0" arrived="0" entered="0" left="8" laneChangedFrom="0" laneChangedTo="0"/>
      <edge id="rend" sampledSeconds="3.87" traveltime="18.18" density="0.31" occupancy="0.15" waitingTime="0.00" speed="27.51" departed="0" arrived="8" entered="8" left="0" laneChangedFrom="0" laneChangedTo="0"/>
   </interval>
   <interval begin="425" end="450" id="dump_25">
   </interval>
   <interval begin="450" end="475" id="dump_25">
   </interval>
   <interval begin="475" end="500" id="dump_25">
   </interval>
   <interval begin="500" end="525" id="dump_25">
   </interval>
   <interval begin="525" end="550" id="dump_25">
   </interval>
   <interval begin="550" end="575" id="dump_25">
   </interval>
   <interval begin="575" end="600" id="dump_25">
   </interval>
   <interval begin="600" end="625" id="dump_25">
   </interval>
   <interval begin="625" end="650" id="dump_25">
   </interval>
   <interval begin="650" end="675" id="dump_25">
   </interval>
   <interval begin="675" end="700" id="dump_25">
   </interval>
   <interval begin="700" end="725" id="dump_25">
   </interval>
   <interval begin="725" end="750" id="dump_25">
   </interval>
   <interval begin="750" end="775" id="dump_25">
   </interval>
   <interval begin="775" end="800" id="dump_25">
   </interval>
   <interval begin="800" end="825" id="dump_25">
   </interval>
   <interval begin="825" end="850" id="dump_25">
   </interval>
   <interval begin="850" end="875" id="dump_25">
   </interval>
   <interval begin="875" end="900" id="dump_25">
   </interval>
   <interval begin="900" end="925" id="dump_25">
   </interval>
   <interval begin="925" end="950" id="dump_25">
   </interval>
   <interval begin="950" end="975" id="dump_25">
   </interval>
   <interval begin="975" end="1000" id="dump_25">
   </interval>
</netstats>
