<?xml version="1.0"?>

<!-- generated on Fri Nov  9 12:27:10 2012 by SUMO sumo Version dev-SVN-r12945
<?xml version="1.0" encoding="UTF-8"?>

<configuration xmlns:xsi="http://www.w3.org/2001/XMLSchema-instance" xsi:noNamespaceSchemaLocation="http://sumo.sf.net/xsd/sumoConfiguration.xsd">

    <input>
        <net-file value="net.net.xml"/>
        <route-files value="input_routes.rou.xml"/>
        <additional-files value="input_additional.add.xml,input_additional2.add.xml"/>
    </input>

    <time>
        <begin value="0"/>
        <end value="1000"/>
    </time>

    <report>
        <no-duration-log value="true"/>
        <no-step-log value="true"/>
    </report>

</configuration>
-->

<netstats>
    <interval begin="0.00" end="25.00" id="dump_25">
        <edge id="beg" sampledSeconds="42.00" traveltime="29.66" density="3.37" occupancy="1.01" waitingTime="0.00" speed="16.81" departed="3" arrived="0" entered="0" left="0" laneChangedFrom="0" laneChangedTo="0"/>
    </interval>
    <interval begin="25.00" end="50.00" id="dump_25">
        <edge id="beg" sampledSeconds="69.29" traveltime="27.55" density="5.56" occupancy="1.67" waitingTime="0.00" speed="18.10" departed="2" arrived="0" entered="0" left="3" laneChangedFrom="0" laneChangedTo="0"/>
        <edge id="middle" sampledSeconds="29.11" traveltime="452.19" density="1.18" occupancy="0.35" waitingTime="0.00" speed="2.19" departed="0" arrived="0" entered="2" left="0" laneChangedFrom="0" laneChangedTo="0"/>
    </interval>
    <interval begin="50.00" end="75.00" id="dump_25">
        <edge id="beg" sampledSeconds="69.52" traveltime="28.28" density="5.58" occupancy="1.67" waitingTime="0.00" speed="17.63" departed="3" arrived="0" entered="0" left="2" laneChangedFrom="0" laneChangedTo="0"/>
        <edge id="middle" sampledSeconds="94.51" traveltime="450.10" density="3.82" occupancy="1.14" waitingTime="0.00" speed="2.20" departed="0" arrived="0" entered="3" left="0" laneChangedFrom="0" laneChangedTo="0"/>
    </interval>
    <interval begin="75.00" end="100.00" id="dump_25">
        <edge id="beg" sampledSeconds="70.65" traveltime="28.06" density="5.67" occupancy="1.70" waitingTime="0.00" speed="17.76" departed="2" arrived="0" entered="0" left="3" laneChangedFrom="0" laneChangedTo="0"/>
        <edge id="middle" sampledSeconds="153.72" traveltime="462.47" density="6.21" occupancy="1.86" waitingTime="0.00" speed="2.14" departed="0" arrived="0" entered="2" left="0" laneChangedFrom="0" laneChangedTo="0"/>
    </interval>
    <interval begin="100.00" end="125.00" id="dump_25">
        <edge id="beg" sampledSeconds="65.24" traveltime="25.46" density="5.23" occupancy="1.57" waitingTime="0.00" speed="19.58" departed="3" arrived="0" entered="0" left="2" laneChangedFrom="0" laneChangedTo="0"/>
        <edge id="middle" sampledSeconds="226.40" traveltime="52.87" density="9.14" occupancy="2.74" waitingTime="0.00" speed="18.73" departed="0" arrived="0" entered="3" left="0" laneChangedFrom="0" laneChangedTo="0"/>
    </interval>
    <interval begin="125.00" end="150.00" id="dump_25">
        <edge id="beg" sampledSeconds="62.24" traveltime="25.34" density="4.99" occupancy="1.50" waitingTime="0.00" speed="19.68" departed="2" arrived="0" entered="0" left="3" laneChangedFrom="0" laneChangedTo="0"/>
        <edge id="end" sampledSeconds="36.50" traveltime="28.34" density="2.93" occupancy="0.88" waitingTime="0.00" speed="17.59" departed="0" arrived="0" entered="5" left="0" laneChangedFrom="0" laneChangedTo="0"/>
        <edge id="middle" sampledSeconds="251.77" traveltime="40.00" density="10.17" occupancy="3.05" waitingTime="0.00" speed="24.76" departed="0" arrived="0" entered="3" left="5" laneChangedFrom="0" laneChangedTo="0"/>
    </interval>
    <interval begin="150.00" end="175.00" id="dump_25">
        <edge id="beg" sampledSeconds="64.99" traveltime="24.99" density="5.21" occupancy="1.56" waitingTime="0.00" speed="19.95" departed="3" arrived="0" entered="0" left="2" laneChangedFrom="0" laneChangedTo="0"/>
        <edge id="end" sampledSeconds="169.59" traveltime="21.71" density="13.61" occupancy="4.08" waitingTime="0.00" speed="22.96" departed="0" arrived="0" entered="7" left="6" laneChangedFrom="0" laneChangedTo="0"/>
        <edge id="middle" sampledSeconds="124.74" traveltime="45.00" density="5.04" occupancy="1.51" waitingTime="0.00" speed="22.01" departed="0" arrived="0" entered="2" left="7" laneChangedFrom="0" laneChangedTo="0"/>
        <edge id="rend" sampledSeconds="54.93" traveltime="18.42" density="4.39" occupancy="1.32" waitingTime="0.00" speed="27.14" departed="0" arrived="0" entered="6" left="0" laneChangedFrom="0" laneChangedTo="0"/>
    </interval>
    <interval begin="175.00" end="200.00" id="dump_25">
        <edge id="beg" sampledSeconds="61.38" traveltime="25.13" density="4.92" occupancy="1.48" waitingTime="0.00" speed="19.84" departed="2" arrived="0" entered="0" left="3" laneChangedFrom="0" laneChangedTo="0"/>
        <edge id="end" sampledSeconds="89.73" traveltime="20.17" density="7.20" occupancy="2.16" waitingTime="0.00" speed="24.72" departed="0" arrived="0" entered="3" left="7" laneChangedFrom="0" laneChangedTo="0"/>
        <edge id="middle" sampledSeconds="80.75" traveltime="31.65" density="3.26" occupancy="0.98" waitingTime="0.00" speed="31.29" departed="0" arrived="0" entered="3" left="3" laneChangedFrom="0" laneChangedTo="0"/>
        <edge id="rend" sampledSeconds="144.63" traveltime="18.47" density="11.57" occupancy="3.47" waitingTime="0.00" speed="27.07" departed="0" arrived="8" entered="7" left="0" laneChangedFrom="0" laneChangedTo="0"/>
    </interval>
    <interval begin="200.00" end="225.00" id="dump_25">
        <edge id="beg" sampledSeconds="64.62" traveltime="25.56" density="5.18" occupancy="1.56" waitingTime="0.00" speed="19.50" departed="3" arrived="0" entered="0" left="2" laneChangedFrom="0" laneChangedTo="0"/>
        <edge id="end" sampledSeconds="53.97" traveltime="21.32" density="4.33" occupancy="1.30" waitingTime="0.00" speed="23.39" departed="0" arrived="0" entered="2" left="2" laneChangedFrom="0" laneChangedTo="0"/>
        <edge id="middle" sampledSeconds="77.39" traveltime="31.50" density="3.13" occupancy="0.94" waitingTime="0.00" speed="31.45" departed="0" arrived="0" entered="2" left="2" laneChangedFrom="0" laneChangedTo="0"/>
        <edge id="rend" sampledSeconds="61.95" traveltime="18.47" density="4.96" occupancy="1.49" waitingTime="0.00" speed="27.08" departed="0" arrived="5" entered="2" left="0" laneChangedFrom="0" laneChangedTo="0"/>
    </interval>
    <interval begin="225.00" end="250.00" id="dump_25">
        <edge id="beg" sampledSeconds="62.51" traveltime="25.08" density="5.02" occupancy="1.50" waitingTime="0.00" speed="19.87" departed="2" arrived="0" entered="0" left="3" laneChangedFrom="0" laneChangedTo="0"/>
        <edge id="end" sampledSeconds="51.75" traveltime="21.20" density="4.15" occupancy="1.25" waitingTime="0.00" speed="23.52" departed="0" arrived="0" entered="3" left="3" laneChangedFrom="0" laneChangedTo="0"/>
        <edge id="middle" sampledSeconds="80.74" traveltime="32.04" density="3.26" occupancy="0.98" waitingTime="0.00" speed="30.92" departed="0" arrived="0" entered="3" left="3" laneChangedFrom="0" laneChangedTo="0"/>
        <edge id="rend" sampledSeconds="46.68" traveltime="18.46" density="3.73" occupancy="1.12" waitingTime="0.00" speed="27.09" departed="0" arrived="3" entered="3" left="0" laneChangedFrom="0" laneChangedTo="0"/>
    </interval>
    <interval begin="250.00" end="275.00" id="dump_25">
        <edge id="beg" sampledSeconds="65.15" traveltime="25.72" density="5.23" occupancy="1.57" waitingTime="0.00" speed="19.38" departed="3" arrived="0" entered="0" left="2" laneChangedFrom="0" laneChangedTo="0"/>
        <edge id="end" sampledSeconds="53.86" traveltime="22.44" density="4.32" occupancy="1.30" waitingTime="0.00" speed="22.22" departed="0" arrived="0" entered="2" left="2" laneChangedFrom="0" laneChangedTo="0"/>
        <edge id="middle" sampledSeconds="79.35" traveltime="31.76" density="3.20" occupancy="0.96" waitingTime="0.00" speed="31.18" departed="0" arrived="0" entered="2" left="2" laneChangedFrom="0" laneChangedTo="0"/>
        <edge id="rend" sampledSeconds="43.43" traveltime="18.43" density="3.47" occupancy="1.04" waitingTime="0.00" speed="27.12" departed="0" arrived="2" entered="2" left="0" laneChangedFrom="0" laneChangedTo="0"/>
    </interval>
    <interval begin="275.00" end="300.00" id="dump_25">
        <edge id="beg" sampledSeconds="62.37" traveltime="24.81" density="5.00" occupancy="1.50" waitingTime="0.00" speed="20.09" departed="2" arrived="0" entered="0" left="3" laneChangedFrom="0" laneChangedTo="0"/>
        <edge id="end" sampledSeconds="56.65" traveltime="21.22" density="4.55" occupancy="1.36" waitingTime="0.00" speed="23.49" departed="0" arrived="0" entered="3" left="2" laneChangedFrom="0" laneChangedTo="0"/>
        <edge id="middle" sampledSeconds="80.05" traveltime="31.85" density="3.23" occupancy="0.97" waitingTime="0.00" speed="31.10" departed="0" arrived="0" entered="3" left="3" laneChangedFrom="0" laneChangedTo="0"/>
        <edge id="rend" sampledSeconds="47.10" traveltime="18.45" density="3.77" occupancy="1.13" waitingTime="0.00" speed="27.10" departed="0" arrived="2" entered="2" left="0" laneChangedFrom="0" laneChangedTo="0"/>
    </interval>
    <interval begin="300.00" end="325.00" id="dump_25">
        <edge id="beg" sampledSeconds="22.46" traveltime="19.62" density="1.80" occupancy="0.54" waitingTime="0.00" speed="25.42" departed="0" arrived="0" entered="0" left="2" laneChangedFrom="0" laneChangedTo="0"/>
        <edge id="end" sampledSeconds="52.37" traveltime="21.91" density="4.20" occupancy="1.26" waitingTime="0.00" speed="22.75" departed="0" arrived="0" entered="2" left="3" laneChangedFrom="0" laneChangedTo="0"/>
        <edge id="middle" sampledSeconds="79.63" traveltime="31.81" density="3.22" occupancy="0.96" waitingTime="0.00" speed="31.14" departed="0" arrived="0" entered="2" left="2" laneChangedFrom="0" laneChangedTo="0"/>
        <edge id="rend" sampledSeconds="48.51" traveltime="18.50" density="3.88" occupancy="1.16" waitingTime="0.00" speed="27.03" departed="0" arrived="3" entered="3" left="0" laneChangedFrom="0" laneChangedTo="0"/>
    </interval>
    <interval begin="325.00" end="350.00" id="dump_25">
        <edge id="end" sampledSeconds="56.23" traveltime="21.00" density="4.51" occupancy="1.35" waitingTime="0.00" speed="23.74" departed="0" arrived="0" entered="3" left="3" laneChangedFrom="0" laneChangedTo="0"/>
        <edge id="middle" sampledSeconds="39.74" traveltime="36.37" density="1.60" occupancy="0.48" waitingTime="0.00" speed="27.23" departed="0" arrived="0" entered="0" left="3" laneChangedFrom="0" laneChangedTo="0"/>
        <edge id="rend" sampledSeconds="44.93" traveltime="18.42" density="3.59" occupancy="1.08" waitingTime="0.00" speed="27.14" departed="0" arrived="3" entered="3" left="0" laneChangedFrom="0" laneChangedTo="0"/>
    </interval>
    <interval begin="350.00" end="375.00" id="dump_25">
        <edge id="end" sampledSeconds="30.32" traveltime="19.90" density="2.43" occupancy="0.73" waitingTime="0.00" speed="25.05" departed="0" arrived="0" entered="0" left="2" laneChangedFrom="0" laneChangedTo="0"/>
        <edge id="rend" sampledSeconds="47.20" traveltime="18.44" density="3.78" occupancy="1.13" waitingTime="0.00" speed="27.11" departed="0" arrived="2" entered="2" left="0" laneChangedFrom="0" laneChangedTo="0"/>
    </interval>
    <interval begin="375.00" end="400.00" id="dump_25">
        <edge id="rend" sampledSeconds="17.17" traveltime="18.47" density="1.37" occupancy="0.41" waitingTime="0.00" speed="27.07" departed="0" arrived="2" entered="0" left="0" laneChangedFrom="0" laneChangedTo="0"/>
    </interval>
    <interval begin="400.00" end="425.00" id="dump_25">
    </interval>
    <interval begin="425.00" end="450.00" id="dump_25">
    </interval>
    <interval begin="450.00" end="475.00" id="dump_25">
    </interval>
    <interval begin="475.00" end="500.00" id="dump_25">
    </interval>
    <interval begin="500.00" end="525.00" id="dump_25">
    </interval>
    <interval begin="525.00" end="550.00" id="dump_25">
    </interval>
    <interval begin="550.00" end="575.00" id="dump_25">
    </interval>
    <interval begin="575.00" end="600.00" id="dump_25">
    </interval>
    <interval begin="600.00" end="625.00" id="dump_25">
    </interval>
    <interval begin="625.00" end="650.00" id="dump_25">
    </interval>
    <interval begin="650.00" end="675.00" id="dump_25">
    </interval>
    <interval begin="675.00" end="700.00" id="dump_25">
    </interval>
    <interval begin="700.00" end="725.00" id="dump_25">
    </interval>
    <interval begin="725.00" end="750.00" id="dump_25">
    </interval>
    <interval begin="750.00" end="775.00" id="dump_25">
    </interval>
    <interval begin="775.00" end="800.00" id="dump_25">
    </interval>
    <interval begin="800.00" end="825.00" id="dump_25">
    </interval>
    <interval begin="825.00" end="850.00" id="dump_25">
    </interval>
    <interval begin="850.00" end="875.00" id="dump_25">
    </interval>
    <interval begin="875.00" end="900.00" id="dump_25">
    </interval>
    <interval begin="900.00" end="925.00" id="dump_25">
    </interval>
    <interval begin="925.00" end="950.00" id="dump_25">
    </interval>
    <interval begin="950.00" end="975.00" id="dump_25">
    </interval>
    <interval begin="975.00" end="1000.00" id="dump_25">
    </interval>
</netstats>
