<edges>
   <edge id="1fi" spreadType="center"/>
</edges>
