<tlLogics>
    <tlLogic id="0" type="actuated" programID="0" offset="0">
        <phase duration="31" state="GGggrrrrGGggrrrr"/>
        <phase duration="3" state="yyggrrrryyggrrrr"/>
        <phase duration="6" state="rrGGrrrrrrGGrrrr"/>
        <phase duration="3" state="rryyrrrrrryyrrrr"/>
        <phase duration="31" state="rrrrGGggrrrrGGgg"/>
        <phase duration="3" state="rrrryyggrrrryygg"/>
        <phase duration="6" state="rrrrrrGGrrrrrrGG"/>
        <phase duration="3" state="rrrrrryyrrrrrryy"/>
    </tlLogic>
</tlLogics>
