<?xml version="1.0" encoding="UTF-8"?>
<routes>
  <route id="route0" multi_ref="x">1 2</route>
  <vehicle depart="1" id="route0" route="route0"/>
</routes>