<?xml version="1.0"?>

<!-- generated on 03/18/10 14:23:57 by SUMO duarouter Version dev-SVN-r8460
<configuration>

    <input>
        <net-file value="input_net.net.xml"/>
        <alternatives value="input_alts.rou.alt.xml"/>
    </input>

    <output>
        <output-file value="routes.rou.xml"/>
    </output>

</configuration>
-->

<route-alternatives>
   <vType id="0" length="3.00" minGap="2.00" maxSpeed="70.00" color="1.00,1.00,0.00">
      <carFollowing-Krauss accel="2.60" decel="4.50" sigma="0.50"/>
   </vType>
    <vehicle id="0" type="0" depart="0.00" color="0.00,0.00,0.00">
        <routeDistribution last="0">
            <route cost="125.11" probability="1.00000000" edges="beg middle end rend"/>
        </routeDistribution>
    </vehicle>
   <vType id="1" length="3.00" minGap="2.00" maxSpeed="70.00" color="1.00,1.00,0.00">
      <carFollowing-Krauss accel="2.60" decel="4.50" sigma="0.50"/>
   </vType>
    <vehicle id="1" type="1" depart="0.00" color="0.00,0.00,0.00">
        <routeDistribution last="0">
            <route cost="125.11" probability="1.00000000" edges="beg middle end rend"/>
        </routeDistribution>
    </vehicle>
    <vehicle id="10" type="0" depart="10.00" color="0.00,0.00,0.00">
        <routeDistribution last="0">
            <route cost="125.11" probability="1.00000000" edges="beg middle end rend"/>
        </routeDistribution>
    </vehicle>
    <vehicle id="11" type="1" depart="10.00" color="0.00,0.00,0.00">
        <routeDistribution last="0">
            <route cost="125.11" probability="1.00000000" edges="beg middle end rend"/>
        </routeDistribution>
    </vehicle>
</route-alternatives>
