<?xml version="1.0" encoding="UTF-8"?>

<!-- generated on 2023-01-12 14:01:59 by Eclipse SUMO netedit Version v1_15_0+1600-19d4f46
<configuration xmlns:xsi="http://www.w3.org/2001/XMLSchema-instance" xsi:noNamespaceSchemaLocation="http://sumo.dlr.de/xsd/netconvertConfiguration.xsd">

    <input>
        <sumo-net-file value="net.netconvert"/>
    </input>

    <processing>
        <geometry.min-radius.fix.railways value="false"/>
        <geometry.max-grade.fix value="false"/>
        <offset.disable-normalization value="true"/>
        <lefthand value="0"/>
    </processing>

    <junctions>
        <no-internal-links value="true"/>
        <no-turnarounds value="true"/>
        <junctions.corner-detail value="5"/>
        <junctions.limit-turn-speed value="5.50"/>
        <rectangular-lane-cut value="0"/>
    </junctions>

    <pedestrian>
        <walkingareas value="0"/>
    </pedestrian>

</configuration>
-->

<nodes version="1.9" xmlns:xsi="http://www.w3.org/2001/XMLSchema-instance" xsi:noNamespaceSchemaLocation="http://sumo.dlr.de/xsd/nodes_file.xsd">
    <location netOffset="0.00,0.00" convBoundary="0.00,100.00,200.00,300.00" origBoundary="0.00,0.00,300.00,300.00" projParameter="!"/>

    <node id="A0" x="100.00" y="100.00"/>
    <node id="A1" x="100.00" y="200.00"/>
    <node id="B1" x="200.00" y="200.00"/>
    <node id="left1" x="0.00" y="200.00" type="priority" fringe="outer"/>
    <node id="top0" x="100.00" y="300.00" type="priority" fringe="outer"/>
</nodes>
