<?xml version="1.0" encoding="UTF-8"?>

<!-- generated on 2022-08-17 14:54:03.837062 by generateRailSignalConstraints.py v1_14_1+0368-e7e59ad
<configuration>
    <abort-unordered value="True"/>
    <additional-file value="input_additional.add.xml"/>
    <debug-stop value="stop_b"/>
    <net-file value="net.net.xml"/>
    <output-file value="out.add.xml"/>
    <route-file value="input_routes.rou.xml"/>
    <verbose value="True"/>
</configuration>
-->

<additional xmlns:xsi="http://www.w3.org/2001/XMLSchema-instance" xsi:noNamespaceSchemaLocation="http://sumo.dlr.de/xsd/additional_file.xsd">
    <railSignalConstraints id="A">
        <predecessor tripId="t2" tl="J2" foes="t1"/>   <!-- (foeInsertion foeStop=stop_-b)  -->
    </railSignalConstraints>
</additional>
