<?xml version="1.0" encoding="UTF-8"?>
<routes xmlns:xsi="http://www.w3.org/2001/XMLSchema-instance" xsi:noNamespaceSchemaLocation="https://sumo.dlr.de/xsd/routes_file.xsd">
	
	<vType id="DEFAULT_VEHTYPE" sigma="0">
	    <param key="parking.distance.weight" value="1"/>
    </vType>

    <vehicle id="ego" depart="triggered" arrivalPos="45">
        <route edges="A0B0 B0C0 C0D0 D0D1"/>
		<stop parkingArea="parkD0D1" duration="100"/>
    </vehicle>

    <person id="egoPerson" depart="0">
        <ride from="A0B0" to="D0D1" lines="ego"/>
        <walk from="D0D1" to="C1D1"/>
        <stop lane="C1D1_0" endPos="45" duration="100"/>
    </person>
	
    <!-- vehicles to occupy parkingAreas -->
    <flow id="occupy_parkD0D1" begin="0" end="5" number="2">
        <route edges="D0D1"/>
		<stop parkingArea="parkD0D1" duration="100"/>
    </flow>
</routes>
