<additional xmlns:xsi="http://www.w3.org/2001/XMLSchema-instance" xsi:noNamespaceSchemaLocation="http://sumo.dlr.de/xsd/additional_file.xsd">
    <entryExitDetector id="entryExitDetector_0" period="100.00" file="entryExitDetector_0.txt" timeThreshold="1.00" speedThreshold="1.39" pos="-9.88,24.71">
        <detEntry lane="EdgeCenter0_0" pos="19.25"/>
        <detEntry lane="EdgeCenter1_1" pos="21.14"/>
        <detEntry lane="EdgeCenter1_0" pos="23.63"/>
        <detEntry lane="EdgeCenter1_1" pos="26.64"/>
        <detEntry lane="Edge5_1" pos="28.96"/>
        <detEntry lane="Edge3_1" pos="18.55"/>
        <detEntry lane="E5_1" pos="33.51"/>
        <detEntry lane="E4_1" pos="14.69"/>
        <detExit lane="E1_1" pos="10.69"/>
    </entryExitDetector>
</additional>
