<?xml version="1.0" encoding="UTF-8"?>
<!-- generated on 2021-10-23 23:47:07.019283 by netdiff.py v1_10_0+1647-f5bbe16
<configuration>
    <write-shapes value="True"/>
</configuration>

-->
<additional xmlns:xsi="http://www.w3.org/2001/XMLSchema-instance" xsi:noNamespaceSchemaLocation="http://sumo.dlr.de/xsd/additional_file.xsd">
<poly id="cluster_301292612_38919945_56231397_59993001" type="node" shape="47.17,62.29 54.14,47.09 53.23,45.04 31.50,39.48 29.30,42.11 27.85,55.65" fill="True" layer="11" color="green"/>
<additional>
