<?xml version="1.0" encoding="UTF-8"?>

<!-- generated on Thu Mar 26 14:16:46 2020 by Eclipse SUMO netconvert Version v1_5_0+0956-19fffc391b
This data file and the accompanying materials
are made available under the terms of the Eclipse Public License v2.0
which accompanies this distribution, and is available at
http://www.eclipse.org/legal/epl-v20.html
SPDX-License-Identifier: EPL-2.0
<configuration xmlns:xsi="http://www.w3.org/2001/XMLSchema-instance" xsi:noNamespaceSchemaLocation="http://sumo.dlr.de/xsd/netconvertConfiguration.xsd">

    <input>
        <osm-files value="osm.xml"/>
    </input>

    <output>
        <write-license value="true"/>
    </output>

    <projection>
        <proj.utm value="true"/>
    </projection>

    <processing>
        <geometry.remove value="true"/>
    </processing>

    <tls_building>
        <tls.discard-simple value="true"/>
        <tls.guess-signals value="true"/>
    </tls_building>

    <edge_removal>
        <keep-edges.components value="1"/>
    </edge_removal>

    <junctions>
        <junctions.join value="true"/>
    </junctions>

    <report>
        <xml-validation value="never"/>
        <aggregate-warnings value="5"/>
    </report>

</configuration>
-->

<net version="1.6" junctionCornerDetail="5" limitTurnSpeed="5.50" xmlns:xsi="http://www.w3.org/2001/XMLSchema-instance" xsi:noNamespaceSchemaLocation="http://sumo.dlr.de/xsd/net_file.xsd">

    <location netOffset="-355467.74,-5643764.77" convBoundary="0.00,0.00,876.11,761.00" origBoundary="6.942815,50.927427,6.959964,50.940258" projParameter="+proj=utm +zone=32 +ellps=WGS84 +datum=WGS84 +units=m +no_defs"/>

    <type id="highway.bridleway" priority="1" numLanes="1" speed="2.78" allow="pedestrian" oneway="1" width="2.00"/>
    <type id="highway.bus_guideway" priority="1" numLanes="1" speed="27.78" allow="bus" oneway="1"/>
    <type id="highway.cycleway" priority="1" numLanes="1" speed="8.33" allow="bicycle" oneway="0" width="1.00"/>
    <type id="highway.footway" priority="1" numLanes="1" speed="2.78" allow="pedestrian" oneway="1" width="2.00"/>
    <type id="highway.ford" priority="1" numLanes="1" speed="2.78" allow="army" oneway="0"/>
    <type id="highway.living_street" priority="2" numLanes="1" speed="2.78" disallow="tram rail_urban rail rail_electric rail_fast ship" oneway="0"/>
    <type id="highway.motorway" priority="14" numLanes="2" speed="39.44" allow="private emergency authority army vip passenger hov taxi bus coach delivery truck trailer motorcycle evehicle custom1 custom2" oneway="1"/>
    <type id="highway.motorway_link" priority="9" numLanes="1" speed="22.22" allow="private emergency authority army vip passenger hov taxi bus coach delivery truck trailer motorcycle evehicle custom1 custom2" oneway="1"/>
    <type id="highway.path" priority="1" numLanes="1" speed="2.78" allow="pedestrian bicycle" oneway="1" width="2.00"/>
    <type id="highway.pedestrian" priority="1" numLanes="1" speed="2.78" allow="pedestrian" oneway="1" width="2.00"/>
    <type id="highway.primary" priority="12" numLanes="2" speed="27.78" disallow="tram rail_urban rail rail_electric rail_fast ship" oneway="0"/>
    <type id="highway.primary_link" priority="7" numLanes="1" speed="22.22" disallow="tram rail_urban rail rail_electric rail_fast ship" oneway="0"/>
    <type id="highway.raceway" priority="15" numLanes="2" speed="83.33" allow="vip" oneway="0"/>
    <type id="highway.residential" priority="3" numLanes="1" speed="13.89" disallow="tram rail_urban rail rail_electric rail_fast ship" oneway="0"/>
    <type id="highway.secondary" priority="11" numLanes="1" speed="27.78" disallow="tram rail_urban rail rail_electric rail_fast ship" oneway="0"/>
    <type id="highway.secondary_link" priority="6" numLanes="1" speed="22.22" disallow="tram rail_urban rail rail_electric rail_fast ship" oneway="0"/>
    <type id="highway.service" priority="1" numLanes="1" speed="5.56" allow="pedestrian delivery bicycle" oneway="0"/>
    <type id="highway.stairs" priority="1" numLanes="1" speed="1.39" allow="pedestrian" oneway="1" width="2.00"/>
    <type id="highway.step" priority="1" numLanes="1" speed="1.39" allow="pedestrian" oneway="1" width="2.00"/>
    <type id="highway.steps" priority="1" numLanes="1" speed="1.39" allow="pedestrian" oneway="1" width="2.00"/>
    <type id="highway.tertiary" priority="10" numLanes="1" speed="22.22" disallow="tram rail_urban rail rail_electric rail_fast ship" oneway="0"/>
    <type id="highway.tertiary_link" priority="5" numLanes="1" speed="22.22" disallow="tram rail_urban rail rail_electric rail_fast ship" oneway="0"/>
    <type id="highway.track" priority="1" numLanes="1" speed="5.56" disallow="tram rail_urban rail rail_electric rail_fast ship" oneway="0"/>
    <type id="highway.trunk" priority="13" numLanes="2" speed="27.78" disallow="pedestrian bicycle tram rail_urban rail rail_electric rail_fast ship" oneway="0"/>
    <type id="highway.trunk_link" priority="8" numLanes="1" speed="22.22" disallow="pedestrian bicycle tram rail_urban rail rail_electric rail_fast ship" oneway="0"/>
    <type id="highway.unclassified" priority="4" numLanes="1" speed="13.89" disallow="tram rail_urban rail rail_electric rail_fast ship" oneway="0"/>
    <type id="highway.unsurfaced" priority="1" numLanes="1" speed="8.33" disallow="tram rail_urban rail rail_electric rail_fast ship" oneway="0"/>
    <type id="railway.highspeed" priority="21" numLanes="1" speed="69.44" allow="rail_fast" oneway="1"/>
    <type id="railway.light_rail" priority="19" numLanes="1" speed="27.78" allow="rail_urban" oneway="1"/>
    <type id="railway.preserved" priority="16" numLanes="1" speed="27.78" allow="rail" oneway="1"/>
    <type id="railway.rail" priority="20" numLanes="1" speed="44.44" allow="rail" oneway="1"/>
    <type id="railway.subway" priority="18" numLanes="1" speed="27.78" allow="rail_urban" oneway="1"/>
    <type id="railway.tram" priority="17" numLanes="1" speed="13.89" allow="tram" oneway="1"/>

    <edge id=":1093872774_0" function="internal">
        <lane id=":1093872774_0_0" index="0" disallow="tram rail_urban rail rail_electric rail_fast ship" speed="7.58" length="7.56" shape="482.20,352.42 481.38,350.26 480.34,348.60 479.10,347.46 477.64,346.82"/>
    </edge>
    <edge id=":1093872774_1" function="internal">
        <lane id=":1093872774_1_0" index="0" disallow="tram rail_urban rail rail_electric rail_fast ship" speed="13.89" length="8.26" shape="485.69,348.73 477.64,346.82"/>
        <lane id=":1093872774_1_1" index="1" disallow="tram rail_urban rail rail_electric rail_fast ship" speed="13.89" length="8.26" shape="486.43,345.62 478.39,343.71"/>
        <lane id=":1093872774_1_2" index="2" disallow="tram rail_urban rail rail_electric rail_fast ship" speed="13.89" length="8.26" shape="487.17,342.51 479.15,340.60"/>
    </edge>
    <edge id=":1093872785_0" function="internal">
        <lane id=":1093872785_0_0" index="0" disallow="tram rail_urban rail rail_electric rail_fast ship" speed="8.33" length="9.02" shape="329.23,402.26 324.95,394.32"/>
    </edge>
    <edge id=":1093872785_1" function="internal">
        <lane id=":1093872785_1_0" index="0" disallow="tram rail_urban rail rail_electric rail_fast ship" speed="3.65" length="4.67" shape="329.23,402.26 329.38,400.83 329.90,400.10 330.80,400.08 332.06,400.77"/>
    </edge>
    <edge id=":1093872785_2" function="internal">
        <lane id=":1093872785_2_0" index="0" disallow="tram rail_urban rail rail_electric rail_fast ship" speed="8.33" length="9.11" shape="327.74,392.76 332.06,400.77"/>
    </edge>
    <edge id=":1093872785_3" function="internal">
        <lane id=":1093872785_3_0" index="0" disallow="tram rail_urban rail rail_electric rail_fast ship" speed="3.65" length="4.67" shape="327.74,392.76 327.63,394.19 327.13,394.93 326.24,394.98 324.95,394.32"/>
    </edge>
    <edge id=":1093872785_4" function="internal">
        <lane id=":1093872785_4_0" index="0" disallow="tram rail_urban rail rail_electric rail_fast ship" speed="7.12" length="7.97" shape="323.52,401.65 324.86,399.71 325.54,397.84 325.57,396.04 324.95,394.32"/>
    </edge>
    <edge id=":1093872785_5" function="internal">
        <lane id=":1093872785_5_0" index="0" disallow="tram rail_urban rail rail_electric rail_fast ship" speed="6.29" length="10.84" shape="323.52,401.65 326.13,399.13 328.43,398.14 330.40,398.69 332.06,400.77"/>
    </edge>
    <edge id=":1342070218_0" function="internal">
        <lane id=":1342070218_0_0" index="0" disallow="tram rail_urban rail rail_electric rail_fast ship" speed="8.33" length="4.34" shape="486.10,385.36 485.99,389.70"/>
    </edge>
    <edge id=":1342070218_1" function="internal">
        <lane id=":1342070218_1_0" index="0" disallow="tram rail_urban rail rail_electric rail_fast ship" speed="3.65" length="4.67" shape="486.10,385.36 485.31,386.57 484.51,386.97 483.71,386.57 482.90,385.38"/>
    </edge>
    <edge id=":1342070218_2" function="internal">
        <lane id=":1342070218_2_0" index="0" disallow="tram rail_urban rail rail_electric rail_fast ship" speed="8.33" length="4.17" shape="482.80,389.55 482.90,385.38"/>
    </edge>
    <edge id=":1342070218_3" function="internal">
        <lane id=":1342070218_3_0" index="0" disallow="tram rail_urban rail rail_electric rail_fast ship" speed="3.65" length="4.67" shape="482.80,389.55 483.65,388.39 484.47,388.02 485.25,388.46 485.99,389.70"/>
    </edge>
    <edge id=":1352568_0" function="internal">
        <lane id=":1352568_0_0" index="0" disallow="tram rail_urban rail rail_electric rail_fast ship" speed="6.42" length="9.04" shape="167.19,409.52 164.86,408.67 162.83,408.79 161.12,409.88 159.73,411.94"/>
    </edge>
    <edge id=":1352568_1" function="internal">
        <lane id=":1352568_1_0" index="0" disallow="tram rail_urban rail rail_electric rail_fast ship" speed="8.33" length="11.21" shape="164.65,401.87 159.73,411.94"/>
    </edge>
    <edge id=":1352576_0" function="internal">
        <lane id=":1352576_0_0" index="0" disallow="tram rail_urban rail rail_electric rail_fast ship" speed="6.10" length="7.52" shape="217.34,440.55 217.74,438.92 217.33,437.40 216.13,435.97 214.14,434.64"/>
    </edge>
    <edge id=":1352576_1" function="internal">
        <lane id=":1352576_1_0" index="0" disallow="tram rail_urban rail rail_electric rail_fast ship" speed="8.33" length="9.13" shape="217.34,440.55 221.41,432.37"/>
    </edge>
    <edge id=":1352579_0" function="internal">
        <lane id=":1352579_0_0" index="0" disallow="tram rail_urban rail rail_electric rail_fast ship" speed="13.89" length="9.22" shape="301.25,348.61 299.20,346.65 296.63,346.38 294.08,346.07 292.06,344.01"/>
        <lane id=":1352579_0_1" index="1" disallow="tram rail_urban rail rail_electric rail_fast ship" speed="13.89" length="9.22" shape="301.25,348.61 299.73,346.60 298.08,345.68 296.44,344.74 294.98,342.70"/>
        <lane id=":1352579_0_2" index="2" disallow="tram rail_urban rail rail_electric rail_fast ship" speed="13.89" length="9.22" shape="301.25,348.61 297.90,341.39"/>
    </edge>
    <edge id=":1352579_3" function="internal">
        <lane id=":1352579_3_0" index="0" disallow="tram rail_urban rail rail_electric rail_fast ship" speed="13.89" length="7.87" shape="300.82,340.09 304.14,347.22"/>
    </edge>
    <edge id=":1352581_0" function="internal">
        <lane id=":1352581_0_0" index="0" disallow="tram rail_urban rail rail_electric rail_fast ship" speed="11.11" length="11.50" shape="315.93,378.22 310.61,368.03"/>
    </edge>
    <edge id=":1352581_1" function="internal">
        <lane id=":1352581_1_0" index="0" disallow="tram rail_urban rail rail_electric rail_fast ship" speed="3.65" length="2.34" shape="315.93,378.22 316.04,376.78 316.54,376.04"/>
    </edge>
    <edge id=":1352581_6" function="internal">
        <lane id=":1352581_6_0" index="0" disallow="tram rail_urban rail rail_electric rail_fast ship" speed="3.65" length="2.34" shape="316.54,376.04 317.44,376.00 318.72,376.65"/>
    </edge>
    <edge id=":1352581_2" function="internal">
        <lane id=":1352581_2_0" index="0" disallow="tram rail_urban rail rail_electric rail_fast ship" speed="5.86" length="7.60" shape="319.40,370.07 318.05,371.07 317.49,372.50 317.71,374.36 318.72,376.65"/>
    </edge>
    <edge id=":1352581_3" function="internal">
        <lane id=":1352581_3_0" index="0" disallow="tram rail_urban rail rail_electric rail_fast ship" speed="6.93" length="10.19" shape="319.40,370.07 316.45,371.03 314.00,371.01 312.05,370.01 310.61,368.03"/>
    </edge>
    <edge id=":1352581_4" function="internal">
        <lane id=":1352581_4_0" index="0" disallow="tram rail_urban rail rail_electric rail_fast ship" speed="11.11" length="11.30" shape="313.49,366.64 318.72,376.65"/>
    </edge>
    <edge id=":1352581_5" function="internal">
        <lane id=":1352581_5_0" index="0" disallow="tram rail_urban rail rail_electric rail_fast ship" speed="3.65" length="2.34" shape="313.49,366.64 313.29,368.06 312.75,368.77"/>
    </edge>
    <edge id=":1352581_7" function="internal">
        <lane id=":1352581_7_0" index="0" disallow="tram rail_urban rail rail_electric rail_fast ship" speed="3.65" length="2.34" shape="312.75,368.77 311.85,368.76 310.61,368.03"/>
    </edge>
    <edge id=":1352585_0" function="internal">
        <lane id=":1352585_0_0" index="0" disallow="tram rail_urban rail rail_electric rail_fast ship" speed="8.33" length="9.49" shape="293.46,519.59 292.95,510.11"/>
    </edge>
    <edge id=":1352585_1" function="internal">
        <lane id=":1352585_1_0" index="0" allow="pedestrian delivery bicycle" speed="6.12" length="7.88" shape="293.46,519.59 293.43,516.83 293.88,514.82 294.81,513.56 296.21,513.04"/>
    </edge>
    <edge id=":1352585_2" function="internal">
        <lane id=":1352585_2_0" index="0" allow="pedestrian delivery bicycle" speed="6.02" length="7.92" shape="296.47,516.23 294.99,515.96 293.91,514.84 293.23,512.90 292.95,510.11"/>
    </edge>
    <edge id=":1352585_3" function="internal">
        <lane id=":1352585_3_0" index="0" allow="pedestrian delivery bicycle" speed="3.65" length="4.67" shape="296.47,516.23 295.21,515.54 294.75,514.77 295.08,513.94 296.21,513.04"/>
    </edge>
    <edge id=":1352604_0" function="internal">
        <lane id=":1352604_0_0" index="0" disallow="tram rail_urban rail rail_electric rail_fast ship" speed="6.78" length="9.59" shape="139.92,321.35 141.01,323.88 142.56,325.50 144.56,326.21 147.02,326.01"/>
    </edge>
    <edge id=":1352604_1" function="internal">
        <lane id=":1352604_1_0" index="0" disallow="tram rail_urban rail rail_electric rail_fast ship" speed="3.65" length="4.67" shape="139.92,321.35 139.49,322.73 138.83,323.33 137.95,323.17 136.85,322.24"/>
    </edge>
    <edge id=":1352604_2" function="internal">
        <lane id=":1352604_2_0" index="0" disallow="tram rail_urban rail rail_electric rail_fast ship" speed="6.18" length="9.05" shape="132.64,328.58 135.09,327.93 136.61,326.65 137.20,324.75 136.85,322.24"/>
    </edge>
    <edge id=":1352604_3" function="internal">
        <lane id=":1352604_3_0" index="0" disallow="tram rail_urban rail rail_electric rail_fast ship" speed="8.33" length="14.62" shape="132.64,328.58 136.30,328.10 139.87,327.52 143.42,326.83 147.02,326.01"/>
    </edge>
    <edge id=":1352628_0" function="internal">
        <lane id=":1352628_0_0" index="0" disallow="tram rail_urban rail rail_electric rail_fast ship" speed="8.33" length="9.67" shape="360.23,462.43 359.21,459.74 358.47,457.92 357.62,456.15 356.29,453.60"/>
    </edge>
    <edge id=":1352628_1" function="internal">
        <lane id=":1352628_1_0" index="0" disallow="tram rail_urban rail rail_electric rail_fast ship" speed="7.12" length="10.98" shape="360.23,462.43 359.93,460.15 360.83,458.09 362.92,456.27 366.22,454.68"/>
    </edge>
    <edge id=":1352628_2" function="internal">
        <lane id=":1352628_2_0" index="0" disallow="tram rail_urban rail rail_electric rail_fast ship" speed="3.65" length="4.67" shape="360.23,462.43 360.56,461.02 361.16,460.37 362.05,460.46 363.22,461.31"/>
    </edge>
    <edge id=":1352628_3" function="internal">
        <lane id=":1352628_3_0" index="0" disallow="tram rail_urban rail rail_electric rail_fast ship" speed="6.58" length="8.39" shape="359.12,452.11 360.43,453.92 362.05,454.95 363.98,455.20 366.22,454.68"/>
    </edge>
    <edge id=":1352628_4" function="internal">
        <lane id=":1352628_4_0" index="0" disallow="tram rail_urban rail rail_electric rail_fast ship" speed="8.33" length="10.08" shape="359.12,452.11 360.50,454.76 361.39,456.61 362.17,458.52 363.22,461.31"/>
    </edge>
    <edge id=":1352628_5" function="internal">
        <lane id=":1352628_5_0" index="0" disallow="tram rail_urban rail rail_electric rail_fast ship" speed="3.65" length="4.67" shape="359.12,452.11 358.98,453.55 358.45,454.27 357.56,454.29 356.29,453.60"/>
    </edge>
    <edge id=":1587632891_0" function="internal">
        <lane id=":1587632891_0_0" index="0" disallow="tram rail_urban rail rail_electric rail_fast ship" speed="13.89" length="15.16" shape="769.25,419.59 772.09,417.56 774.65,415.50 776.99,412.71 779.17,408.50"/>
    </edge>
    <edge id=":1587632891_1" function="internal">
        <lane id=":1587632891_1_0" index="0" disallow="tram rail_urban rail rail_electric rail_fast ship" speed="13.89" length="15.14" shape="773.61,422.63 779.17,408.50"/>
        <lane id=":1587632891_1_1" index="1" disallow="tram rail_urban rail rail_electric rail_fast ship" speed="13.89" length="15.14" shape="776.58,423.81 782.13,409.72"/>
        <lane id=":1587632891_1_2" index="2" disallow="tram rail_urban rail rail_electric rail_fast ship" speed="13.89" length="15.14" shape="779.56,424.99 785.09,410.93"/>
    </edge>
    <edge id=":1587632897_0" function="internal">
        <lane id=":1587632897_0_0" index="0" disallow="tram rail_urban rail rail_electric rail_fast ship" speed="13.79" length="14.74" shape="736.21,419.80 739.87,422.81 742.65,425.24 745.29,426.81 748.50,427.24"/>
    </edge>
    <edge id=":1587632897_1" function="internal">
        <lane id=":1587632897_1_0" index="0" disallow="tram rail_urban rail rail_electric rail_fast ship" speed="13.89" length="24.51" shape="734.31,422.37 754.28,437.23"/>
        <lane id=":1587632897_1_1" index="1" disallow="tram rail_urban rail rail_electric rail_fast ship" speed="13.89" length="24.51" shape="732.41,424.94 752.16,439.66"/>
        <lane id=":1587632897_1_2" index="2" disallow="tram rail_urban rail rail_electric rail_fast ship" speed="13.89" length="24.51" shape="730.50,427.52 750.05,442.08"/>
        <lane id=":1587632897_1_3" index="3" disallow="tram rail_urban rail rail_electric rail_fast ship" speed="13.89" length="24.51" shape="728.60,430.09 747.94,444.51"/>
    </edge>
    <edge id=":1587632904_0" function="internal">
        <lane id=":1587632904_0_0" index="0" disallow="tram rail_urban rail rail_electric rail_fast ship" speed="13.89" length="7.03" shape="745.34,473.23 745.00,471.17 744.74,469.76 744.38,468.38 743.77,466.39"/>
    </edge>
    <edge id=":1587632929_0" function="internal">
        <lane id=":1587632929_0_0" index="0" disallow="tram rail_urban rail rail_electric rail_fast ship" speed="13.89" length="12.14" shape="745.54,485.39 746.28,481.76 746.35,479.07 745.97,476.54 745.37,473.40"/>
    </edge>
    <edge id=":1587632929_1" function="internal">
        <lane id=":1587632929_1_0" index="0" disallow="tram rail_urban rail rail_electric rail_fast ship" speed="13.89" length="11.56" shape="745.54,485.39 746.64,482.03 747.72,479.84 748.85,477.67 750.10,474.36"/>
        <lane id=":1587632929_1_1" index="1" disallow="tram rail_urban rail rail_electric rail_fast ship" speed="13.89" length="11.56" shape="748.63,486.20 749.72,482.91 750.78,480.76 751.90,478.63 753.14,475.37"/>
        <lane id=":1587632929_1_2" index="2" disallow="tram rail_urban rail rail_electric rail_fast ship" speed="13.89" length="11.56" shape="751.73,487.02 752.80,483.78 753.85,481.67 754.95,479.58 756.18,476.38"/>
        <lane id=":1587632929_1_3" index="3" disallow="tram rail_urban rail rail_electric rail_fast ship" speed="13.89" length="11.56" shape="754.82,487.84 755.88,484.66 756.92,482.59 758.01,480.53 759.21,477.39"/>
        <lane id=":1587632929_1_4" index="4" disallow="tram rail_urban rail rail_electric rail_fast ship" speed="13.89" length="11.56" shape="757.91,488.66 758.96,485.53 759.99,483.50 761.06,481.49 762.25,478.40"/>
    </edge>
    <edge id=":1587632933_0" function="internal">
        <lane id=":1587632933_0_0" index="0" disallow="tram rail_urban rail rail_electric rail_fast ship" speed="20.72" length="4.49" shape="780.53,497.05 779.20,497.19 778.31,497.36 777.44,497.66 776.22,498.18"/>
    </edge>
    <edge id=":1587632938_0" function="internal">
        <lane id=":1587632938_0_0" index="0" disallow="tram rail_urban rail rail_electric rail_fast ship" speed="20.26" length="16.15" shape="801.98,505.07 798.02,501.88 794.44,500.22 791.02,499.33 787.54,498.45"/>
    </edge>
    <edge id=":1587632938_1" function="internal">
        <lane id=":1587632938_1_0" index="0" disallow="tram rail_urban rail rail_electric rail_fast ship" speed="27.78" length="16.32" shape="801.98,505.07 789.95,494.24"/>
        <lane id=":1587632938_1_1" index="1" disallow="tram rail_urban rail rail_electric rail_fast ship" speed="27.78" length="16.32" shape="804.24,502.80 792.11,491.87"/>
        <lane id=":1587632938_1_2" index="2" disallow="tram rail_urban rail rail_electric rail_fast ship" speed="27.78" length="16.32" shape="806.49,500.52 794.26,489.50"/>
    </edge>
    <edge id=":1670309329_0" function="internal">
        <lane id=":1670309329_0_0" index="0" disallow="tram rail_urban rail rail_electric rail_fast ship" speed="8.33" length="5.02" shape="484.54,297.32 485.09,302.31"/>
    </edge>
    <edge id=":1670309356_0" function="internal">
        <lane id=":1670309356_0_0" index="0" disallow="tram rail_urban rail rail_electric rail_fast ship" speed="8.33" length="5.96" shape="205.51,319.93 204.50,321.38 203.85,322.40 203.27,323.46 202.48,325.04"/>
    </edge>
    <edge id=":1670309356_1" function="internal">
        <lane id=":1670309356_1_0" index="0" disallow="tram rail_urban rail rail_electric rail_fast ship" speed="5.13" length="4.91" shape="201.23,320.85 202.27,321.68 202.83,322.65 202.90,323.77 202.48,325.04"/>
    </edge>
    <edge id=":1670309369_0" function="internal">
        <lane id=":1670309369_0_0" index="0" disallow="tram rail_urban rail rail_electric rail_fast ship" speed="13.89" length="5.53" shape="315.87,323.61 310.52,322.93"/>
        <lane id=":1670309369_0_1" index="1" disallow="tram rail_urban rail rail_electric rail_fast ship" speed="13.89" length="5.53" shape="316.32,320.44 310.88,319.75"/>
        <lane id=":1670309369_0_2" index="2" disallow="tram rail_urban rail rail_electric rail_fast ship" speed="13.89" length="5.53" shape="316.77,317.27 311.24,316.57"/>
        <lane id=":1670309369_0_3" index="3" disallow="tram rail_urban rail rail_electric rail_fast ship" speed="13.89" length="5.53" shape="317.21,314.10 311.60,313.39"/>
    </edge>
    <edge id=":1672454694_0" function="internal">
        <lane id=":1672454694_0_0" index="0" disallow="tram rail_urban rail rail_electric rail_fast ship" speed="13.89" length="8.18" shape="440.59,318.20 443.01,318.44 444.71,318.23 446.40,318.03 448.81,318.31"/>
        <lane id=":1672454694_0_1" index="1" disallow="tram rail_urban rail rail_electric rail_fast ship" speed="13.89" length="8.18" shape="439.96,321.34 442.36,321.57 444.04,321.36 445.72,321.16 448.11,321.44"/>
        <lane id=":1672454694_0_2" index="2" disallow="tram rail_urban rail rail_electric rail_fast ship" speed="13.89" length="8.18" shape="439.33,324.48 441.71,324.70 443.38,324.49 445.04,324.29 447.41,324.56"/>
        <lane id=":1672454694_0_3" index="3" disallow="tram rail_urban rail rail_electric rail_fast ship" speed="13.89" length="8.18" shape="439.33,324.48 441.59,325.19 443.03,326.05 444.46,326.92 446.72,327.68"/>
    </edge>
    <edge id=":1806138380_0" function="internal">
        <lane id=":1806138380_0_0" index="0" allow="pedestrian delivery bicycle" speed="4.86" length="5.25" shape="717.90,276.08 717.15,274.80 716.21,274.15 715.07,274.14 713.72,274.77"/>
    </edge>
    <edge id=":1806138380_1" function="internal">
        <lane id=":1806138380_1_0" index="0" allow="pedestrian delivery bicycle" speed="3.65" length="4.67" shape="717.90,276.08 718.19,274.66 718.78,273.99 719.68,274.06 720.87,274.88"/>
    </edge>
    <edge id=":1806138380_2" function="internal">
        <lane id=":1806138380_2_0" index="0" allow="pedestrian delivery bicycle" speed="5.84" length="5.91" shape="721.62,269.49 720.71,270.42 720.29,271.63 720.34,273.11 720.87,274.88"/>
    </edge>
    <edge id=":1806138380_3" function="internal">
        <lane id=":1806138380_3_0" index="0" disallow="tram rail_urban rail rail_electric rail_fast ship" speed="13.89" length="9.43" shape="721.62,269.49 713.72,274.77"/>
        <lane id=":1806138380_3_1" index="1" disallow="tram rail_urban rail rail_electric rail_fast ship" speed="13.89" length="9.43" shape="719.81,266.86 711.97,272.10"/>
        <lane id=":1806138380_3_2" index="2" disallow="tram rail_urban rail rail_electric rail_fast ship" speed="13.89" length="9.43" shape="717.99,264.22 710.21,269.42"/>
    </edge>
    <edge id=":1806157947_0" function="internal">
        <lane id=":1806157947_0_0" index="0" disallow="tram rail_urban rail rail_electric rail_fast ship" speed="13.89" length="5.48" shape="755.39,426.62 756.99,426.35 758.07,426.08 759.11,425.67 760.58,424.98"/>
    </edge>
    <edge id=":1806157952_0" function="internal">
        <lane id=":1806157952_0_0" index="0" disallow="tram rail_urban rail rail_electric rail_fast ship" speed="13.89" length="5.49" shape="766.36,440.85 768.39,435.77"/>
        <lane id=":1806157952_0_1" index="1" disallow="tram rail_urban rail rail_electric rail_fast ship" speed="13.89" length="5.49" shape="769.32,442.05 771.36,436.95"/>
        <lane id=":1806157952_0_2" index="2" disallow="tram rail_urban rail rail_electric rail_fast ship" speed="13.89" length="5.49" shape="772.29,443.25 774.33,438.14"/>
    </edge>
    <edge id=":1806157953_0" function="internal">
        <lane id=":1806157953_0_0" index="0" disallow="tram rail_urban rail rail_electric rail_fast ship" speed="13.89" length="5.50" shape="755.88,438.36 760.49,441.71"/>
        <lane id=":1806157953_0_1" index="1" disallow="tram rail_urban rail rail_electric rail_fast ship" speed="13.89" length="5.50" shape="754.04,440.98 758.54,444.26"/>
        <lane id=":1806157953_0_2" index="2" disallow="tram rail_urban rail rail_electric rail_fast ship" speed="13.89" length="5.50" shape="752.21,443.60 756.60,446.80"/>
        <lane id=":1806157953_0_3" index="3" disallow="tram rail_urban rail rail_electric rail_fast ship" speed="13.89" length="5.50" shape="750.37,446.22 754.65,449.34"/>
    </edge>
    <edge id=":1806157954_0" function="internal">
        <lane id=":1806157954_0_0" index="0" disallow="tram rail_urban rail rail_electric rail_fast ship" speed="13.89" length="9.36" shape="790.85,448.28 787.72,457.29"/>
        <lane id=":1806157954_0_1" index="1" disallow="tram rail_urban rail rail_electric rail_fast ship" speed="13.89" length="9.36" shape="787.81,447.29 784.72,456.19"/>
        <lane id=":1806157954_0_2" index="2" disallow="tram rail_urban rail rail_electric rail_fast ship" speed="13.89" length="9.36" shape="784.76,446.29 781.72,455.08"/>
        <lane id=":1806157954_0_3" index="3" disallow="tram rail_urban rail rail_electric rail_fast ship" speed="13.89" length="9.36" shape="781.72,445.30 778.71,453.97"/>
    </edge>
    <edge id=":1806157955_0" function="internal">
        <lane id=":1806157955_0_0" index="0" disallow="tram rail_urban rail rail_electric rail_fast ship" speed="13.89" length="7.22" shape="750.50,463.21 744.81,458.88"/>
        <lane id=":1806157955_0_1" index="1" disallow="tram rail_urban rail rail_electric rail_fast ship" speed="13.89" length="7.22" shape="752.46,460.68 746.71,456.31"/>
        <lane id=":1806157955_0_2" index="2" disallow="tram rail_urban rail rail_electric rail_fast ship" speed="13.89" length="7.22" shape="754.43,458.15 748.61,453.74"/>
    </edge>
    <edge id=":1806157957_0" function="internal">
        <lane id=":1806157957_0_0" index="0" disallow="tram rail_urban rail rail_electric rail_fast ship" speed="13.89" length="6.01" shape="787.46,468.75 791.71,472.96"/>
        <lane id=":1806157957_0_1" index="1" disallow="tram rail_urban rail rail_electric rail_fast ship" speed="13.89" length="6.01" shape="785.19,471.01 789.48,475.25"/>
    </edge>
    <edge id=":1806157958_0" function="internal">
        <lane id=":1806157958_0_0" index="0" disallow="tram rail_urban rail rail_electric rail_fast ship" speed="13.89" length="1.95" shape="750.17,474.17 751.00,472.09"/>
        <lane id=":1806157958_0_1" index="1" disallow="tram rail_urban rail rail_electric rail_fast ship" speed="13.89" length="1.95" shape="753.20,475.18 753.98,473.24"/>
        <lane id=":1806157958_0_2" index="2" disallow="tram rail_urban rail rail_electric rail_fast ship" speed="13.89" length="1.95" shape="756.24,476.19 756.97,474.38"/>
        <lane id=":1806157958_0_3" index="3" disallow="tram rail_urban rail rail_electric rail_fast ship" speed="13.89" length="1.95" shape="759.28,477.20 759.96,475.53"/>
        <lane id=":1806157958_0_4" index="4" disallow="tram rail_urban rail rail_electric rail_fast ship" speed="13.89" length="1.95" shape="762.31,478.21 762.95,476.67"/>
    </edge>
    <edge id=":1806157959_0" function="internal">
        <lane id=":1806157959_0_0" index="0" disallow="tram rail_urban rail rail_electric rail_fast ship" speed="27.78" length="4.36" shape="782.40,487.52 779.09,484.78"/>