<?xml version="1.0" ?><additional>
	<e1Detector file="cross.out" freq="36000" friendlyPos="x" id="SAT" lane="2o_0" pos="0"/>
</additional>