<?xml version="1.0" encoding="UTF-8"?>

<!-- generated on 2023-01-25 18:31:37 by Eclipse SUMO netedit Version v1_15_0+1949-962673d476a
-->

<additional xmlns:xsi="http://www.w3.org/2001/XMLSchema-instance" xsi:noNamespaceSchemaLocation="http://sumo.dlr.de/xsd/additional_file.xsd">
    <!-- StoppingPlaces -->
    <busStop id="busStop_12" lane="gneE1_0" startPos="15.00" endPos="20.00" lines="line1 line2"/>
    <busStop id="busStop_13" lane="gneE1_0" startPos="20.00" endPos="25.00" lines="line1 line2"/>
    <busStop id="busStop_14" lane="gneE1_0" startPos="25.00" endPos="30.00" lines="line1 line2"/>
    <busStop id="busStop_15" lane="gneE1_0" startPos="30.00" endPos="35.00" lines="line1 line2"/>
    <busStop id="busStop_18" lane="gneE1_0" startPos="45.00" endPos="50.00" lines="line1 line2"/>
    <!-- Shapes -->
    <poly id="poly_0" color="green" fill="1" layer="0.00" shape="10.000000,20.000000 0.000000,20.000000 0.000000,10.000000 10.000000,10.000000 10.000000,20.000000"/>
    <poly id="poly_1" color="green" fill="1" layer="0.00" shape="40.000000,20.000000 40.000000,10.000000 50.000000,10.000000 50.000000,20.000000 40.000000,20.000000"/>
    <poi id="POI_0" color="red" layer="3.00" lane="gneE1_0" pos="40.00" width="0.00" height="0.00"/>
    <poi id="POI_1" color="red" layer="3.00" lane="gneE1_0" pos="10.00" width="0.00" height="0.00"/>
    <poi id="POI_2" color="red" layer="3.00" x="10.00" y="-10.00" width="0.00" height="0.00"/>
    <poi id="POI_3" color="red" layer="3.00" x="40.00" y="-10.00" width="0.00" height="0.00"/>
    <!-- TAZs -->
    <taz id="TAZ" shape="70.00,30.00 60.00,30.00 60.00,40.00 70.00,40.00 70.00,30.00" color="orange"/>
</additional>
