<?xml version="1.0" encoding="UTF-8"?>

<!-- generated on Mon 11 Feb 2019 02:45:37 PM CET by Eclipse SUMO netedit Version v1_0_1+0645-93703db
<configuration xmlns:xsi="http://www.w3.org/2001/XMLSchema-instance" xsi:noNamespaceSchemaLocation="http://sumo.dlr.de/xsd/netconvertConfiguration.xsd">

    <input>
        <sumo-net-file value="/scr1/sumo/tests/sumo/basic/tls/actuated/partialy_green_lane_uncontrollable/net.net.xml"/>
    </input>

    <output>
        <output-file value="/scr1/sumo/tests/sumo/basic/tls/actuated/partialy_green_lane_uncontrollable/net.net.xml"/>
        <output.street-names value="true"/>
    </output>

    <processing>
        <geometry.max-grade.fix value="false"/>
        <offset.disable-normalization value="true"/>
        <lefthand value="false"/>
    </processing>

    <junctions>
        <no-turnarounds value="true"/>
        <junctions.corner-detail value="5"/>
        <junctions.limit-turn-speed value="5.5"/>
        <rectangular-lane-cut value="false"/>
    </junctions>

    <pedestrian>
        <walkingareas value="false"/>
    </pedestrian>

</configuration>
-->

<net version="1.1" junctionCornerDetail="5" limitTurnSpeed="5.50" xmlns:xsi="http://www.w3.org/2001/XMLSchema-instance" xsi:noNamespaceSchemaLocation="http://sumo.dlr.de/xsd/net_file.xsd">

    <location netOffset="-598668.09,-5783261.49" convBoundary="3642.43,9869.28,3915.67,9979.91" origBoundary="10.393336,52.146541,10.787296,52.408126" projParameter="+proj=utm +zone=32 +ellps=WGS84 +datum=WGS84 +units=m +no_defs"/>

    <type id="highway.bridleway" priority="1" numLanes="1" speed="2.78" allow="pedestrian" oneway="1" width="2.00"/>
    <type id="highway.bus_guideway" priority="1" numLanes="1" speed="27.78" allow="bus" oneway="1"/>
    <type id="highway.cycleway" priority="1" numLanes="1" speed="8.33" allow="bicycle" oneway="0" width="1.00"/>
    <type id="highway.footway" priority="1" numLanes="1" speed="2.78" allow="pedestrian" oneway="1" width="2.00"/>
    <type id="highway.ford" priority="1" numLanes="1" speed="2.78" allow="army" oneway="0"/>
    <type id="highway.living_street" priority="3" numLanes="1" speed="2.78" disallow="tram rail_urban rail rail_electric ship" oneway="0"/>
    <type id="highway.motorway" priority="13" numLanes="2" speed="44.44" allow="private emergency authority army vip passenger hov taxi bus coach delivery truck trailer motorcycle evehicle custom1 custom2" oneway="1"/>
    <type id="highway.motorway_link" priority="12" numLanes="1" speed="22.22" allow="private emergency authority army vip passenger hov taxi bus coach delivery truck trailer motorcycle evehicle custom1 custom2" oneway="1"/>
    <type id="highway.path" priority="1" numLanes="1" speed="2.78" allow="bicycle pedestrian" oneway="1" width="2.00"/>
    <type id="highway.pedestrian" priority="1" numLanes="1" speed="2.78" allow="pedestrian" oneway="1" width="2.00"/>
    <type id="highway.primary" priority="9" numLanes="2" speed="27.78" disallow="tram rail_urban rail rail_electric ship" oneway="0"/>
    <type id="highway.primary_link" priority="8" numLanes="1" speed="22.22" disallow="tram rail_urban rail rail_electric ship" oneway="0"/>
    <type id="highway.raceway" priority="14" numLanes="2" speed="83.33" allow="vip" oneway="0"/>
    <type id="highway.residential" priority="4" numLanes="1" speed="13.89" disallow="tram rail_urban rail rail_electric ship" oneway="0"/>
    <type id="highway.secondary" priority="7" numLanes="2" speed="27.78" disallow="tram rail_urban rail rail_electric ship" oneway="0"/>
    <type id="highway.secondary_link" priority="6" numLanes="1" speed="22.22" disallow="tram rail_urban rail rail_electric ship" oneway="0"/>
    <type id="highway.service" priority="2" numLanes="1" speed="5.56" allow="delivery bicycle pedestrian" oneway="0"/>
    <type id="highway.service|railway.tram" priority="15" numLanes="1" speed="13.89" allow="delivery tram bicycle pedestrian" oneway="0"/>
    <type id="highway.stairs" priority="1" numLanes="1" speed="1.39" allow="pedestrian" oneway="1" width="2.00"/>
    <type id="highway.step" priority="1" numLanes="1" speed="1.39" allow="pedestrian" oneway="1" width="2.00"/>
    <type id="highway.steps" priority="1" numLanes="1" speed="1.39" allow="pedestrian" oneway="1" width="2.00"/>
    <type id="highway.tertiary" priority="6" numLanes="1" speed="22.22" disallow="tram rail_urban rail rail_electric ship" oneway="0"/>
    <type id="highway.tertiary_link" priority="5" numLanes="1" speed="22.22" disallow="tram rail_urban rail rail_electric ship" oneway="0"/>
    <type id="highway.tertiary|railway.tram" priority="15" numLanes="1" speed="22.22" disallow="rail_urban rail rail_electric ship" oneway="0"/>
    <type id="highway.track" priority="1" numLanes="1" speed="5.56" disallow="tram rail_urban rail rail_electric ship" oneway="0"/>
    <type id="highway.trunk" priority="11" numLanes="2" speed="27.78" disallow="tram rail_urban rail rail_electric bicycle pedestrian ship" oneway="0"/>
    <type id="highway.trunk_link" priority="10" numLanes="1" speed="22.22" disallow="tram rail_urban rail rail_electric bicycle pedestrian ship" oneway="0"/>
    <type id="highway.unclassified" priority="5" numLanes="1" speed="13.89" disallow="tram rail_urban rail rail_electric ship" oneway="0"/>
    <type id="highway.unsurfaced" priority="1" numLanes="1" speed="8.33" disallow="tram rail_urban rail rail_electric ship" oneway="0"/>
    <type id="railway.light_rail" priority="15" numLanes="1" speed="27.78" allow="rail_urban" oneway="1"/>
    <type id="railway.preserved" priority="15" numLanes="1" speed="27.78" allow="rail" oneway="1"/>
    <type id="railway.rail" priority="15" numLanes="1" speed="83.33" allow="rail rail_electric" oneway="1"/>
    <type id="railway.subway" priority="15" numLanes="1" speed="27.78" allow="rail_urban" oneway="1"/>
    <type id="railway.tram" priority="15" numLanes="1" speed="13.89" allow="tram" oneway="1"/>

    <edge id=":C_0" function="internal">
        <lane id=":C_0_0" index="0" disallow="tram rail_urban rail rail_electric ship" speed="6.75" length="9.02" shape="3817.63,9921.87 3818.51,9924.14 3819.92,9925.66 3821.84,9926.44 3824.28,9926.46"/>
    </edge>
    <edge id=":C_1" function="internal">
        <lane id=":C_1_0" index="0" disallow="tram rail_urban rail rail_electric ship" speed="3.65" length="2.50" shape="3817.63,9921.87 3817.13,9923.22 3816.44,9923.79 3816.28,9923.76"/>
    </edge>
    <edge id=":C_4" function="internal">
        <lane id=":C_4_0" index="0" disallow="tram rail_urban rail rail_electric ship" speed="3.65" length="2.17" shape="3816.28,9923.76 3815.57,9923.59 3814.51,9922.61"/>
    </edge>
    <edge id=":C_2" function="internal">
        <lane id=":C_2_0" index="0" disallow="tram rail_urban rail rail_electric ship" speed="6.93" length="10.95" shape="3810.73,9931.36 3813.08,9930.47 3814.49,9928.71 3814.97,9926.09 3814.51,9922.61"/>
    </edge>
    <edge id=":C_3" function="internal">
        <lane id=":C_3_0" index="0" disallow="tram rail_urban rail rail_electric ship" speed="11.11" length="14.45" shape="3810.73,9931.36 3814.23,9930.34 3817.49,9928.85 3820.76,9927.39 3824.28,9926.46"/>
    </edge>
    <edge id=":S_0" function="internal">
        <lane id=":S_0_0" index="0" disallow="tram rail_urban rail rail_electric ship" speed="3.65" length="4.67" shape="3761.02,9870.46 3760.69,9869.05 3760.93,9868.19 3761.77,9867.88 3763.20,9868.10"/>
    </edge>

    <edge id="CE" from="C" to="E" name="Sudetenstraße" priority="6" type="highway.tertiary" spreadType="center" shape="3815.98,9927.54 3828.78,9925.88 3839.98,9925.66 3848.38,9926.15 3856.54,9927.11 3870.49,9930.02">
        <lane id="CE_0" index="0" disallow="tram rail_urban rail rail_electric ship" speed="13.89" length="95.59" shape="3824.28,9926.46 3828.78,9925.88 3839.98,9925.66 3848.38,9926.15 3856.54,9927.11 3918.43,9940.02">
            <param key="origId" value="10522146"/>
        </lane>
        <param key="origTo" value="28462103"/>
    </edge>
    <edge id="CS" from="C" to="S" name="Am Anger" priority="4" type="highway.residential" shape="3818.32,9931.73 3815.99,9921.90 3814.32,9918.00 3805.77,9909.92 3792.72,9897.54 3762.11,9869.28">
        <lane id="CS_0" index="0" disallow="tram rail_urban rail rail_electric ship" speed="8.33" length="75.04" shape="3814.51,9922.61 3814.46,9922.40 3812.98,9918.93 3804.67,9911.08 3791.63,9898.71 3761.02,9870.46">
            <param key="origId" value="10522128"/>
        </lane>
    </edge>
    <edge id="SC" from="S" to="C" name="Am Anger" priority="4" type="highway.residential" shape="3762.11,9869.28 3792.72,9897.54 3805.77,9909.92 3814.32,9918.00 3815.99,9921.90 3818.32,9931.73">
        <lane id="SC_0" index="0" disallow="tram rail_urban rail rail_electric ship" speed="8.33" length="76.96" shape="3763.20,9868.10 3793.81,9896.37 3806.87,9908.76 3815.66,9917.07 3817.52,9921.40 3817.63,9921.87">
            <param key="origId" value="10522128"/>
        </lane>
    </edge>
    <edge id="WC" from="W" to="C" name="Sudetenstraße" priority="6" type="highway.tertiary" shape="3642.43,9979.91 3667.16,9973.35 3692.14,9965.95 3750.79,9948.03 3772.76,9941.13 3785.45,9937.16 3818.32,9931.73">
        <lane id="WC_0" index="0" disallow="tram rail_urban rail rail_electric ship" speed="8.33" length="175.33" shape="3642.02,9978.36 3666.73,9971.81 3691.68,9964.42 3750.32,9946.50 3772.28,9939.60 3785.08,9935.60 3810.73,9931.36">
            <param key="origId" value="107709364 107709364 107709364 538699600"/>
        </lane>
    </edge>

    <tlLogic id="GS_28462102" type="actuated" programID="0" offset="0">
        <phase duration="42" state="GgGr" minDur="5" maxDur="50"/>
        <phase duration="3"  state="yyyr"/>
        <phase duration="42" state="rrrG" minDur="5" maxDur="50"/>
        <phase duration="3"  state="rryy"/>
    </tlLogic>

    <junction id="C" type="traffic_light" x="3818.32" y="9931.73" incLanes="SC_0 WC_0" intLanes=":C_0_0 :C_4_0 :C_2_0 :C_3_0" shape="3824.48,9928.05 3824.07,9924.88 3821.77,9924.73 3820.87,9924.29 3820.14,9923.60 3819.58,9922.67 3819.18,9921.50 3812.96,9922.97 3813.82,9926.36 3813.62,9927.65 3812.99,9928.65 3811.94,9929.36 3810.47,9929.78 3810.99,9932.94 3813.95,9932.24 3816.05,9931.36 3817.72,9930.40 3819.40,9929.47 3821.51,9928.65">
        <request index="0" response="1000" foes="1000" cont="0"/>
        <request index="1" response="0100" foes="0100" cont="1"/>
        <request index="2" response="0000" foes="0010" cont="0"/>
        <request index="3" response="0000" foes="0001" cont="0"/>
    </junction>
    <junction id="E" type="dead_end" x="3915.67" y="9953.25" incLanes="CE_0" intLanes="" shape="3918.76,9938.45 3918.10,9941.59"/>
    <junction id="S" type="right_before_left" x="3762.11" y="9869.28" incLanes="CS_0" intLanes=":S_0_0" shape="3762.11,9869.28 3759.94,9871.63 3762.11,9869.28">
        <request index="0" response="0" foes="0" cont="0"/>
    </junction>
    <junction id="W" type="dead_end" x="3642.43" y="9979.91" incLanes="" intLanes="" shape="3642.43,9979.91 3641.61,9976.82"/>

    <junction id=":C_4_0" type="internal" x="3816.28" y="9923.76" incLanes=":C_1_0 WC_0" intLanes=":C_2_0"/>

    <connection from="CS" to="SC" fromLane="0" toLane="0" via=":S_0_0" dir="t" state="="/>
    <connection from="SC" to="CE" fromLane="0" toLane="0" via=":C_0_0" tl="GS_28462102" linkIndex="0" dir="r" state="o"/>
    <connection from="SC" to="CS" fromLane="0" toLane="0" via=":C_1_0" tl="GS_28462102" linkIndex="1" dir="t" state="o"/>
    <connection from="WC" to="CS" fromLane="0" toLane="0" via=":C_2_0" tl="GS_28462102" linkIndex="2" dir="r" state="O"/>
    <connection from="WC" to="CE" fromLane="0" toLane="0" via=":C_3_0" tl="GS_28462102" linkIndex="3" dir="s" state="O"/>

    <connection from=":C_0" to="CE" fromLane="0" toLane="0" dir="r" state="M"/>
    <connection from=":C_1" to="CS" fromLane="0" toLane="0" via=":C_4_0" dir="t" state="m"/>
    <connection from=":C_4" to="CS" fromLane="0" toLane="0" dir="t" state="M"/>
    <connection from=":C_2" to="CS" fromLane="0" toLane="0" dir="r" state="M"/>
    <connection from=":C_3" to="CE" fromLane="0" toLane="0" dir="s" state="M"/>
    <connection from=":S_0" to="SC" fromLane="0" toLane="0" dir="t" state="M"/>

</net>
