<?xml version="1.0" encoding="UTF-8"?>

<!-- generated on Fr 08 Dez 2017 14:14:48 CET by SUMO gui Version UNKNOWN
<?xml version="1.0" encoding="UTF-8"?>

<configuration xmlns:xsi="http://www.w3.org/2001/XMLSchema-instance" xsi:noNamespaceSchemaLocation="http://sumo.dlr.de/xsd/sumoConfiguration.xsd">

    <input>
        <net-file value="net.net.xml"/>
        <route-files value="input_routes.rou.xml"/>
    </input>

    <output>
        <fcd-output value="fcd.xml"/>
        <fcd-output.signals value="true"/>
        <tripinfo-output value="tripinfos.xml"/>
        <lanechange-output value="lanechanges.xml"/>
    </output>

    <time>
        <step-length value="0.1"/>
    </time>

    <processing>
        <step-method.ballistic value="true"/>
        <lateral-resolution value="0.2"/>
        <default.action-step-length value="1"/>
    </processing>

    <report>
        <xml-validation value="never"/>
        <message-log value="stdout"/>
        <error-log value="stderr"/>
        <no-step-log value="true"/>
    </report>

    <gui_only>
        <tracker-interval value="0.1"/>
    </gui_only>

</configuration>
-->

<lanechanges>
    <change id="blocker1" type="t1" time="2.10" from="beg_1" to="beg_2" dir="1" speed="25.10" pos="53.94" reason="cooperative|urgent" leaderGap="None" leaderSecureGap="None" followerGap="None" followerSecureGap="None" origLeaderGap="None" origLeaderSecureGap="None" latGap="None"/>
    <change id="merge" type="t0" time="3.90" from="beg_0" to="beg_1" dir="1" speed="27.78" pos="113.34" reason="strategic|urgent" leaderGap="None" leaderSecureGap="None" followerGap="None" followerSecureGap="None" origLeaderGap="None" origLeaderSecureGap="None" latGap="None"/>
</lanechanges>
