<?xml version="1.0" encoding="UTF-8"?>

<!-- generated on 31.07.2018 13:46:45 by Netedit Version 0.32.0
<?xml version="1.0" encoding="UTF-8"?>

<configuration xmlns:xsi="http://www.w3.org/2001/XMLSchema-instance" xsi:noNamespaceSchemaLocation="https://sumo.dlr.de/xsd/netconvertConfiguration.xsd">

    <output>
        <output-file value="C:\Users\flam_le\Desktop\SUMOszenario\movingBlockTest\movingBlockTest.net.xml"/>
    </output>

    <processing>
        <no-turnarounds value="true"/>
        <offset.disable-normalization value="true"/>
    </processing>

</configuration>
-->

<net version="0.27" xmlns:xsi="http://www.w3.org/2001/XMLSchema-instance" xsi:noNamespaceSchemaLocation="https://sumo.dlr.de/xsd/net_file.xsd">

    <location netOffset="0.00,0.00" convBoundary="-190.00,50.00,1400.00,590.00" origBoundary="10000000000.00,10000000000.00,-10000000000.00,-10000000000.00" projParameter="!"/>

    <edge id=":gneJ1_0" function="internal">
        <lane id=":gneJ1_0_0" index="0" allow="rail" speed="33.33" length="25.63" shape="405.87,48.35 431.50,48.35"/>
    </edge>
    <edge id=":gneJ1_1" function="internal">
        <lane id=":gneJ1_1_0" index="0" allow="rail" speed="33.33" length="25.62" shape="406.11,51.75 411.46,50.92 418.78,49.78 426.12,48.78 431.50,48.35"/>
    </edge>
    <edge id=":gneJ10_0" function="internal">
        <lane id=":gneJ10_0_0" index="0" allow="rail" speed="33.33" length="0.63" shape="930.97,328.52 931.08,328.67 931.16,328.76 931.26,328.84 931.42,328.94"/>
    </edge>
    <edge id=":gneJ11_0" function="internal">
        <lane id=":gneJ11_0_0" index="0" allow="rail" speed="33.33" length="0.79" shape="1010.19,378.17 1010.39,378.29 1010.53,378.36 1010.69,378.39 1010.92,378.41"/>
    </edge>
    <edge id=":gneJ12_0" function="internal">
        <lane id=":gneJ12_0_0" index="0" allow="rail" speed="33.33" length="0.11" shape="1150.00,388.35 1150.12,388.35"/>
    </edge>
    <edge id=":gneJ3_0" function="internal">
        <lane id=":gneJ3_0_0" index="0" allow="rail" speed="33.33" length="0.23" shape="359.77,58.35 359.84,58.35 359.88,58.35 359.93,58.34 360.00,58.33"/>
    </edge>
    <edge id=":gneJ4_0" function="internal">
        <lane id=":gneJ4_0_0" index="0" allow="rail" speed="33.33" length="0.20" shape="570.00,48.35 570.06,48.35 570.10,48.35 570.14,48.36 570.20,48.36"/>
    </edge>
    <edge id=":gneJ5_0" function="internal">
        <lane id=":gneJ5_0_0" index="0" allow="rail" speed="33.33" length="0.47" shape="650.21,58.36 650.35,58.38 650.44,58.40 650.54,58.43 650.66,58.49"/>
    </edge>
    <edge id=":gneJ6_0" function="internal">
        <lane id=":gneJ6_0_0" index="0" allow="rail" speed="33.33" length="0.48" shape="740.68,98.50 740.81,98.55 740.89,98.60 740.97,98.66 741.08,98.75"/>
    </edge>
    <edge id=":gneJ7_0" function="internal">
        <lane id=":gneJ7_0_0" index="0" allow="rail" speed="33.33" length="0.42" shape="821.09,168.76 821.19,168.85 821.25,168.91 821.30,168.98 821.37,169.08"/>
    </edge>
    <edge id=":gneJ8_0" function="internal">
        <lane id=":gneJ8_0_0" index="0" allow="rail" speed="33.33" length="25.16" shape="880.54,257.84 895.13,278.34"/>
    </edge>
    <edge id=":gneJ8_1" function="internal">
        <lane id=":gneJ8_1_0" index="0" allow="rail" speed="33.33" length="25.16" shape="880.54,257.84 883.21,262.45 886.56,268.87 889.82,275.35 892.22,280.12"/>
    </edge>

    <edge id="gneE0" from="gneJ0" to="gneJ1" priority="1">
        <lane id="gneE0_0" index="0" allow="rail" speed="33.33" length="595.87" shape="-190.00,48.35 405.87,48.35"/>
    </edge>
    <edge id="gneE1" from="gneJ2" to="gneJ3" priority="1">
        <lane id="gneE1_0" index="0" allow="rail" speed="33.33" length="549.77" shape="-190.00,58.35 359.77,58.35"/>
    </edge>
    <edge id="gneE10" from="gneJ10" to="gneJ11" priority="1">
        <lane id="gneE10_0" index="0" allow="rail" speed="33.33" length="92.89" shape="931.42,328.94 1010.19,378.17"/>
    </edge>
    <edge id="gneE11" from="gneJ11" to="gneJ12" priority="1">
        <lane id="gneE11_0" index="0" allow="rail" speed="33.33" length="139.43" shape="1010.92,378.41 1150.00,388.35"/>
    </edge>
    <edge id="gneE12" from="gneJ12" to="gneJ13" priority="1">
        <lane id="gneE12_0" index="0" allow="rail" speed="33.33" length="249.88" shape="1150.12,388.35 1400.00,388.35"/>
    </edge>
    <edge id="gneE2" from="gneJ3" to="gneJ1" priority="1">
        <lane id="gneE2_0" index="0" allow="rail" speed="33.33" length="46.58" shape="360.00,58.33 406.11,51.75"/>
    </edge>
    <edge id="gneE3" from="gneJ1" to="gneJ4" priority="1">
        <lane id="gneE3_0" index="0" allow="rail" speed="33.33" length="138.51" shape="431.50,48.35 570.00,48.35"/>
    </edge>
    <edge id="gneE4" from="gneJ4" to="gneJ5" priority="1">
        <lane id="gneE4_0" index="0" allow="rail" speed="33.33" length="80.63" shape="570.20,48.36 650.21,58.36"/>
    </edge>
    <edge id="gneE5" from="gneJ5" to="gneJ6" priority="1">
        <lane id="gneE5_0" index="0" allow="rail" speed="33.33" length="98.50" shape="650.66,58.49 740.68,98.50"/>
    </edge>
    <edge id="gneE6" from="gneJ6" to="gneJ7" priority="1">
        <lane id="gneE6_0" index="0" allow="rail" speed="33.33" length="106.32" shape="741.08,98.75 821.09,168.76"/>
    </edge>
    <edge id="gneE7" from="gneJ7" to="gneJ8" priority="1">
        <lane id="gneE7_0" index="0" allow="rail" speed="33.33" length="106.68" shape="821.37,169.08 880.54,257.84"/>
    </edge>
    <edge id="gneE8" from="gneJ8" to="gneJ9" priority="1">
        <lane id="gneE8_0" index="0" allow="rail" speed="33.33" length="347.74" shape="892.22,280.12 1051.47,589.24"/>
    </edge>
    <edge id="gneE9" from="gneJ8" to="gneJ10" priority="1">
        <lane id="gneE9_0" index="0" allow="rail" speed="33.33" length="61.66" shape="895.13,278.34 930.97,328.52"/>
    </edge>

    <junction id="gneJ0" type="dead_end" x="-190.00" y="50.00" incLanes="" intLanes="" shape="-190.00,49.95 -190.00,46.75"/>
    <junction id="gneJ1" type="unregulated" x="430.00" y="50.00" incLanes="gneE0_0 gneE2_0" intLanes=":gneJ1_0_0 :gneJ1_1_0" shape="431.50,49.95 431.50,46.75 405.87,46.75 405.87,49.95 405.88,50.16 406.34,53.33">
        <request index="0" response="00" foes="10" cont="0"/>
        <request index="1" response="01" foes="01" cont="0"/>
    </junction>
    <junction id="gneJ10" type="unregulated" x="930.00" y="330.00" incLanes="gneE9_0" intLanes=":gneJ10_0_0" shape="930.57,330.30 932.27,327.59 929.67,329.45">
        <request index="0" response="0" foes="0" cont="0"/>
    </junction>
    <junction id="gneJ11" type="unregulated" x="1010.00" y="380.00" incLanes="gneE10_0" intLanes=":gneJ11_0_0" shape="1010.81,380.01 1011.04,376.82 1009.34,379.53">
        <request index="0" response="0" foes="0" cont="0"/>
    </junction>
    <junction id="gneJ12" type="unregulated" x="1150.00" y="390.00" incLanes="gneE11_0" intLanes=":gneJ12_0_0" shape="1150.12,389.95 1150.12,386.75 1149.89,389.94">
        <request index="0" response="0" foes="0" cont="0"/>
    </junction>
    <junction id="gneJ13" type="dead_end" x="1400.00" y="390.00" incLanes="gneE12_0" intLanes="" shape="1400.00,386.75 1400.00,389.95"/>
    <junction id="gneJ2" type="dead_end" x="-190.00" y="60.00" incLanes="" intLanes="" shape="-190.00,59.95 -190.00,56.75"/>
    <junction id="gneJ3" type="unregulated" x="360.00" y="60.00" incLanes="gneE1_0" intLanes=":gneJ3_0_0" shape="360.22,59.92 359.77,56.75 359.77,59.95">
        <request index="0" response="0" foes="0" cont="0"/>
    </junction>
    <junction id="gneJ4" type="unregulated" x="570.00" y="50.00" incLanes="gneE3_0" intLanes=":gneJ4_0_0" shape="570.00,49.95 570.40,46.77 570.00,46.75">
        <request index="0" response="0" foes="0" cont="0"/>
    </junction>
    <junction id="gneJ5" type="unregulated" x="650.00" y="60.00" incLanes="gneE4_0" intLanes=":gneJ5_0_0" shape="650.01,59.95 651.31,57.03 650.41,56.78">
        <request index="0" response="0" foes="0" cont="0"/>
    </junction>
    <junction id="gneJ6" type="unregulated" x="740.00" y="100.00" incLanes="gneE5_0" intLanes=":gneJ6_0_0" shape="740.03,99.96 742.13,97.55 741.33,97.03">
        <request index="0" response="0" foes="0" cont="0"/>
    </junction>
    <junction id="gneJ7" type="unregulated" x="820.00" y="170.00" incLanes="gneE6_0" intLanes=":gneJ7_0_0" shape="820.04,169.97 822.70,168.19 822.15,167.56">
        <request index="0" response="0" foes="0" cont="0"/>
    </junction>
    <junction id="gneJ8" type="unregulated" x="880.00" y="260.00" incLanes="gneE7_0" intLanes=":gneJ8_0_0 :gneJ8_1_0" shape="890.80,280.85 893.64,279.38 893.83,279.27 896.43,277.41 881.87,256.95 879.21,258.73">
        <request index="0" response="00" foes="00" cont="0"/>
        <request index="1" response="00" foes="00" cont="0"/>
    </junction>
    <junction id="gneJ9" type="dead_end" x="1050.00" y="590.00" incLanes="gneE8_0" intLanes="" shape="1052.89,588.51 1050.04,589.98"/>

    <connection from="gneE0" to="gneE3" fromLane="0" toLane="0" via=":gneJ1_0_0" dir="s" state="M" keepClear="false"/>
    <connection from="gneE1" to="gneE2" fromLane="0" toLane="0" via=":gneJ3_0_0" dir="s" state="M" keepClear="false"/>
    <connection from="gneE10" to="gneE11" fromLane="0" toLane="0" via=":gneJ11_0_0" dir="s" state="M" keepClear="false"/>
    <connection from="gneE11" to="gneE12" fromLane="0" toLane="0" via=":gneJ12_0_0" dir="s" state="M" keepClear="false"/>
    <connection from="gneE2" to="gneE3" fromLane="0" toLane="0" via=":gneJ1_1_0" dir="s" state="M" keepClear="false"/>
    <connection from="gneE3" to="gneE4" fromLane="0" toLane="0" via=":gneJ4_0_0" dir="s" state="M" keepClear="false"/>
    <connection from="gneE4" to="gneE5" fromLane="0" toLane="0" via=":gneJ5_0_0" dir="s" state="M" keepClear="false"/>
    <connection from="gneE5" to="gneE6" fromLane="0" toLane="0" via=":gneJ6_0_0" dir="s" state="M" keepClear="false"/>
    <connection from="gneE6" to="gneE7" fromLane="0" toLane="0" via=":gneJ7_0_0" dir="s" state="M" keepClear="false"/>
    <connection from="gneE7" to="gneE9" fromLane="0" toLane="0" via=":gneJ8_0_0" dir="s" state="M" keepClear="false"/>
    <connection from="gneE7" to="gneE8" fromLane="0" toLane="0" via=":gneJ8_1_0" dir="s" state="M" keepClear="false"/>
    <connection from="gneE9" to="gneE10" fromLane="0" toLane="0" via=":gneJ10_0_0" dir="s" state="M" keepClear="false"/>

    <connection from=":gneJ1_0" to="gneE3" fromLane="0" toLane="0" dir="s" state="M" keepClear="false"/>
    <connection from=":gneJ1_1" to="gneE3" fromLane="0" toLane="0" dir="s" state="M" keepClear="false"/>
    <connection from=":gneJ10_0" to="gneE10" fromLane="0" toLane="0" dir="s" state="M" keepClear="false"/>
    <connection from=":gneJ11_0" to="gneE11" fromLane="0" toLane="0" dir="s" state="M" keepClear="false"/>
    <connection from=":gneJ12_0" to="gneE12" fromLane="0" toLane="0" dir="s" state="M" keepClear="false"/>
    <connection from=":gneJ3_0" to="gneE2" fromLane="0" toLane="0" dir="s" state="M" keepClear="false"/>
    <connection from=":gneJ4_0" to="gneE4" fromLane="0" toLane="0" dir="s" state="M" keepClear="false"/>
    <connection from=":gneJ5_0" to="gneE5" fromLane="0" toLane="0" dir="s" state="M" keepClear="false"/>
    <connection from=":gneJ6_0" to="gneE6" fromLane="0" toLane="0" dir="s" state="M" keepClear="false"/>
    <connection from=":gneJ7_0" to="gneE7" fromLane="0" toLane="0" dir="s" state="M" keepClear="false"/>
    <connection from=":gneJ8_0" to="gneE9" fromLane="0" toLane="0" dir="s" state="M" keepClear="false"/>
    <connection from=":gneJ8_1" to="gneE8" fromLane="0" toLane="0" dir="s" state="M" keepClear="false"/>

</net>
