<?xml version="1.0" encoding="UTF-8"?>

<!-- generated on Mon Feb 17 15:31:10 2020 by Eclipse SUMO netconvert Version v1_5_0+0130-ceb0a01
This data file and the accompanying materials
are made available under the terms of the Eclipse Public License v2.0
which accompanies this distribution, and is available at
http://www.eclipse.org/legal/epl-v20.html
SPDX-License-Identifier: EPL-2.0
<configuration xmlns:xsi="http://www.w3.org/2001/XMLSchema-instance" xsi:noNamespaceSchemaLocation="http://sumo.dlr.de/xsd/netconvertConfiguration.xsd">

    <input>
        <node-files value="input_plain.nod.xml"/>
        <edge-files value="input_plain.edg.xml"/>
    </input>

    <output>
        <write-license value="true"/>
        <output-file value="net.net.xml"/>
    </output>

    <junctions>
        <no-turnarounds value="true"/>
    </junctions>

    <report>
        <xml-validation value="never"/>
        <aggregate-warnings value="5"/>
    </report>

</configuration>
-->

<net version="1.6" junctionCornerDetail="5" limitTurnSpeed="5.50" xmlns:xsi="http://www.w3.org/2001/XMLSchema-instance" xsi:noNamespaceSchemaLocation="http://sumo.dlr.de/xsd/net_file.xsd">

    <location netOffset="100.00,100.00" convBoundary="0.00,0.00,200.00,100.00" origBoundary="-10000000000.00,-10000000000.00,10000000000.00,10000000000.00" projParameter="!"/>

    <edge id=":C_0" function="internal">
        <lane id=":C_0_0" index="0" disallow="pedestrian" speed="13.89" length="9.40" shape="104.70,101.60 95.30,101.60"/>
    </edge>
    <edge id=":C_1" function="internal">
        <lane id=":C_1_0" index="0" allow="delivery" speed="7.35" length="4.55" shape="104.70,101.60 101.94,101.08 100.58,100.00"/>
    </edge>
    <edge id=":C_6" function="internal">
        <lane id=":C_6_0" index="0" allow="delivery" speed="7.35" length="7.27" shape="100.58,100.00 99.97,99.52 98.79,96.93 98.40,93.30"/>
    </edge>
    <edge id=":C_2" function="internal">
        <lane id=":C_2_0" index="0" allow="delivery" speed="5.70" length="6.69" shape="101.60,93.30 101.79,95.53 102.37,97.12 103.34,98.08 104.70,98.40"/>
    </edge>
    <edge id=":C_3" function="internal">
        <lane id=":C_3_0" index="0" allow="delivery" speed="7.35" length="11.82" shape="101.60,93.30 101.21,96.93 100.02,99.53 98.06,101.08 95.30,101.60"/>
    </edge>
    <edge id=":C_4" function="internal">
        <lane id=":C_4_0" index="0" allow="delivery" speed="5.70" length="6.69" shape="95.30,98.40 96.66,98.08 97.63,97.13 98.21,95.53 98.40,93.30"/>
    </edge>
    <edge id=":C_5" function="internal">
        <lane id=":C_5_0" index="0" disallow="pedestrian" speed="13.89" length="9.40" shape="95.30,98.40 104.70,98.40"/>
    </edge>

    <edge id="CE" from="C" to="E" priority="2">
        <lane id="CE_0" index="0" allow="pedestrian" speed="13.89" length="95.30" width="2.00" shape="104.70,95.80 200.00,95.80"/>
        <lane id="CE_1" index="1" disallow="pedestrian" speed="13.89" length="95.30" shape="104.70,98.40 200.00,98.40"/>
    </edge>
    <edge id="CS" from="C" to="S" priority="2">
        <lane id="CS_0" index="0" allow="pedestrian delivery" speed="13.89" length="93.30" shape="98.40,93.30 98.40,0.00"/>
    </edge>
    <edge id="CW" from="C" to="W" priority="2">
        <lane id="CW_0" index="0" allow="pedestrian" speed="13.89" length="95.30" width="2.00" shape="95.30,104.20 0.00,104.20"/>
        <lane id="CW_1" index="1" disallow="pedestrian" speed="13.89" length="95.30" shape="95.30,101.60 0.00,101.60"/>
    </edge>
    <edge id="EC" from="E" to="C" priority="2">
        <lane id="EC_0" index="0" allow="pedestrian" speed="13.89" length="95.30" width="2.00" shape="200.00,104.20 104.70,104.20"/>
        <lane id="EC_1" index="1" disallow="pedestrian" speed="13.89" length="95.30" shape="200.00,101.60 104.70,101.60"/>
    </edge>
    <edge id="SC" from="S" to="C" priority="2">
        <lane id="SC_0" index="0" allow="pedestrian delivery" speed="13.89" length="93.30" shape="101.60,0.00 101.60,93.30"/>
    </edge>
    <edge id="WC" from="W" to="C" priority="2">
        <lane id="WC_0" index="0" allow="pedestrian" speed="13.89" length="95.30" width="2.00" shape="0.00,95.80 95.30,95.80"/>
        <lane id="WC_1" index="1" disallow="pedestrian" speed="13.89" length="95.30" shape="0.00,98.40 95.30,98.40"/>
    </edge>

    <tlLogic id="C" type="static" programID="0" offset="0">
        <phase duration="42" state="GgrrGG"/>
        <phase duration="3"  state="yyrryy"/>
        <phase duration="42" state="rrGGGr"/>
        <phase duration="3"  state="rryyyr"/>
    </tlLogic>

    <junction id="C" type="traffic_light" x="100.00" y="100.00" incLanes="EC_0 EC_1 SC_0 WC_0 WC_1" intLanes=":C_0_0 :C_6_0 :C_2_0 :C_3_0 :C_4_0 :C_5_0" shape="104.70,105.20 104.70,94.80 103.87,94.63 103.57,94.42 103.37,94.13 103.24,93.76 103.20,93.30 96.80,93.30 96.63,94.13 96.43,94.42 96.13,94.63 95.76,94.76 95.30,94.80 95.30,105.20">
        <request index="0" response="000000" foes="001000" cont="0"/>
        <request index="1" response="110000" foes="111000" cont="1"/>
        <request index="2" response="100000" foes="100000" cont="0"/>
        <request index="3" response="100011" foes="100011" cont="0"/>
        <request index="4" response="000000" foes="000010" cont="0"/>
        <request index="5" response="000000" foes="001110" cont="0"/>
    </junction>
    <junction id="E" type="dead_end" x="200.00" y="100.00" incLanes="CE_0 CE_1" intLanes="" shape="200.00,100.00 200.00,94.80 200.00,100.00"/>
    <junction id="S" type="dead_end" x="100.00" y="0.00" incLanes="CS_0" intLanes="" shape="100.00,0.00 96.80,0.00 100.00,0.00"/>
    <junction id="W" type="dead_end" x="0.00" y="100.00" incLanes="CW_0 CW_1" intLanes="" shape="0.00,100.00 0.00,105.20 0.00,100.00"/>

    <junction id=":C_6_0" type="internal" x="100.58" y="100.00" incLanes=":C_1_0 WC_1" intLanes=":C_3_0 :C_4_0 :C_5_0"/>

    <connection from="EC" to="CW" fromLane="1" toLane="1" via=":C_0_0" tl="C" linkIndex="0" dir="s" state="O"/>
    <connection from="EC" to="CS" fromLane="1" toLane="0" via=":C_1_0" tl="C" linkIndex="1" dir="l" state="o"/>
    <connection from="SC" to="CE" fromLane="0" toLane="1" via=":C_2_0" tl="C" linkIndex="2" dir="r" state="o"/>
    <connection from="SC" to="CW" fromLane="0" toLane="1" via=":C_3_0" tl="C" linkIndex="3" dir="l" state="o"/>
    <connection from="WC" to="CS" fromLane="1" toLane="0" via=":C_4_0" tl="C" linkIndex="4" dir="r" state="O"/>
    <connection from="WC" to="CE" fromLane="1" toLane="1" via=":C_5_0" tl="C" linkIndex="5" dir="s" state="O"/>

    <connection from=":C_0" to="CW" fromLane="0" toLane="1" dir="s" state="M"/>
    <connection from=":C_1" to="CS" fromLane="0" toLane="0" via=":C_6_0" dir="l" state="m"/>
    <connection from=":C_6" to="CS" fromLane="0" toLane="0" dir="l" state="M"/>
    <connection from=":C_2" to="CE" fromLane="0" toLane="1" dir="r" state="M"/>
    <connection from=":C_3" to="CW" fromLane="0" toLane="1" dir="l" state="M"/>
    <connection from=":C_4" to="CS" fromLane="0" toLane="0" dir="r" state="M"/>
    <connection from=":C_5" to="CE" fromLane="0" toLane="1" dir="s" state="M"/>

</net>
