<?xml version="1.0" encoding="UTF-8"?>

<!-- generated on 2022-04-07 15:20:32 by Eclipse SUMO netedit Version v1_12_0+2023-61fb51b9a3c
-->

<routes xmlns:xsi="http://www.w3.org/2001/XMLSchema-instance" xsi:noNamespaceSchemaLocation="http://sumo.dlr.de/xsd/routes_file.xsd">
    <!-- Routes -->
    <route id="r_0" edges="gneE2 gneE4 gneE5"/>
    <!-- Vehicles, persons and containers (sorted by depart) -->
    <vehicle id="customID" depart="0.00" route="r_0"/>
    <vehicle id="v_0" depart="0.00" route="r_0"/>
</routes>
