<?xml version="1.0" encoding="UTF-8"?>

<!-- generated on 02.10.2018 10:24:14 by Eclipse SUMO netedit Version v1_0_0+0003-85a2829977
<configuration xmlns:xsi="http://www.w3.org/2001/XMLSchema-instance" xsi:noNamespaceSchemaLocation="http://sumo.dlr.de/xsd/netconvertConfiguration.xsd">

    <input>
        <sumo-net-file value="C:/Users/SUMO-Test/.texttest/tmp/netedit.gui.02Oct102407.4592/netedit.gui/additionalElements/e2MultiLaneDetector/create\input_net.net.xml"/>
    </input>

    <output>
        <output-file value="C:/Users/SUMO-Test/.texttest/tmp/netedit.gui.02Oct102407.4592/netedit.gui/additionalElements/e2MultiLaneDetector/create\net.net.xml"/>
    </output>

    <processing>
        <offset.disable-normalization value="true"/>
        <lefthand value="false"/>
    </processing>

    <junctions>
        <no-turnarounds value="true"/>
        <junctions.corner-detail value="5"/>
        <junctions.limit-turn-speed value="5.5"/>
        <rectangular-lane-cut value="false"/>
    </junctions>

    <pedestrian>
        <walkingareas value="false"/>
    </pedestrian>

    <netedit>
        <additionals-output value="C:/Users/SUMO-Test/.texttest/tmp/netedit.gui.02Oct102407.4592/netedit.gui/additionalElements/e2MultiLaneDetector/create\additionals.xml"/>
        <shapes-output value="C:/Users/SUMO-Test/.texttest/tmp/netedit.gui.02Oct102407.4592/netedit.gui/additionalElements/e2MultiLaneDetector/create\shapes.xml"/>
    </netedit>

    <visualisation>
        <gui-settings-file value="C:/Users/SUMO-Test/.texttest/tmp/netedit.gui.02Oct102407.4592/netedit.gui/additionalElements/e2MultiLaneDetector/create\gui-settings.xml"/>
        <window-size value="700,500"/>
        <window-pos value="50,50"/>
        <gui-testing value="true"/>
        <gui-testing-debug value="true"/>
        <gui-testing-debug-gl value="true"/>
    </visualisation>

    <report>
        <no-warnings value="true"/>
        <error-log value="C:/Users/SUMO-Test/.texttest/tmp/netedit.gui.02Oct102407.4592/netedit.gui/additionalElements/e2MultiLaneDetector/create\log.txt"/>
    </report>

</configuration>
-->

<net version="1.6" junctionCornerDetail="5" limitTurnSpeed="5.50" xmlns:xsi="http://www.w3.org/2001/XMLSchema-instance" xsi:noNamespaceSchemaLocation="http://sumo.dlr.de/xsd/net_file.xsd">

    <location netOffset="25.00,0.00" convBoundary="0.00,0.00,50.00,0.00" origBoundary="-10000000000.00,-10000000000.00,10000000000.00,10000000000.00" projParameter="!"/>

    <edge id=":gneJ1_0" function="internal">
        <lane id=":gneJ1_0_0" index="0" speed="3.65" length="4.67" shape="50.00,-1.60 51.20,-0.80 51.60,0.00 51.20,0.80 50.00,1.60"/>
    </edge>
    <edge id=":gneJ2_0" function="internal">
        <lane id=":gneJ2_0_0" index="0" speed="13.89" length="0.10" shape="25.00,1.60 25.00,1.60"/>
    </edge>
    <edge id=":gneJ2_1" function="internal">
        <lane id=":gneJ2_1_0" index="0" speed="13.89" length="0.10" shape="25.00,-1.60 25.00,-1.60"/>
    </edge>

    <edge id="gneE2" from="gneJ0" to="gneJ2" priority="-1">
        <lane id="gneE2_0" index="0" speed="13.89" length="25.00" shape="0.00,-1.60 25.00,-1.60"/>
    </edge>
    <edge id="gneE3" from="gneJ2" to="gneJ1" priority="-1">
        <lane id="gneE3_0" index="0" speed="13.89" length="25.00" shape="25.00,-1.60 50.00,-1.60"/>
    </edge>
    <edge id="gneE4" from="gneJ1" to="gneJ2" priority="-1">
        <lane id="gneE4_0" index="0" speed="13.89" length="25.00" shape="50.00,1.60 25.00,1.60"/>
    </edge>
    <edge id="gneE5" from="gneJ2" to="gneJ0" priority="-1">
        <lane id="gneE5_0" index="0" speed="13.89" length="25.00" shape="25.00,1.60 0.00,1.60"/>
    </edge>

    <junction id="gneJ0" type="dead_end" x="0.00" y="0.00" incLanes="gneE5_0" intLanes="" shape="0.00,0.00 0.00,3.20 0.00,0.00"/>
    <junction id="gneJ1" type="priority" x="50.00" y="0.00" incLanes="gneE3_0" intLanes=":gneJ1_0_0" shape="50.00,0.00 50.00,-3.20 50.00,0.00">
        <request index="0" response="0" foes="0" cont="0"/>
    </junction>
    <junction id="gneJ2" type="priority" x="25.00" y="0.00" incLanes="gneE4_0 gneE2_0" intLanes=":gneJ2_0_0 :gneJ2_1_0" shape="25.00,3.20 25.00,-3.20 25.00,3.20">
        <request index="0" response="00" foes="00" cont="0"/>
        <request index="1" response="00" foes="00" cont="0"/>
    </junction>

    <connection from="gneE2" to="gneE3" fromLane="0" toLane="0" via=":gneJ2_1_0" dir="s" state="M"/>
    <connection from="gneE3" to="gneE4" fromLane="0" toLane="0" via=":gneJ1_0_0" dir="t" state="M"/>
    <connection from="gneE4" to="gneE5" fromLane="0" toLane="0" via=":gneJ2_0_0" dir="s" state="M"/>

    <connection from=":gneJ1_0" to="gneE4" fromLane="0" toLane="0" dir="t" state="M"/>
    <connection from=":gneJ2_0" to="gneE5" fromLane="0" toLane="0" dir="s" state="M"/>
    <connection from=":gneJ2_1" to="gneE3" fromLane="0" toLane="0" dir="s" state="M"/>

</net>
