<?xml version="1.0"?>

<!-- generated on Tue May 24 15:53:53 2011 by SUMO netconvert Version dev-SVN-r10434
<?xml version="1.0" encoding="iso-8859-1"?>

<configuration xmlns:xsi="http://www.w3.org/2001/XMLSchema-instance" xsi:noNamespaceSchemaLocation="http://sumo.dlr.de/xsd/netconvertConfiguration.xsd">

    <input>
        <sumo-net-file value="clusterjunctin.net.xml"/>
    </input>

    <output>
        <plain-output-prefix value="input_edges"/>
    </output>

</configuration>
-->

<nodes xmlns:xsi="http://www.w3.org/2001/XMLSchema-instance" xsi:noNamespaceSchemaLocation="http://sumo.dlr.de/xsd/nodes_file.xsd">
   <node id="C" type="priority"/>
</nodes>
