<?xml version="1.0" encoding="UTF-8"?>

<!-- generated on 2021-06-16 11:07:03 by Eclipse SUMO netedit Version v1_9_2+0572-e90aded036
-->

<additional xmlns:xsi="http://www.w3.org/2001/XMLSchema-instance" xsi:noNamespaceSchemaLocation="http://sumo.dlr.de/xsd/additional_file.xsd">
    <poi id="POI_0" color="red" layer="0.00" lane="gneE1_0" pos="20.00" width="0.00"/>
    <poi id="POI_2" color="red" layer="0.00" lane="gneE1_0" pos="20.00" width="0.00" height="2.00"/>
</additional>
