<?xml version="1.0" encoding="UTF-8"?>

<!-- generated on 12/18/12 09:23:27 by SUMO netconvert Version dev-SVN-r13169
<?xml version="1.0" encoding="UTF-8"?>

<configuration xmlns:xsi="http://www.w3.org/2001/XMLSchema-instance" xsi:noNamespaceSchemaLocation="http://sumo-sim.org/xsd/netconvertConfiguration.xsd">

    <input>
        <node-files value="input_nodes.nod.xml"/>
        <edge-files value="input_edges.edg.xml"/>
    </input>

    <output>
        <output-file value="net.net.xml"/>
    </output>

    <projection>
        <simple-projection value="true"/>
    </projection>

</configuration>
-->

<net version="0.13" xmlns:xsi="http://www.w3.org/2001/XMLSchema-instance" xsi:noNamespaceSchemaLocation="http://sumo-sim.org/xsd/net_file.xsd">

    <location netOffset="-12.01,-48.09" convBoundary="0.00,0.00,0.05,0.03" origBoundary="12.01,48.09,12.06,48.12" projParameter="!"/>

    <edge id="o" from="0" to="1" priority="-1">
        <lane id="o_0" index="0" speed="13.90" length="0.06" shape="-0.97,-1.30 -0.92,-1.33"/>
    </edge>

    <junction id="0" type="unregulated" x="0.00" y="0.03" incLanes="" intLanes="" shape="-0.03,-0.01 -1.91,-2.60"/>
    <junction id="1" type="unregulated" x="0.05" y="0.00" incLanes="o_0" intLanes="" shape="-1.86,-2.63 0.02,-0.04"/>

</net>
