<?xml version="1.0"?>

<!-- generated on 03/09/11 14:28:05 by SUMO sumo Version dev-SVN-r9885
<?xml version="1.0" encoding="iso-8859-1"?>

<configuration xmlns:xsi="http://www.w3.org/2001/XMLSchema-instance" xsi:noNamespaceSchemaLocation="http://sumo.sf.net/xsd/sumoConfiguration.xsd">

    <input>
        <net-file value="net.net.xml"/>
        <additional-files value="input_routes.rou.xml,input_additional.add.xml,input_additional2.add.xml"/>
    </input>

    <time>
        <begin value="0"/>
        <end value="1000"/>
    </time>

    <processing>
        <time-to-teleport value="-1"/>
    </processing>

    <report>
        <no-duration-log value="true"/>
        <no-step-log value="true"/>
    </report>

</configuration>
-->

<netstats>
    <interval begin="600.00" end="660.00" id="dump_60">
        <edge id="3/1to2/1">
            <lane id="3/1to2/1_0" sampledSeconds="1200.00" CO_abs="7645.873333" CO2_abs="722031.333333" HC_abs="419.304000" PMx_abs="25.513783" NOx_abs="1007.412000" fuel_abs="287.862616"
            CO_normed="1174.782074" CO2_normed="110939.513444" HC_normed="64.425711" PMx_normed="3.920172" NOx_normed="154.788015" fuel_normed="44.229851"
            traveltime="100000.00" CO_perVeh="637.156111" CO2_perVeh="60169.277778" HC_perVeh="34.942000" PMx_perVeh="2.126149" NOx_perVeh="83.951000" fuel_perVeh="23.988551"/>
        </edge>
    </interval>
</netstats>
