<?xml version="1.0" encoding="UTF-8"?>

<!-- generated on 2023-03-03 09:52:32 by Eclipse SUMO netconvert Version v1_16_0+0956-72e0ef1
This data file and the accompanying materials
are made available under the terms of the Eclipse Public License v2.0
which accompanies this distribution, and is available at
http://www.eclipse.org/legal/epl-v20.html
This file may also be made available under the following Secondary
Licenses when the conditions for such availability set forth in the Eclipse
Public License 2.0 are satisfied: GNU General Public License, version 2
or later which is available at
https://www.gnu.org/licenses/old-licenses/gpl-2.0-standalone.html
SPDX-License-Identifier: EPL-2.0 OR GPL-2.0-or-later
<configuration xmlns:xsi="http://www.w3.org/2001/XMLSchema-instance" xsi:noNamespaceSchemaLocation="http://sumo.dlr.de/xsd/netconvertConfiguration.xsd">

    <input>
        <node-files value="input_plain.nod.xml"/>
        <edge-files value="input_plain.edg.xml"/>
    </input>

    <output>
        <write-license value="true"/>
        <output-file value="net.net.xml"/>
    </output>

    <report>
        <xml-validation value="never"/>
    </report>

</configuration>
-->

<net version="1.16" junctionCornerDetail="5" limitTurnSpeed="5.50" xmlns:xsi="http://www.w3.org/2001/XMLSchema-instance" xsi:noNamespaceSchemaLocation="http://sumo.dlr.de/xsd/net_file.xsd">

    <location netOffset="100.00,100.00" convBoundary="0.00,0.00,200.00,200.00" origBoundary="-10000000000.00,-10000000000.00,10000000000.00,10000000000.00" projParameter="!"/>

    <edge id=":C_0" function="internal">
        <lane id=":C_0_0" index="0" speed="13.89" length="14.40" shape="101.40,107.20 101.40,92.80"/>
    </edge>
    <edge id=":C_1" function="internal">
        <lane id=":C_1_0" index="0" speed="7.33" length="11.73" shape="101.40,107.20 101.75,103.35 102.80,100.60 104.55,98.95 107.00,98.40"/>
    </edge>
    <edge id=":C_2" function="internal">
        <lane id=":C_2_0" index="0" speed="7.33" length="11.73" shape="107.00,101.60 104.55,101.05 102.80,99.40 101.75,96.65 101.40,92.80"/>
    </edge>
    <edge id=":C_3" function="internal">
        <lane id=":C_3_0" index="0" speed="3.65" length="4.67" shape="107.00,101.60 105.80,100.80 105.40,100.00 105.80,99.20 107.00,98.40"/>
    </edge>
    <edge id=":C_4" function="internal">
        <lane id=":C_4_0" index="0" allow="bus" speed="6.51" length="9.03" shape="92.60,98.40 95.05,98.05 96.80,97.00 97.85,95.25 98.20,92.80"/>
        <lane id=":C_4_1" index="1" speed="7.33" length="11.73" shape="92.60,98.40 96.45,98.05 99.20,97.00 100.85,95.25 101.40,92.80"/>
    </edge>
    <edge id=":C_6" function="internal">
        <lane id=":C_6_0" index="0" speed="13.89" length="14.40" shape="92.60,98.40 107.00,98.40"/>
    </edge>
    <edge id=":E_0" function="internal">
        <lane id=":E_0_0" index="0" speed="3.65" length="4.67" shape="200.00,98.40 201.20,99.20 201.60,100.00 201.20,100.80 200.00,101.60"/>
    </edge>

    <edge id="-SC" from="C" to="S" priority="2" shape="103.00,100.00 103.00,69.45 103.00,0.00">
        <lane id="-SC_0" index="0" allow="bus" speed="13.89" length="92.80" shape="98.20,92.80 98.20,69.45 98.20,0.00"/>
        <lane id="-SC_1" index="1" speed="13.89" length="92.80" shape="101.40,92.80 101.40,69.45 101.40,0.00"/>
    </edge>
    <edge id="CE" from="C" to="E" priority="1">
        <lane id="CE_0" index="0" speed="13.89" length="93.00" shape="107.00,98.40 200.00,98.40"/>
    </edge>
    <edge id="EC" from="E" to="C" priority="1">
        <lane id="EC_0" index="0" speed="13.89" length="93.00" shape="200.00,101.60 107.00,101.60"/>
    </edge>
    <edge id="NC" from="N" to="C" priority="2" shape="103.00,200.00 103.00,100.00">
        <lane id="NC_0" index="0" speed="13.89" length="92.80" shape="101.40,200.00 101.40,107.20"/>
    </edge>
    <edge id="WC" from="W" to="C" priority="1">
        <lane id="WC_0" index="0" speed="13.89" length="92.60" shape="0.00,98.40 92.60,98.40"/>
    </edge>

    <junction id="C" type="priority" x="100.00" y="100.00" incLanes="NC_0 EC_0 WC_0" intLanes=":C_0_0 :C_1_0 :C_2_0 :C_3_0 :C_4_0 :C_4_1 :C_6_0" shape="99.80,107.20 103.00,107.20 103.44,104.98 104.00,104.20 104.78,103.64 105.78,103.31 107.00,103.20 107.00,96.80 104.78,96.36 104.00,95.80 103.44,95.02 103.11,94.02 103.00,92.80 96.60,92.80 96.16,95.02 95.60,95.80 94.82,96.36 93.82,96.69 92.60,96.80 92.60,100.00 94.80,100.20 96.60,100.80 98.00,101.80 99.00,103.20 99.60,105.00">
        <request index="0" response="0000000" foes="1110100" cont="0"/>
        <request index="1" response="0000000" foes="1001100" cont="0"/>
        <request index="2" response="1110011" foes="1110011" cont="0"/>
        <request index="3" response="1000010" foes="1000010" cont="0"/>
        <request index="4" response="0000000" foes="0000000" cont="0"/>
        <request index="5" response="0000001" foes="0000101" cont="0"/>
        <request index="6" response="0000011" foes="0001111" cont="0"/>
    </junction>
    <junction id="E" type="priority" x="200.00" y="100.00" incLanes="CE_0" intLanes=":E_0_0" shape="200.00,100.00 200.00,96.80 200.00,100.00">
        <request index="0" response="0" foes="0" cont="0"/>
    </junction>
    <junction id="N" type="dead_end" x="100.00" y="200.00" incLanes="" intLanes="" shape="103.00,200.00 99.80,200.00"/>
    <junction id="S" type="dead_end" x="100.00" y="0.00" incLanes="-SC_0 -SC_1" intLanes="" shape="96.60,0.00 103.00,0.00"/>
    <junction id="W" type="dead_end" x="0.00" y="100.00" incLanes="" intLanes="" shape="0.00,100.00 0.00,96.80"/>

    <connection from="CE" to="EC" fromLane="0" toLane="0" via=":E_0_0" dir="t" state="M"/>
    <connection from="EC" to="-SC" fromLane="0" toLane="1" via=":C_2_0" dir="l" state="m"/>
    <connection from="EC" to="CE" fromLane="0" toLane="0" via=":C_3_0" dir="t" state="m"/>
    <connection from="NC" to="-SC" fromLane="0" toLane="1" via=":C_0_0" dir="s" state="M"/>
    <connection from="NC" to="CE" fromLane="0" toLane="0" via=":C_1_0" dir="l" state="M"/>
    <connection from="WC" to="-SC" fromLane="0" toLane="0" via=":C_4_0" dir="r" state="M"/>
    <connection from="WC" to="-SC" fromLane="0" toLane="1" via=":C_4_1" dir="r" state="m"/>
    <connection from="WC" to="CE" fromLane="0" toLane="0" via=":C_6_0" dir="s" state="m"/>

    <connection from=":C_0" to="-SC" fromLane="0" toLane="1" dir="s" state="M"/>
    <connection from=":C_1" to="CE" fromLane="0" toLane="0" dir="l" state="M"/>
    <connection from=":C_2" to="-SC" fromLane="0" toLane="1" dir="l" state="M"/>
    <connection from=":C_3" to="CE" fromLane="0" toLane="0" dir="t" state="M"/>
    <connection from=":C_4" to="-SC" fromLane="0" toLane="0" dir="r" state="M"/>
    <connection from=":C_4" to="-SC" fromLane="1" toLane="1" dir="r" state="M"/>
    <connection from=":C_6" to="CE" fromLane="0" toLane="0" dir="s" state="M"/>
    <connection from=":E_0" to="EC" fromLane="0" toLane="0" dir="t" state="M"/>

</net>
