<?xml version="1.0" encoding="UTF-8"?>

<!-- generated on 2023-04-18 09:59:13 by Eclipse SUMO netedit Version v1_16_0+2135-40d51fde2c5
-->

<additional xmlns:xsi="http://www.w3.org/2001/XMLSchema-instance" xsi:noNamespaceSchemaLocation="http://sumo.dlr.de/xsd/additional_file.xsd">
    <!-- StoppingPlaces -->
    <busStop id="bs_0" lane="-E1_0" startPos="16.60" endPos="26.60"/>
    <busStop id="bs_1" lane="-E2_0" startPos="16.60" endPos="26.60"/>
    <busStop id="bs_2" lane="-E3_0" startPos="16.60" endPos="26.60"/>
    <busStop id="bs_3" lane="-E0_0" startPos="16.60" endPos="26.60"/>
    <!-- Detectors -->
    <inductionLoop id="e1_00" lane="-E3_1" pos="41.60" period="300.00" file="detectorOutput.xml"/>
    <inductionLoop id="e1_01" lane="-E2_2" pos="41.60" period="300.00" file="detectorOutput.xml"/>
    <inductionLoop id="e1_02" lane="E0_2" pos="41.60" period="300.00" file="detectorOutput.xml"/>
    <inductionLoop id="e1_03" lane="E1_1" pos="41.60" period="300.00" file="detectorOutput.xml"/>
    <inductionLoop id="e1_04" lane="E1_2" pos="41.60" period="300.00" file="detectorOutput.xml"/>
    <inductionLoop id="e1_05" lane="-E1_2" pos="41.60" period="300.00" file="detectorOutput.xml"/>
    <inductionLoop id="e1_06" lane="-E1_1" pos="41.60" period="300.00" file="detectorOutput.xml"/>
    <inductionLoop id="e1_07" lane="-E2_1" pos="41.60" period="300.00" file="detectorOutput.xml"/>
    <inductionLoop id="e1_08" lane="E2_2" pos="41.60" period="300.00" file="detectorOutput.xml"/>
    <inductionLoop id="e1_09" lane="E2_1" pos="41.60" period="300.00" file="detectorOutput.xml"/>
    <inductionLoop id="e1_10" lane="-E3_2" pos="41.60" period="300.00" file="detectorOutput.xml"/>
    <inductionLoop id="e1_11" lane="E3_2" pos="41.60" period="300.00" file="detectorOutput.xml"/>
    <inductionLoop id="e1_12" lane="E3_1" pos="41.60" period="300.00" file="detectorOutput.xml"/>
    <inductionLoop id="e1_13" lane="E0_1" pos="41.60" period="300.00" file="detectorOutput.xml"/>
    <!-- Other additionals -->
    <rerouter id="rr_0" edges="-E3 E3 -E2 E2 -E1 E1 -E0 E0" pos="60.00,0.00"/>
    <!-- Shapes -->
    <poly id="po_0" color="red" fill="1" layer="0.00" shape="10.000000,20.000000 10.000000,-20.000000 0.000000,-20.000000 0.000000,20.000000 10.000000,20.000000"/>
    <poly id="po_1" color="red" fill="1" layer="0.00" shape="110.000000,-20.000000 110.000000,20.000000 110.000000,20.000000 120.000000,20.000000 120.000000,20.000000 120.000000,-20.000000 120.000000,-20.000000 110.000000,-20.000000"/>
    <poly id="po_2" color="red" fill="1" layer="0.00" shape="80.000000,50.000000 40.000000,50.000000 40.000000,50.000000 40.000000,60.000000 40.000000,60.000000 80.000000,60.000000 80.000000,50.000000"/>
    <poly id="po_3" color="red" fill="1" layer="0.00" shape="40.000000,-50.000000 90.000000,-50.000000 90.000000,-60.000000 40.000000,-60.000000 40.000000,-50.000000"/>
</additional>
