<?xml version="1.0" encoding="UTF-8"?>

<!-- generated on 2025-11-17T07:54:48.584313+01:00 by Eclipse SUMO netedit v1_25_0+0067-3619a2a5e3f
-->

<additional xmlns:xsi="http://www.w3.org/2001/XMLSchema-instance" xsi:noNamespaceSchemaLocation="http://sumo.dlr.de/xsd/additional_file.xsd">
    <!-- StoppingPlaces -->
    <trainStop id="ts_0" name="A" lane="E0_0" startPos="90." endPos="140"/>
    <trainStop id="ts_1" name="B" lane="E3_0" startPos="30." endPos="80"/>
    <trainStop id="ts_2" name="C" lane="E4_0" startPos="90." endPos="140"/>
    <trainStop id="ts_3" name="B" lane="E6_0" startPos="30." endPos="80"/>
</additional>
