<routes xmlns:xsi="http://www.w3.org/2001/XMLSchema-instance" xsi:noNamespaceSchemaLocation="http://sumo.dlr.de/xsd/routes_file.xsd">
    <!-- custom type is defined in input_additional2.add.xml for each test case -->
    <routeDistribution id="startAnywhere">
        <route edges="6/1to7/1 7/1to8/1 8/1to9/1 9/1to10/1 10/1to1/1 1/1to2/1 2/1to3/1 3/1to4/1 4/1to5/1 5/1to6/1"/>
        <route edges="7/1to8/1 8/1to9/1 9/1to10/1 10/1to1/1 1/1to2/1 2/1to3/1 3/1to4/1 4/1to5/1 5/1to6/1"/>
        <route edges="8/1to9/1 9/1to10/1 10/1to1/1 1/1to2/1 2/1to3/1 3/1to4/1 4/1to5/1 5/1to6/1"/>
        <route edges="9/1to10/1 10/1to1/1 1/1to2/1 2/1to3/1 3/1to4/1 4/1to5/1 5/1to6/1"/>
        <route edges="10/1to1/1 1/1to2/1 2/1to3/1 3/1to4/1 4/1to5/1 5/1to6/1"/>
        <route edges="1/1to2/1 2/1to3/1 3/1to4/1 4/1to5/1 5/1to6/1"/>
        <route edges="2/1to3/1 3/1to4/1 4/1to5/1 5/1to6/1"/>
        <route edges="3/1to4/1 4/1to5/1 5/1to6/1"/>
        <route edges="4/1to5/1 5/1to6/1"/>
        <route edges="5/1to6/1"/>
    </routeDistribution>
    <flow id="0" type="custom" route="startAnywhere" begin="0" end="1" number="1000" departPos="last" departSpeed="14"/>
</routes>
