<?xml version="1.0" encoding="UTF-8"?>

<!-- generated on 2021-11-16 09:50:21 by Eclipse SUMO netedit Version v1_10_0+2302-18d2c1dce6e
-->

<additional xmlns:xsi="http://www.w3.org/2001/XMLSchema-instance" xsi:noNamespaceSchemaLocation="http://sumo.dlr.de/xsd/additional_file.xsd">
    <routeProbe id="routeProbe_01" begin="0.00" freq="100.00" edge="gneE1" file="routeProbe_01.txt"/>
    <routeProbe id="routeProbe_02" begin="0.00" freq="100.00" edge="gneE1" file="routeProbe_02.txt"/>
    <routeProbe id="routeProbe_03" begin="0.00" freq="100.00" edge="gneE1" file="routeProbe_03.txt"/>
    <routeProbe id="routeProbe_05" begin="0.00" freq="100.00" edge="gneE1" file="routeProbe_05.txt"/>
    <routeProbe id="routeProbe_06" begin="0.00" freq="100.00" edge="gneE1" file="routeProbe_06.txt"/>
    <routeProbe id="routeProbe_07" begin="0.00" freq="100.00" edge="gneE1" file="routeProbe_07.txt"/>
    <routeProbe id="routeProbe_08" begin="0.00" freq="100.00" edge="gneE1" file="routeProbe_08.txt"/>
    <routeProbe id="routeProbe_09" begin="0.00" freq="120.30" edge="gneE1" file="routeProbe_09.txt"/>
    <routeProbe id="routeProbe_13" begin="0.00" freq="100.00" edge="gneE1" file="myOwnFile.txt"/>
    <routeProbe id="routeProbe_14" begin="0.00" freq="100.00" edge="gneE1" file="routeProbe_13.txt"/>
    <routeProbe id="routeProbe_15" begin="0.00" freq="100.00" edge="gneE1" file="routeProbe_14.txt"/>
    <routeProbe id="routeProbe_16" begin="0.00" freq="100.00" edge="gneE1" file="routeProbe_14.txt"/>
    <routeProbe id="routeProbe_17" begin="10.30" freq="100.00" edge="gneE1" file="routeProbe_14.txt"/>
</additional>
