<routes xmlns:xsi="http://www.w3.org/2001/XMLSchema-instance" xsi:noNamespaceSchemaLocation="http://sumo.dlr.de/xsd/routes_file.xsd">
   <vType id="DEFAULT_VEHTYPE" sigma="0"/>
    <person id="4" depart="1">
        <walk edges="beg" duration="1186.0"/>
        <walk edges="left" duration="1301.0"/>
    </person>
</routes>
