<?xml version="1.0" encoding="UTF-8"?>

<!-- generated on Mon 18 Nov 2019 11:45:42 PM CET by Eclipse SUMO netedit Version v1_3_1+0946-9ae189ee1e
<configuration xmlns:xsi="http://www.w3.org/2001/XMLSchema-instance" xsi:noNamespaceSchemaLocation="http://sumo.dlr.de/xsd/netconvertConfiguration.xsd">

    <input>
        <sumo-net-file value="net.net.xml"/>
    </input>

    <output>
        <output-file value="net.net.xml"/>
    </output>

    <processing>
        <geometry.max-grade.fix value="false"/>
        <offset.disable-normalization value="true"/>
        <lefthand value="false"/>
    </processing>

    <junctions>
        <no-internal-links value="true"/>
        <no-turnarounds value="true"/>
        <junctions.corner-detail value="0"/>
        <junctions.limit-turn-speed value="-1"/>
        <rectangular-lane-cut value="false"/>
    </junctions>

    <pedestrian>
        <walkingareas value="false"/>
    </pedestrian>

</configuration>
-->

<net version="1.3" xmlns:xsi="http://www.w3.org/2001/XMLSchema-instance" xsi:noNamespaceSchemaLocation="http://sumo.dlr.de/xsd/net_file.xsd">

    <location netOffset="0.00,0.00" convBoundary="0.00,0.00,500.00,0.00" origBoundary="-10000000000.00,-10000000000.00,10000000000.00,10000000000.00" projParameter="!"/>

    <edge id="beg" from="gneJ0" to="gneJ1" priority="1">
        <lane id="beg_0" index="0" speed="13.89" length="300.00" shape="0.00,-4.80 300.00,-4.80"/>
        <lane id="beg_1" index="1" speed="13.89" length="300.00" shape="0.00,-1.60 300.00,-1.60"/>
    </edge>
    <edge id="end" from="gneJ1" to="gneJ2" priority="1">
        <lane id="end_0" index="0" speed="13.89" length="200.00" shape="300.00,-4.80 500.00,-4.80"/>
        <lane id="end_1" index="1" speed="13.89" length="200.00" shape="300.00,-1.60 500.00,-1.60"/>
    </edge>

    <junction id="gneJ0" type="dead_end" x="0.00" y="0.00" incLanes="" intLanes="" shape="0.00,0.00 0.00,-6.40"/>
    <junction id="gneJ1" type="priority" x="300.00" y="0.00" incLanes="beg_0 beg_1" intLanes="" shape="300.00,0.00 300.00,-6.40 300.00,0.00">
        <request index="0" response="00" foes="00"/>
        <request index="1" response="00" foes="00"/>
    </junction>
    <junction id="gneJ2" type="dead_end" x="500.00" y="0.00" incLanes="end_0 end_1" intLanes="" shape="500.00,-6.40 500.00,0.00"/>

    <connection from="beg" to="end" fromLane="0" toLane="0" dir="s" state="M"/>
    <connection from="beg" to="end" fromLane="1" toLane="1" dir="s" state="M"/>

</net>
