<?xml version="1.0" encoding="UTF-8"?>

<!-- generated on 16.11.2018 10:11:45 by Eclipse SUMO netedit Version v1_0_0+0907-4934d005c3
<configuration xmlns:xsi="http://www.w3.org/2001/XMLSchema-instance" xsi:noNamespaceSchemaLocation="https://sumo.dlr.de/xsd/netconvertConfiguration.xsd">

    <input>
        <sumo-net-file value="C:/Users/alva_pa/.texttest/tmp/netedit.gui.16Nov101135.6068/netedit.gui/additionalElements/access/inspect_selection/friendlypos\input_net.net.xml"/>
    </input>

    <output>
        <output-file value="C:/Users/alva_pa/.texttest/tmp/netedit.gui.16Nov101135.6068/netedit.gui/additionalElements/access/inspect_selection/friendlypos\net.net.xml"/>
    </output>

    <processing>
        <offset.disable-normalization value="true"/>
        <lefthand value="false"/>
    </processing>

    <junctions>
        <no-turnarounds value="true"/>
        <junctions.corner-detail value="5"/>
        <junctions.limit-turn-speed value="5.5"/>
        <rectangular-lane-cut value="false"/>
    </junctions>

    <pedestrian>
        <walkingareas value="false"/>
    </pedestrian>

    <netedit>
        <sumo-additionals-file value="C:/Users/alva_pa/.texttest/tmp/netedit.gui.16Nov101135.6068/netedit.gui/additionalElements/access/inspect_selection/friendlypos\input_additionals.add.xml"/>
        <additionals-output value="C:/Users/alva_pa/.texttest/tmp/netedit.gui.16Nov101135.6068/netedit.gui/additionalElements/access/inspect_selection/friendlypos\additionals.xml"/>
        <shapes-output value="C:/Users/alva_pa/.texttest/tmp/netedit.gui.16Nov101135.6068/netedit.gui/additionalElements/access/inspect_selection/friendlypos\shapes.xml"/>
    </netedit>

    <visualisation>
        <gui-settings-file value="C:/Users/alva_pa/.texttest/tmp/netedit.gui.16Nov101135.6068/netedit.gui/additionalElements/access/inspect_selection/friendlypos\gui-settings.xml"/>
        <window-size value="700,500"/>
        <window-pos value="50,50"/>
        <gui-testing value="true"/>
        <gui-testing-debug value="true"/>
        <gui-testing-debug-gl value="true"/>
    </visualisation>

    <report>
        <no-warnings value="true"/>
        <error-log value="C:/Users/alva_pa/.texttest/tmp/netedit.gui.16Nov101135.6068/netedit.gui/additionalElements/access/inspect_selection/friendlypos\log.txt"/>
    </report>

</configuration>
-->

<additional xmlns:xsi="http://www.w3.org/2001/XMLSchema-instance" xsi:noNamespaceSchemaLocation="https://sumo.dlr.de/xsd/additional_file.xsd">
    <busStop id="busStopA" lane="gneE1_0" startPos="23.00" endPos="33.00">
        <access length="10" lane="gneE1_0" pos="10.00" friendlyPos="1">
            <param key="KeyA1" value="valueA1"/>
            <param key="KeyA2" value="valueA3"/>
            <param key="KeyA3" value="valueA2"/>
        </access>
    </busStop>
    <busStop id="busStopB" lane="gneE0_0" startPos="23.00" endPos="33.00">
        <access length="20" lane="gneE0_0" pos="20.00" friendlyPos="1">
            <param key="KeyB1" value="valueB1"/>
            <param key="KeyB2" value="valueB3"/>
            <param key="KeyB3" value="valueB2"/>
        </access>
    </busStop>
</additional>
