<additional xmlns:xsi="http://www.w3.org/2001/XMLSchema-instance" xsi:noNamespaceSchemaLocation="https://sumo.dlr.de/xsd/additional_file.xsd">
    <trainStop id="busstop1" lane="middle_0" startPos="20" endPos="40" lines="100 101 102">
        <access lane="end_0" pos="20"/>
        <access lane="beg_0" pos="20"/>
    </trainStop>
</additional>
