<edges>

   <edge id="absBeg" from="absBeg" to="beg" speed="27.8" nolanes="2">
      <lane id="0" allow="bus;passenger"/>
   </edge>

   <edge id="beg2left" from="beg" to="begleft" nolanes="1" speed="27.8">
      <lane id="0" allow="bus"/>
   </edge>

   <edge id="left" from="begleft" to="endleft" nolanes="1" speed="27.8">
      <lane id="0" allow="bus"/>
   </edge>

   <edge id="middle" from="beg" to="end" nolanes="1" speed="13.9">
      <lane id="0" allow="passenger"/>
   </edge>

   <edge id="left2end" from="endleft" to="end" nolanes="1" speed="27.8">
      <lane id="0" allow="bus"/>
   </edge>

   <edge id="end" from="end" to="absEnd" speed="27.8" nolanes="2">
      <lane id="0" allow="bus;passenger"/>
   </edge>

   <edge id="absEnd" from="absEnd" to="rabsEnd" speed="27.8" nolanes="2">
      <lane id="0" allow="bus;passenger"/>
   </edge>


</edges>

