<?xml version="1.0" encoding="UTF-8"?>

<!-- generated on 30.11.2018 10:23:38 by Eclipse SUMO netedit Version v1_0_0+1123-7e66fbd65e
<configuration xmlns:xsi="http://www.w3.org/2001/XMLSchema-instance" xsi:noNamespaceSchemaLocation="http://sumo.dlr.de/xsd/netconvertConfiguration.xsd">

    <input>
        <sumo-net-file value="C:/Users/alva_pa/.texttest/tmp/netedit.gui.30Nov102327.376/netedit.gui/additionalElements/calibrator/load/vtypes/id\input_net.net.xml"/>
    </input>

    <output>
        <output-file value="C:/Users/alva_pa/.texttest/tmp/netedit.gui.30Nov102327.376/netedit.gui/additionalElements/calibrator/load/vtypes/id\net.net.xml"/>
    </output>

    <processing>
        <offset.disable-normalization value="true"/>
        <lefthand value="false"/>
    </processing>

    <junctions>
        <no-turnarounds value="true"/>
        <junctions.corner-detail value="5"/>
        <junctions.limit-turn-speed value="5.5"/>
        <rectangular-lane-cut value="false"/>
    </junctions>

    <pedestrian>
        <walkingareas value="false"/>
    </pedestrian>

    <netedit>
        <sumo-additionals-file value="C:/Users/alva_pa/.texttest/tmp/netedit.gui.30Nov102327.376/netedit.gui/additionalElements/calibrator/load/vtypes/id\input_additionals.add.xml"/>
        <additionals-output value="C:/Users/alva_pa/.texttest/tmp/netedit.gui.30Nov102327.376/netedit.gui/additionalElements/calibrator/load/vtypes/id\additionals.xml"/>
        <shapes-output value="C:/Users/alva_pa/.texttest/tmp/netedit.gui.30Nov102327.376/netedit.gui/additionalElements/calibrator/load/vtypes/id\shapes.xml"/>
    </netedit>

    <visualisation>
        <gui-settings-file value="C:/Users/alva_pa/.texttest/tmp/netedit.gui.30Nov102327.376/netedit.gui/additionalElements/calibrator/load/vtypes/id\gui-settings.xml"/>
        <window-size value="700,500"/>
        <window-pos value="50,50"/>
        <gui-testing value="true"/>
        <gui-testing-debug value="true"/>
        <gui-testing-debug-gl value="true"/>
    </visualisation>

    <report>
        <no-warnings value="true"/>
        <error-log value="C:/Users/alva_pa/.texttest/tmp/netedit.gui.30Nov102327.376/netedit.gui/additionalElements/calibrator/load/vtypes/id\log.txt"/>
    </report>

</configuration>
-->

<additional xmlns:xsi="http://www.w3.org/2001/XMLSchema-instance" xsi:noNamespaceSchemaLocation="http://sumo.dlr.de/xsd/additional_file.xsd">
    <vType id="type01" color="yellow"/>
    <vType id="type02" color="yellow"/>
    <calibrator id="calibratorVehicleTypes" edge="gneE0" pos="10.00" freq="100.00" output="calibratorVehicleTypes.txt"/>
</additional>
