<?xml version="1.0" encoding="UTF-8"?>

<!-- generated on 2023-04-21 08:25:29 by Eclipse SUMO netconvert Version v1_16_0+2264-6d5ab3f
<configuration xmlns:xsi="http://www.w3.org/2001/XMLSchema-instance" xsi:noNamespaceSchemaLocation="http://sumo.dlr.de/xsd/netconvertConfiguration.xsd">

    <input>
        <sumo-net-file value="net2.net.xml"/>
    </input>

    <output>
        <plain-output-prefix value="input_plain"/>
    </output>

    <processing>
        <geometry.min-radius.fix.railways value="false"/>
        <geometry.max-grade.fix value="false"/>
        <offset.disable-normalization value="true"/>
        <lefthand value="0"/>
    </processing>

    <junctions>
        <no-turnarounds value="true"/>
        <junctions.corner-detail value="0"/>
        <junctions.limit-turn-speed value="-1.00"/>
        <rectangular-lane-cut value="0"/>
    </junctions>

    <pedestrian>
        <walkingareas value="0"/>
    </pedestrian>

</configuration>
-->

<edges version="1.16" xmlns:xsi="http://www.w3.org/2001/XMLSchema-instance" xsi:noNamespaceSchemaLocation="http://sumo.dlr.de/xsd/edges_file.xsd">
    <edge id="CE" from="C" to="E" priority="2" numLanes="2" speed="13.89">
        <lane index="0" allow="bus"/>
        <lane index="1"/>
    </edge>
    <edge id="CS" from="C" to="S" priority="2" numLanes="1" speed="13.89"/>
    <edge id="WC" from="W" to="C" priority="2" numLanes="2" speed="13.89">
        <lane index="0"/>
        <lane index="1" allow="bus"/>
    </edge>
</edges>
