<?xml version="1.0" encoding="UTF-8"?>

<!-- generated on Fri Aug 16 10:15:49 2013 by SUMO netconvert Version dev-SVN-r14412
<?xml version="1.0" encoding="UTF-8"?>

<configuration xmlns:xsi="http://www.w3.org/2001/XMLSchema-instance" xsi:noNamespaceSchemaLocation="http://sumo.sf.net/xsd/netconvertConfiguration.xsd">

    <input>
        <osm-files value="osm.xml"/>
    </input>

    <output>
        <output-file value="input_net.net.xml"/>
    </output>

    <projection>
        <proj.utm value="true"/>
    </projection>

    <processing>
        <geometry.remove value="true"/>
        <roundabouts.guess value="true"/>
        <junctions.join value="true"/>
    </processing>

</configuration>
-->

<net version="0.13" xmlns:xsi="http://www.w3.org/2001/XMLSchema-instance" xsi:noNamespaceSchemaLocation="http://sumo.sf.net/xsd/net_file.xsd">

    <location netOffset="-399345.66,-5809365.64" convBoundary="0.00,0.00,1737.68,767.39" origBoundary="13.519602,52.425528,13.545248,52.434465" projParameter="+proj=utm +zone=33 +ellps=WGS84 +datum=WGS84 +units=m +no_defs"/>

    <edge id=":175648134_0" function="internal">
        <lane id=":175648134_0_0" index="0" speed="5.56" length="4.82" shape="15.89,169.70 14.56,169.04 14.04,168.28 14.34,167.41 15.46,166.43"/>
    </edge>
    <edge id=":261599791_0" function="internal">
        <lane id=":261599791_0_0" index="0" speed="27.78" length="0.10" shape="34.60,181.48 34.67,181.47"/>
    </edge>
    <edge id=":261599791_1" function="internal">
        <lane id=":261599791_1_0" index="0" speed="27.78" length="0.10" shape="34.18,178.21 34.21,178.20"/>
    </edge>
    <edge id=":261599791_2" function="internal">
        <lane id=":261599791_2_0" index="0" speed="27.78" length="2.41" shape="34.18,178.21 32.85,177.54 32.33,176.78"/>
    </edge>
    <edge id=":261599791_6" function="internal">
        <lane id=":261599791_6_0" index="0" speed="27.78" length="2.41" shape="32.33,176.78 32.64,175.91 33.76,174.93"/>
    </edge>
    <edge id=":261599791_3" function="internal">
        <lane id=":261599791_3_0" index="0" speed="27.78" length="0.10" shape="33.34,171.66 33.34,171.66"/>
    </edge>
    <edge id=":261599791_4" function="internal">
        <lane id=":261599791_4_0" index="0" speed="27.78" length="0.10" shape="33.76,174.93 33.76,174.93"/>
    </edge>
    <edge id=":261599791_5" function="internal">
        <lane id=":261599791_5_0" index="0" speed="27.78" length="2.41" shape="33.76,174.93 35.09,175.58 35.62,176.34"/>
    </edge>
    <edge id=":261599791_7" function="internal">
        <lane id=":261599791_7_0" index="0" speed="27.78" length="2.41" shape="35.62,176.34 35.32,177.22 34.21,178.20"/>
    </edge>
    <edge id=":261636677_0" function="internal">
        <lane id=":261636677_0_0" index="0" speed="13.89" length="5.30" shape="1124.74,113.88 1119.99,116.22"/>
    </edge>
    <edge id=":261636677_1" function="internal">
        <lane id=":261636677_1_0" index="0" speed="13.89" length="7.46" shape="1124.74,113.88 1122.60,113.74 1121.02,113.02 1120.01,111.72 1119.56,109.85"/>
    </edge>
    <edge id=":261636677_2" function="internal">
        <lane id=":261636677_2_0" index="0" speed="13.89" length="4.32" shape="1117.92,113.65 1118.70,112.86 1119.24,111.96 1119.52,110.96 1119.56,109.85"/>
    </edge>
    <edge id=":261636677_3" function="internal">
        <lane id=":261636677_3_0" index="0" speed="13.89" length="2.41" shape="1117.92,113.65 1119.40,113.52 1120.24,113.90"/>
    </edge>
    <edge id=":261636677_4" function="internal">
        <lane id=":261636677_4_0" index="0" speed="13.89" length="2.41" shape="1120.24,113.90 1120.43,114.80 1119.99,116.22"/>
    </edge>
    <edge id=":261636678_0" function="internal">
        <lane id=":261636678_0_0" index="0" speed="20.83" length="4.99" shape="1115.78,61.13 1115.48,59.79 1114.83,58.86 1113.84,58.33 1112.49,58.21"/>
    </edge>
    <edge id=":261636678_1" function="internal">
        <lane id=":261636678_1_0" index="0" speed="20.83" length="10.83" shape="1115.78,61.13 1115.64,56.89 1115.96,53.82 1116.76,51.93 1118.02,51.21"/>
    </edge>
    <edge id=":261636678_2" function="internal">
        <lane id=":261636678_2_0" index="0" speed="27.78" length="6.13" shape="1118.61,57.78 1112.49,58.21"/>
    </edge>
    <edge id=":261636678_3" function="internal">
        <lane id=":261636678_3_0" index="0" speed="27.78" length="6.00" shape="1118.31,54.49 1112.33,54.91"/>
    </edge>
    <edge id=":261636678_4" function="internal">
        <lane id=":261636678_4_0" index="0" speed="27.78" length="2.41" shape="1118.31,54.49 1117.01,53.78 1116.52,53.00"/>
    </edge>
    <edge id=":261636678_8" function="internal">
        <lane id=":261636678_8_0" index="0" speed="27.78" length="2.41" shape="1116.52,53.00 1116.86,52.14 1118.02,51.21"/>
    </edge>
    <edge id=":261636678_5" function="internal">
        <lane id=":261636678_5_0" index="0" speed="27.78" length="5.73" shape="1112.00,48.32 1117.72,47.92"/>
    </edge>
    <edge id=":261636678_6" function="internal">
        <lane id=":261636678_6_0" index="0" speed="27.78" length="5.87" shape="1112.16,51.61 1118.02,51.21"/>
    </edge>
    <edge id=":261636678_7" function="internal">
        <lane id=":261636678_7_0" index="0" speed="27.78" length="2.41" shape="1112.16,51.61 1113.44,52.38 1113.89,53.18"/>
    </edge>
    <edge id=":261636678_9" function="internal">
        <lane id=":261636678_9_0" index="0" speed="27.78" length="2.41" shape="1113.89,53.18 1113.52,54.03 1112.33,54.91"/>
    </edge>
    <edge id=":283018817_0" function="internal">
        <lane id=":283018817_0_0" index="0" speed="11.11" length="7.33" shape="609.10,545.47 611.51,545.62 613.44,545.38 614.89,544.75 615.84,543.73"/>
    </edge>
    <edge id=":283018817_1" function="internal">
        <lane id=":283018817_1_0" index="0" speed="8.33" length="4.82" shape="609.10,545.47 610.22,546.45 610.53,547.32 610.01,548.09 608.68,548.75"/>
    </edge>
    <edge id=":283018817_2" function="internal">
        <lane id=":283018817_2_0" index="0" speed="11.11" length="5.59" shape="610.58,552.63 611.21,551.12 611.11,549.97 610.26,549.18 608.68,548.75"/>
    </edge>
    <edge id=":283018817_3" function="internal">
        <lane id=":283018817_3_0" index="0" speed="13.89" length="10.34" shape="610.58,552.63 612.12,550.03 613.21,548.18 614.31,546.33 615.84,543.73"/>
    </edge>
    <edge id=":283018841_0" function="internal">
        <lane id=":283018841_0_0" index="0" speed="8.33" length="9.60" shape="526.33,536.70 523.72,536.12 521.41,536.28 519.39,537.19 517.68,538.86"/>
    </edge>
    <edge id=":283018841_1" function="internal">
        <lane id=":283018841_1_0" index="0" speed="8.33" length="13.25" shape="526.33,536.70 523.04,535.58 520.05,534.60 517.03,533.69 513.69,532.74"/>
    </edge>
    <edge id=":283018841_2" function="internal">
        <lane id=":283018841_2_0" index="0" speed="8.33" length="13.51" shape="526.33,536.70 522.72,534.88 521.20,532.64 521.76,529.99 524.41,526.93"/>
    </edge>
    <edge id=":283018841_3" function="internal">
        <lane id=":283018841_3_0" index="0" speed="8.33" length="4.80" shape="526.33,536.70 525.44,535.52 525.33,534.61 525.98,533.97 527.42,533.61"/>
    </edge>
    <edge id=":283018841_4" function="internal">
        <lane id=":283018841_4_0" index="0" speed="8.33" length="5.80" shape="526.60,529.41 525.46,530.72 525.22,531.86 525.87,532.82 527.42,533.61"/>
    </edge>
    <edge id=":283018841_5" function="internal">
        <lane id=":283018841_5_0" index="0" speed="8.33" length="13.02" shape="526.60,529.41 524.05,531.72 521.88,533.89 519.83,536.17 517.68,538.86"/>
    </edge>
    <edge id=":283018841_6" function="internal">
        <lane id=":283018841_6_0" index="0" speed="8.33" length="13.92" shape="526.60,529.41 523.56,531.58 520.40,532.87 517.11,533.25 513.69,532.74"/>
    </edge>
    <edge id=":283018841_7" function="internal">
        <lane id=":283018841_7_0" index="0" speed="8.33" length="4.82" shape="526.60,529.41 525.12,529.61 524.27,529.26 524.03,528.37 524.41,526.93"/>
    </edge>
    <edge id=":283018841_8" function="internal">
        <lane id=":283018841_8_0" index="0" speed="8.33" length="10.64" shape="514.56,529.56 517.14,529.94 519.65,529.62 522.07,528.62 524.41,526.93"/>
    </edge>
    <edge id=":283018841_9" function="internal">
        <lane id=":283018841_9_0" index="0" speed="8.33" length="13.48" shape="514.56,529.56 517.94,530.52 521.03,531.46 524.10,532.46 527.42,533.61"/>
    </edge>
    <edge id=":283018841_10" function="internal">
        <lane id=":283018841_10_0" index="0" speed="8.33" length="12.58" shape="514.56,529.56 517.93,531.01 519.58,533.05 519.49,535.66 517.68,538.86"/>
    </edge>
    <edge id=":283018841_11" function="internal">
        <lane id=":283018841_11_0" index="0" speed="8.33" length="4.82" shape="514.56,529.56 515.54,530.68 515.71,531.59 515.10,532.27 513.69,532.74"/>
    </edge>
    <edge id=":283018841_12" function="internal">
        <lane id=":283018841_12_0" index="0" speed="8.33" length="5.55" shape="515.06,536.84 515.86,535.43 515.90,534.28 515.17,533.38 513.69,532.74"/>
    </edge>
    <edge id=":283018841_13" function="internal">
        <lane id=":283018841_13_0" index="0" speed="8.33" length="13.65" shape="515.06,536.84 517.28,534.09 519.48,531.64 521.80,529.32 524.41,526.93"/>
    </edge>
    <edge id=":283018841_14" function="internal">
        <lane id=":283018841_14_0" index="0" speed="8.33" length="13.75" shape="515.06,536.84 517.55,534.40 520.44,533.05 523.73,532.79 527.42,533.61"/>
    </edge>
    <edge id=":283018841_15" function="internal">
        <lane id=":283018841_15_0" index="0" speed="8.33" length="4.82" shape="515.06,536.84 516.47,536.37 517.37,536.54 517.78,537.37 517.68,538.86"/>
    </edge>
    <edge id=":283018842_0" function="internal">
        <lane id=":283018842_0_0" index="0" speed="8.33" length="6.02" shape="488.43,532.58 487.49,526.63"/>
    </edge>
    <edge id=":283018842_1" function="internal">
        <lane id=":283018842_1_0" index="0" speed="8.33" length="21.22" shape="488.43,532.58 484.01,526.89 483.43,523.53 486.68,522.51 493.76,523.83"/>
    </edge>
    <edge id=":283018842_2" function="internal">
        <lane id=":283018842_2_0" index="0" speed="8.33" length="4.82" shape="488.43,532.58 488.20,531.11 488.52,530.25 489.41,529.99 490.86,530.34"/>
    </edge>
    <edge id=":283018842_3" function="internal">
        <lane id=":283018842_3_0" index="0" speed="8.33" length="8.08" shape="492.88,527.01 490.19,526.51 488.95,526.90 489.17,528.17 490.86,530.34"/>
    </edge>
    <edge id=":283018842_4" function="internal">
        <lane id=":283018842_4_0" index="0" speed="8.33" length="5.41" shape="492.88,527.01 487.49,526.63"/>
    </edge>
    <edge id=":283018842_5" function="internal">
        <lane id=":283018842_5_0" index="0" speed="8.33" length="4.82" shape="492.88,527.01 491.91,525.88 491.73,524.98 492.35,524.29 493.76,523.83"/>
    </edge>
    <edge id=":283018842_6" function="internal">
        <lane id=":283018842_6_0" index="0" speed="8.33" length="4.97" shape="488.79,523.60 493.76,523.83"/>
    </edge>
    <edge id=":283018842_7" function="internal">
        <lane id=":283018842_7_0" index="0" speed="8.33" length="7.05" shape="488.79,523.60 490.86,530.34"/>
    </edge>
    <edge id=":283018842_8" function="internal">
        <lane id=":283018842_8_0" index="0" speed="8.33" length="4.82" shape="488.79,523.60 489.60,524.85 489.66,525.77 488.95,526.36 487.49,526.63"/>
    </edge>
    <edge id=":283018844_0" function="internal">
        <lane id=":283018844_0_0" index="0" speed="8.33" length="6.83" shape="406.59,490.38 404.83,489.70 403.22,489.64 401.76,490.20 400.44,491.38"/>
    </edge>
    <edge id=":283018844_1" function="internal">
        <lane id=":283018844_1_0" index="0" speed="8.33" length="10.84" shape="406.59,490.38 403.87,488.90 401.85,487.76 399.86,486.57 397.23,484.93"/>
    </edge>
    <edge id=":283018844_2" function="internal">
        <lane id=":283018844_2_0" index="0" speed="8.33" length="11.44" shape="406.59,490.38 403.99,488.46 402.83,486.26 403.11,483.79 404.82,481.05"/>
    </edge>
    <edge id=":283018844_3" function="internal">
        <lane id=":283018844_3_0" index="0" speed="8.33" length="4.82" shape="406.59,490.38 405.89,489.07 405.92,488.14 406.68,487.61 408.16,487.48"/>
    </edge>
    <edge id=":283018844_4" function="internal">
        <lane id=":283018844_4_0" index="0" speed="8.33" length="5.27" shape="407.34,483.18 406.55,484.44 406.42,485.58 406.96,486.59 408.16,487.48"/>
    </edge>
    <edge id=":283018844_5" function="internal">
        <lane id=":283018844_5_0" index="0" speed="8.33" length="10.72" shape="407.34,483.18 405.35,485.53 403.88,487.27 402.42,489.02 400.44,491.38"/>
    </edge>
    <edge id=":283018844_6" function="internal">
        <lane id=":283018844_6_0" index="0" speed="8.33" length="11.37" shape="407.34,483.18 405.03,485.27 402.57,486.27 399.97,486.15 397.23,484.93"/>
    </edge>
    <edge id=":283018844_7" function="internal">
        <lane id=":283018844_7_0" index="0" speed="8.33" length="4.82" shape="407.34,483.18 405.91,483.59 405.02,483.37 404.65,482.53 404.82,481.05"/>
    </edge>
    <edge id=":283018844_8" function="internal">
        <lane id=":283018844_8_0" index="0" speed="8.33" length="6.57" shape="398.99,482.14 400.56,482.83 402.05,482.87 403.47,482.28 404.82,481.05"/>
    </edge>
    <edge id=":283018844_9" function="internal">
        <lane id=":283018844_9_0" index="0" speed="8.33" length="10.61" shape="398.99,482.14 401.59,483.76 403.51,484.92 405.46,486.02 408.16,487.48"/>
    </edge>
    <edge id=":283018844_10" function="internal">
        <lane id=":283018844_10_0" index="0" speed="8.33" length="11.03" shape="398.99,482.14 401.34,484.14 402.36,486.34 402.06,488.76 400.44,491.38"/>
    </edge>
    <edge id=":283018844_11" function="internal">
        <lane id=":283018844_11_0" index="0" speed="8.33" length="4.82" shape="398.99,482.14 399.60,483.50 399.51,484.41 398.72,484.89 397.23,484.93"/>
    </edge>
    <edge id=":283018844_12" function="internal">
        <lane id=":283018844_12_0" index="0" speed="8.33" length="5.17" shape="397.91,489.26 398.67,488.03 398.81,486.90 398.33,485.87 397.23,484.93"/>
    </edge>
    <edge id=":283018844_13" function="internal">
        <lane id=":283018844_13_0" index="0" speed="8.33" length="10.73" shape="397.91,489.26 399.89,486.90 401.36,485.15 402.83,483.40 404.82,481.05"/>
    </edge>
    <edge id=":283018844_14" function="internal">
        <lane id=":283018844_14_0" index="0" speed="8.33" length="11.40" shape="397.91,489.26 400.13,487.26 402.58,486.30 405.26,486.37 408.16,487.48"/>
    </edge>
    <edge id=":283018844_15" function="internal">
        <lane id=":283018844_15_0" index="0" speed="8.33" length="4.82" shape="397.91,489.26 399.34,488.84 400.23,489.06 400.60,489.90 400.44,491.38"/>
    </edge>
    <edge id=":283018845_0" function="internal">
        <lane id=":283018845_0_0" index="0" speed="11.11" length="1.22" shape="360.28,461.66 359.26,461.00"/>
    </edge>
    <edge id=":283018845_1" function="internal">
        <lane id=":283018845_1_0" index="0" speed="11.11" length="12.08" shape="360.28,461.66 356.60,459.08 355.53,457.63 357.06,457.29 361.20,458.08"/>
    </edge>
    <edge id=":283018845_2" function="internal">
        <lane id=":283018845_2_0" index="0" speed="8.33" length="5.06" shape="360.28,461.66 359.24,460.50 359.03,459.55 359.67,458.82 361.14,458.30"/>
    </edge>
    <edge id=":283018845_3" function="internal">
        <lane id=":283018845_3_0" index="0" speed="11.11" length="10.08" shape="360.38,461.28 363.83,461.94 365.11,461.66 364.21,460.45 361.14,458.30"/>
    </edge>
    <edge id=":283018845_4" function="internal">
        <lane id=":283018845_4_0" index="0" speed="13.89" length="1.16" shape="360.38,461.28 359.26,461.00"/>
    </edge>
    <edge id=":283018845_5" function="internal">
        <lane id=":283018845_5_0" index="0" speed="13.89" length="2.41" shape="360.38,461.28 359.38,460.18 359.19,459.27"/>
    </edge>
    <edge id=":283018845_9" function="internal">
        <lane id=":283018845_9_0" index="0" speed="13.89" length="2.41" shape="359.19,459.27 359.79,458.58 361.20,458.08"/>
    </edge>
    <edge id=":283018845_6" function="internal">
        <lane id=":283018845_6_0" index="0" speed="13.89" length="1.18" shape="360.05,457.80 361.20,458.08"/>
    </edge>
    <edge id=":283018845_7" function="internal">
        <lane id=":283018845_7_0" index="0" speed="11.11" length="1.20" shape="360.05,457.80 361.14,458.30"/>
    </edge>
    <edge id=":283018845_8" function="internal">
        <lane id=":283018845_8_0" index="0" speed="13.89" length="2.41" shape="360.05,457.80 361.05,458.90 361.26,459.80"/>
    </edge>
    <edge id=":283018845_10" function="internal">
        <lane id=":283018845_10_0" index="0" speed="13.89" length="2.41" shape="361.26,459.80 360.66,460.50 359.26,461.00"/>
    </edge>
    <edge id=":283018932_0" function="internal">
        <lane id=":283018932_0_0" index="0" speed="11.11" length="7.46" shape="416.90,475.33 415.61,475.34 414.16,475.97 412.56,477.21 410.80,479.08"/>
    </edge>
    <edge id=":283018932_1" function="internal">
        <lane id=":283018932_1_0" index="0" speed="13.89" length="10.25" shape="416.90,475.33 413.98,474.60 411.93,474.09 409.87,473.58 406.96,472.86"/>
    </edge>
    <edge id=":283018932_2" function="internal">
        <lane id=":283018932_2_0" index="0" speed="13.89" length="2.41" shape="416.90,475.33 415.90,474.23 415.70,473.33"/>
    </edge>
    <edge id=":283018932_9" function="internal">
        <lane id=":283018932_9_0" index="0" speed="13.89" length="2.41" shape="415.70,473.33 416.29,472.63 417.69,472.13"/>
    </edge>
    <edge id=":283018932_3" function="internal">
        <lane id=":283018932_3_0" index="0" speed="13.89" length="10.25" shape="407.75,469.66 410.67,470.38 412.72,470.89 414.78,471.40 417.69,472.13"/>
    </edge>
    <edge id=":283018932_4" function="internal">
        <lane id=":283018932_4_0" index="0" speed="11.11" length="7.76" shape="407.75,469.66 411.35,471.09 413.06,473.14 412.98,474.35"/>
    </edge>
    <edge id=":283018932_10" function="internal">
        <lane id=":283018932_10_0" index="0" speed="11.11" length="5.33" shape="412.98,474.35 412.88,475.80 410.80,479.08"/>
    </edge>
    <edge id=":283018932_5" function="internal">
        <lane id=":283018932_5_0" index="0" speed="13.89" length="2.41" shape="407.75,469.66 408.75,470.75 408.95,471.65"/>
    </edge>
    <edge id=":283018932_11" function="internal">
        <lane id=":283018932_11_0" index="0" speed="13.89" length="2.41" shape="408.95,471.65 408.36,472.36 406.96,472.86"/>
    </edge>
    <edge id=":283018932_6" function="internal">
        <lane id=":283018932_6_0" index="0" speed="11.11" length="5.69" shape="408.28,476.95 409.18,475.53 409.26,474.37 408.52,473.48 406.96,472.86"/>
    </edge>
    <edge id=":283018932_7" function="internal">
        <lane id=":283018932_7_0" index="0" speed="11.11" length="11.11" shape="408.28,476.95 410.74,474.43 413.13,472.78 415.45,472.02 417.69,472.13"/>
    </edge>
    <edge id=":283018932_8" function="internal">
        <lane id=":283018932_8_0" index="0" speed="8.33" length="4.82" shape="408.28,476.95 409.71,476.54 410.60,476.75 410.97,477.60 410.80,479.08"/>
    </edge>
    <edge id=":283018933_0" function="internal">
        <lane id=":283018933_0_0" index="0" speed="11.11" length="5.11" shape="541.14,512.11 539.81,511.82 538.69,512.05 537.77,512.78 537.05,514.02"/>
    </edge>
    <edge id=":283018933_1" function="internal">
        <lane id=":283018933_1_0" index="0" speed="13.89" length="9.50" shape="541.14,512.11 532.25,508.74"/>
    </edge>
    <edge id=":283018933_2" function="internal">
        <lane id=":283018933_2_0" index="0" speed="13.89" length="2.41" shape="541.14,512.11 540.27,510.90 540.18,509.98"/>
    </edge>
    <edge id=":283018933_9" function="internal">
        <lane id=":283018933_9_0" index="0" speed="13.89" length="2.41" shape="540.18,509.98 540.86,509.36 542.31,509.02"/>
    </edge>
    <edge id=":283018933_3" function="internal">
        <lane id=":283018933_3_0" index="0" speed="13.89" length="9.50" shape="533.42,505.66 542.31,509.02"/>
    </edge>
    <edge id=":283018933_4" function="internal">
        <lane id=":283018933_4_0" index="0" speed="11.11" length="7.15" shape="533.42,505.66 535.94,507.05 537.39,508.91 537.69,510.80"/>
    </edge>
    <edge id=":283018933_10" function="internal">
        <lane id=":283018933_10_0" index="0" speed="11.11" length="3.31" shape="537.69,510.80 537.75,511.23 537.05,514.02"/>
    </edge>
    <edge id=":283018933_5" function="internal">
        <lane id=":283018933_5_0" index="0" speed="13.89" length="2.41" shape="533.42,505.66 534.29,506.87 534.38,507.78"/>
    </edge>
    <edge id=":283018933_11" function="internal">
        <lane id=":283018933_11_0" index="0" speed="13.89" length="2.41" shape="534.38,507.78 533.70,508.41 532.25,508.74"/>
    </edge>
    <edge id=":283018933_6" function="internal">
        <lane id=":283018933_6_0" index="0" speed="11.11" length="5.03" shape="534.00,512.77 534.34,511.42 534.16,510.31 533.46,509.41 532.25,508.74"/>
    </edge>
    <edge id=":283018933_7" function="internal">
        <lane id=":283018933_7_0" index="0" speed="11.11" length="10.33" shape="534.00,512.77 535.44,510.30 537.30,508.85 539.59,508.42 542.31,509.02"/>
    </edge>
    <edge id=":283018933_8" function="internal">
        <lane id=":283018933_8_0" index="0" speed="8.33" length="4.82" shape="534.00,512.77 535.23,511.93 536.15,511.87 536.76,512.56 537.05,514.02"/>
    </edge>
    <edge id=":283719736_0" function="internal">
        <lane id=":283719736_0_0" index="0" speed="11.11" length="12.68" shape="1055.54,525.09 1054.04,524.78 1051.87,525.79 1049.04,528.14 1045.55,531.82"/>
    </edge>
    <edge id=":283719736_1" function="internal">
        <lane id=":283719736_1_0" index="0" speed="11.11" length="15.02" shape="1055.54,525.09 1053.55,524.27 1050.45,524.21 1046.25,524.92 1040.95,526.39"/>
    </edge>
    <edge id=":283719736_2" function="internal">
        <lane id=":283719736_2_0" index="0" speed="13.89" length="12.10" shape="1055.54,525.09 1053.01,522.98 1050.90,521.21 1048.79,519.45 1046.26,517.34"/>
    </edge>
    <edge id=":283719736_3" function="internal">
        <lane id=":283719736_3_0" index="0" speed="13.89" length="2.41" shape="1055.54,525.09 1055.12,523.67 1055.33,522.77"/>
    </edge>
    <edge id=":283719736_16" function="internal">
        <lane id=":283719736_16_0" index="0" speed="13.89" length="2.41" shape="1055.33,522.77 1056.18,522.40 1057.66,522.56"/>
    </edge>
    <edge id=":283719736_4" function="internal">
        <lane id=":283719736_4_0" index="0" speed="13.89" length="12.10" shape="1048.37,514.80 1050.90,516.92 1053.02,518.68 1055.13,520.45 1057.66,522.56"/>
    </edge>
    <edge id=":283719736_5" function="internal">
        <lane id=":283719736_5_0" index="0" speed="11.11" length="7.42" shape="1048.37,514.80 1050.82,518.06 1051.12,521.39"/>
    </edge>
    <edge id=":283719736_17" function="internal">
        <lane id=":283719736_17_0" index="0" speed="11.11" length="12.02" shape="1051.12,521.39 1051.17,521.98 1049.41,526.57 1045.55,531.82"/>
    </edge>
    <edge id=":283719736_6" function="internal">
        <lane id=":283719736_6_0" index="0" speed="11.11" length="7.01" shape="1048.37,514.80 1050.91,518.04 1050.54,520.91"/>
    </edge>
    <edge id=":283719736_18" function="internal">
        <lane id=":283719736_18_0" index="0" speed="11.11" length="11.22" shape="1050.54,520.91 1050.52,521.05 1047.20,523.83 1040.95,526.39"/>
    </edge>
    <edge id=":283719736_7" function="internal">
        <lane id=":283719736_7_0" index="0" speed="13.89" length="2.41" shape="1048.37,514.80 1048.79,516.23 1048.58,517.13"/>
    </edge>
    <edge id=":283719736_19" function="internal">
        <lane id=":283719736_19_0" index="0" speed="13.89" length="2.41" shape="1048.58,517.13 1047.74,517.50 1046.26,517.34"/>
    </edge>
    <edge id=":283719736_8" function="internal">
        <lane id=":283719736_8_0" index="0" speed="11.11" length="10.46" shape="1039.95,523.24 1043.98,521.72 1046.38,520.23 1047.14,518.77 1046.26,517.34"/>
    </edge>
    <edge id=":283719736_9" function="internal">
        <lane id=":283719736_9_0" index="0" speed="11.11" length="18.27" shape="1039.95,523.24 1046.09,521.60 1051.09,520.94 1054.95,521.26 1057.66,522.56"/>
    </edge>
    <edge id=":283719736_10" function="internal">
        <lane id=":283719736_10_0" index="0" speed="8.33" length="21.62" shape="1039.95,523.24 1047.13,521.61 1050.46,522.50 1049.93,525.90 1045.55,531.82"/>
    </edge>
    <edge id=":283719736_11" function="internal">
        <lane id=":283719736_11_0" index="0" speed="8.33" length="4.82" shape="1039.95,523.24 1041.38,523.65 1042.02,524.31 1041.88,525.23 1040.95,526.39"/>
    </edge>
    <edge id=":283719736_12" function="internal">
        <lane id=":283719736_12_0" index="0" speed="8.33" length="8.20" shape="1043.07,529.64 1044.73,527.40 1044.93,526.11 1043.67,525.77 1040.95,526.39"/>
    </edge>
    <edge id=":283719736_13" function="internal">
        <lane id=":283719736_13_0" index="0" speed="11.11" length="14.11" shape="1043.07,529.64 1046.12,525.64 1047.66,522.25 1047.71,519.48 1046.26,517.34"/>
    </edge>
    <edge id=":283719736_14" function="internal">
        <lane id=":283719736_14_0" index="0" speed="11.11" length="17.65" shape="1043.07,529.64 1047.65,525.03 1051.60,522.32 1054.94,521.49 1057.66,522.56"/>
    </edge>
    <edge id=":283719736_15" function="internal">
        <lane id=":283719736_15_0" index="0" speed="8.33" length="4.82" shape="1043.07,529.64 1044.51,529.26 1045.40,529.49 1045.75,530.35 1045.55,531.82"/>
    </edge>
    <edge id=":283720461_0" function="internal">
        <lane id=":283720461_0_0" index="0" speed="11.11" length="5.24" shape="1023.98,498.72 1022.82,498.03 1021.67,497.89 1020.51,498.30 1019.36,499.26"/>
    </edge>
    <edge id=":283720461_1" function="internal">
        <lane id=":283720461_1_0" index="0" speed="13.89" length="9.51" shape="1023.98,498.72 1016.68,492.62"/>
    </edge>
    <edge id=":283720461_2" function="internal">
        <lane id=":283720461_2_0" index="0" speed="13.89" length="2.41" shape="1023.98,498.72 1023.56,497.29 1023.77,496.39"/>
    </edge>
    <edge id=":283720461_9" function="internal">
        <lane id=":283720461_9_0" index="0" speed="13.89" length="2.41" shape="1023.77,496.39 1024.62,496.03 1026.10,496.19"/>
    </edge>
    <edge id=":283720461_3" function="internal">
        <lane id=":283720461_3_0" index="0" speed="13.89" length="9.51" shape="1018.80,490.09 1026.10,496.19"/>
    </edge>
    <edge id=":283720461_4" function="internal">
        <lane id=":283720461_4_0" index="0" speed="11.11" length="7.16" shape="1018.80,490.09 1020.76,492.27 1021.50,494.52 1021.14,496.34"/>
    </edge>
    <edge id=":283720461_10" function="internal">
        <lane id=":283720461_10_0" index="0" speed="11.11" length="3.45" shape="1021.14,496.34 1021.04,496.85 1019.36,499.26"/>
    </edge>
    <edge id=":283720461_5" function="internal">
        <lane id=":283720461_5_0" index="0" speed="13.89" length="2.41" shape="1018.80,490.09 1019.22,491.52 1019.01,492.41"/>
    </edge>
    <edge id=":283720461_11" function="internal">
        <lane id=":283720461_11_0" index="0" speed="13.89" length="2.41" shape="1019.01,492.41 1018.16,492.78 1016.68,492.62"/>
    </edge>
    <edge id=":283720461_6" function="internal">
        <lane id=":283720461_6_0" index="0" speed="11.11" length="5.07" shape="1016.95,497.00 1017.75,495.85 1017.97,494.74 1017.62,493.66 1016.68,492.62"/>
    </edge>
    <edge id=":283720461_7" function="internal">
        <lane id=":283720461_7_0" index="0" speed="11.11" length="10.34" shape="1016.95,497.00 1019.19,495.17 1021.46,494.43 1023.76,494.76 1026.10,496.19"/>
    </edge>
    <edge id=":283720461_8" function="internal">
        <lane id=":283720461_8_0" index="0" speed="8.33" length="4.82" shape="1016.95,497.00 1018.40,496.66 1019.28,496.92 1019.60,497.79 1019.36,499.26"/>
    </edge>
    <edge id=":283721344_0" function="internal">
        <lane id=":283721344_0_0" index="0" speed="8.33" length="6.33" shape="1019.89,536.77 1019.04,535.38 1017.89,534.53 1016.43,534.24 1014.67,534.49"/>
    </edge>
    <edge id=":283721344_1" function="internal">
        <lane id=":283721344_1_0" index="0" speed="8.33" length="10.38" shape="1019.89,536.77 1018.71,533.98 1017.84,532.00 1016.92,530.04 1015.59,527.32"/>
    </edge>
    <edge id=":283721344_2" function="internal">
        <lane id=":283721344_2_0" index="0" speed="8.33" length="10.80" shape="1019.89,536.77 1019.14,533.87 1019.53,531.50 1021.08,529.66 1023.78,528.36"/>
    </edge>
    <edge id=":283721344_3" function="internal">
        <lane id=":283721344_3_0" index="0" speed="8.33" length="4.82" shape="1019.89,536.77 1020.17,535.31 1020.77,534.61 1021.69,534.67 1022.93,535.49"/>
    </edge>
    <edge id=":283721344_4" function="internal">
        <lane id=":283721344_4_0" index="0" speed="8.33" length="5.11" shape="1024.77,531.51 1023.50,532.12 1022.76,532.99 1022.58,534.11 1022.93,535.49"/>
    </edge>
    <edge id=":283721344_5" function="internal">
        <lane id=":283721344_5_0" index="0" speed="8.33" length="10.54" shape="1024.77,531.51 1021.86,532.42 1019.74,533.07 1017.61,533.68 1014.67,534.49"/>
    </edge>
    <edge id=":283721344_6" function="internal">
        <lane id=":283721344_6_0" index="0" speed="8.33" length="11.17" shape="1024.77,531.51 1021.88,531.98 1019.39,531.44 1017.29,529.88 1015.59,527.32"/>
    </edge>
    <edge id=":283721344_7" function="internal">