<?xml version="1.0" encoding="UTF-8"?>

<!-- generated on 13.05.2019 09:02:44 by Eclipse SUMO netedit Version v1_2_0+0323-a3c4a77541
<configuration xmlns:xsi="http://www.w3.org/2001/XMLSchema-instance" xsi:noNamespaceSchemaLocation="http://sumo.dlr.de/xsd/netconvertConfiguration.xsd">

    <input>
        <sumo-net-file value="C:/Users/SUMO-Test/.texttest/tmp/netedit.gui.12May112745.2296/netedit.gui/shapeElements/poly/load/relativepath\input_net.net.xml"/>
    </input>

    <output>
        <output-file value="C:/Users/SUMO-Test/.texttest/tmp/netedit.gui.12May112745.2296/netedit.gui/shapeElements/poly/load/relativepath\net.net.xml"/>
    </output>

    <processing>
        <geometry.max-grade.fix value="false"/>
        <offset.disable-normalization value="true"/>
        <lefthand value="false"/>
    </processing>

    <junctions>
        <no-turnarounds value="true"/>
        <junctions.corner-detail value="5"/>
        <junctions.limit-turn-speed value="5.5"/>
        <rectangular-lane-cut value="false"/>
    </junctions>

    <pedestrian>
        <walkingareas value="false"/>
    </pedestrian>

    <netedit>
        <additional-files value="C:/Users/SUMO-Test/.texttest/tmp/netedit.gui.12May112745.2296/netedit.gui/shapeElements/poly/load/relativepath\additionals.xml"/>
        <additionals-output value="C:/Users/SUMO-Test/.texttest/tmp/netedit.gui.12May112745.2296/netedit.gui/shapeElements/poly/load/relativepath\additionals.xml"/>
        <route-files value="C:/Users/SUMO-Test/.texttest/tmp/netedit.gui.12May112745.2296/netedit.gui/shapeElements/poly/load/relativepath\routes.xml"/>
        <demandelements-output value="C:/Users/SUMO-Test/.texttest/tmp/netedit.gui.12May112745.2296/netedit.gui/shapeElements/poly/load/relativepath\routes.xml"/>
    </netedit>

    <visualisation>
        <gui-settings-file value="C:/Users/SUMO-Test/.texttest/tmp/netedit.gui.12May112745.2296/netedit.gui/shapeElements/poly/load/relativepath\gui-settings.xml"/>
        <window-size value="700,500"/>
        <window-pos value="50,50"/>
        <gui-testing value="true"/>
        <gui-testing-debug value="true"/>
        <gui-testing-debug-gl value="true"/>
    </visualisation>

    <report>
        <no-warnings value="true"/>
        <error-log value="C:/Users/SUMO-Test/.texttest/tmp/netedit.gui.12May112745.2296/netedit.gui/shapeElements/poly/load/relativepath\log.txt"/>
    </report>

</configuration>
-->

<additional xmlns:xsi="http://www.w3.org/2001/XMLSchema-instance" xsi:noNamespaceSchemaLocation="http://sumo.dlr.de/xsd/additional_file.xsd">
    <poly id="poly_0" color="green" fill="1" layer="0.00" shape="60.000000,-40.000000 60.000000,-50.000000 50.000000,-50.000000 50.000000,-40.000000 60.000000,-40.000000" angle="-30.00" imgFile="C:/Users/SUMO-Test/.texttest/tmp/netedit.gui.12May112745.2296/netedit.gui/shapeElements/poly/load/relativepath\berlin_icon.ico"/>
    <poly id="poly_1" color="green" fill="1" layer="0.00" shape="60.000000,-40.000000 60.000000,-50.000000 50.000000,-50.000000 50.000000,-40.000000 60.000000,-40.000000" angle="-30.00" imgFile="C:/Users/SUMO-Test/.texttest/tmp/netedit.gui.12May112745.2296/netedit.gui/shapeElements/poly/load/relativepath\berlin_icon.ico"/>
    <poly id="poly_2" color="green" fill="1" layer="0.00" shape="60.000000,-40.000000 60.000000,-50.000000 50.000000,-50.000000 50.000000,-40.000000 60.000000,-40.000000" angle="-30.00" imgFile="C:/Users/SUMO-Test/.texttest/tmp/netedit.gui.12May112745.2296/netedit.gui/shapeElements/poly/load/relativepath\berlin_icon.ico"/>
    <poly id="poly_3" color="green" fill="1" layer="0.00" shape="60.000000,-40.000000 60.000000,-50.000000 50.000000,-50.000000 50.000000,-40.000000 60.000000,-40.000000" angle="-30.00" imgFile="berlin_icon.ico"/>
</additional>
