<?xml version="1.0" encoding="UTF-8"?>

<!-- generated on 2023-01-26 15:52:57 by Eclipse SUMO netconvert Version v1_15_0+1990-019f60057a9
<configuration xmlns:xsi="http://www.w3.org/2001/XMLSchema-instance" xsi:noNamespaceSchemaLocation="http://sumo.dlr.de/xsd/netconvertConfiguration.xsd">

    <input>
        <sumo-net-file value="D:/SUMO/tests/netedit\bugs\processing\ticket3994/net.net.xml"/>
    </input>

    <output>
        <plain-output-prefix value="D:/SUMO/tests/netedit\bugs\processing\ticket3994/net"/>
    </output>

    <processing>
        <geometry.min-radius.fix.railways value="false"/>
        <geometry.max-grade.fix value="false"/>
        <offset.disable-normalization value="true"/>
        <lefthand value="0"/>
    </processing>

    <junctions>
        <no-turnarounds value="true"/>
        <junctions.corner-detail value="0"/>
        <junctions.limit-turn-speed value="-1.00"/>
        <rectangular-lane-cut value="0"/>
    </junctions>

    <pedestrian>
        <walkingareas value="0"/>
    </pedestrian>

</configuration>
-->

<nodes version="1.16" xmlns:xsi="http://www.w3.org/2001/XMLSchema-instance" xsi:noNamespaceSchemaLocation="http://sumo.dlr.de/xsd/nodes_file.xsd">
    <location netOffset="0.00,0.00" convBoundary="-5.93,-3.35,118.85,58.44" origBoundary="-10000000000.00,-10000000000.00,10000000000.00,10000000000.00" projParameter="!"/>

    <node id="A" x="26.54" y="27.00" type="priority"/>
    <node id="B" x="59.24" y="27.46" type="priority"/>
    <node id="C" x="72.42" y="28.57" type="priority"/>
    <node id="gneJ10" x="-5.93" y="27.32" type="dead_end"/>
    <node id="gneJ11" x="26.62" y="58.44" type="dead_end"/>
    <node id="gneJ12" x="74.03" y="-2.46" type="dead_end"/>
    <node id="gneJ13" x="71.82" y="57.98" type="dead_end"/>
    <node id="gneJ14" x="58.37" y="57.55" type="dead_end"/>
    <node id="gneJ15" x="59.81" y="-2.81" type="dead_end"/>
    <node id="gneJ8" x="118.85" y="28.24" type="dead_end"/>
    <node id="gneJ9" x="26.83" y="-3.35" type="dead_end"/>
</nodes>
