<?xml version="1.0" encoding="UTF-8"?>

<!-- generated on 26.08.2019 13:54:17 by Eclipse SUMO netedit Version v1_3_0+0086-d4fd00b226
<configuration xmlns:xsi="http://www.w3.org/2001/XMLSchema-instance" xsi:noNamespaceSchemaLocation="http://sumo.dlr.de/xsd/netconvertConfiguration.xsd">

    <input>
        <sumo-net-file value="C:/Users/SUMO-Test/.texttest/tmp/netedit.gui.26Aug135354.6148/netedit.gui/demandElements/stop/stopBusStop/inspect_selection/containerTrigger\input_net.net.xml"/>
    </input>

    <output>
        <output-file value="C:/Users/SUMO-Test/.texttest/tmp/netedit.gui.26Aug135354.6148/netedit.gui/demandElements/stop/stopBusStop/inspect_selection/containerTrigger\net.net.xml"/>
    </output>

    <processing>
        <geometry.max-grade.fix value="false"/>
        <offset.disable-normalization value="true"/>
        <opposites.guess.fix-lengths value="true"/>
        <lefthand value="false"/>
    </processing>

    <junctions>
        <no-turnarounds value="true"/>
        <junctions.corner-detail value="5"/>
        <junctions.limit-turn-speed value="5.5"/>
        <rectangular-lane-cut value="false"/>
    </junctions>

    <pedestrian>
        <walkingareas value="false"/>
    </pedestrian>

    <netedit>
        <additional-files value="C:/Users/SUMO-Test/.texttest/tmp/netedit.gui.26Aug135354.6148/netedit.gui/demandElements/stop/stopBusStop/inspect_selection/containerTrigger\additionals.xml"/>
        <additionals-output value="C:/Users/SUMO-Test/.texttest/tmp/netedit.gui.26Aug135354.6148/netedit.gui/demandElements/stop/stopBusStop/inspect_selection/containerTrigger\additionals.xml"/>
        <route-files value="C:/Users/SUMO-Test/.texttest/tmp/netedit.gui.26Aug135354.6148/netedit.gui/demandElements/stop/stopBusStop/inspect_selection/containerTrigger\routes.xml"/>
        <demandelements-output value="C:/Users/SUMO-Test/.texttest/tmp/netedit.gui.26Aug135354.6148/netedit.gui/demandElements/stop/stopBusStop/inspect_selection/containerTrigger\routes.xml"/>
    </netedit>

    <visualisation>
        <gui-settings-file value="C:/Users/SUMO-Test/.texttest/tmp/netedit.gui.26Aug135354.6148/netedit.gui/demandElements/stop/stopBusStop/inspect_selection/containerTrigger\gui-settings.xml"/>
        <window-size value="700,500"/>
        <window-pos value="50,50"/>
        <gui-testing value="true"/>
        <gui-testing-debug value="true"/>
        <gui-testing-debug-gl value="true"/>
    </visualisation>

    <report>
        <no-warnings value="true"/>
        <error-log value="C:/Users/SUMO-Test/.texttest/tmp/netedit.gui.26Aug135354.6148/netedit.gui/demandElements/stop/stopBusStop/inspect_selection/containerTrigger\log.txt"/>
    </report>

</configuration>
-->

<additional xmlns:xsi="http://www.w3.org/2001/XMLSchema-instance" xsi:noNamespaceSchemaLocation="http://sumo.dlr.de/xsd/additional_file.xsd">
    <busStop id="busStopA" lane="gneE0_0" startPos="20.00" endPos="30.00"/>
    <busStop id="busStopB" lane="gneE1_0" startPos="20" endPos="30"/>
</additional>
