<?xml version="1.0" encoding="UTF-8"?>

<!-- generated on Wed 29 Jan 2014 03:30:12 PM CET by Netedit Version dev-SVN-r15523
This data file and the accompanying materials
are made available under the terms of the Eclipse Public License v2.0
which accompanies this distribution, and is available at
http://www.eclipse.org/legal/epl-v20.html
SPDX-License-Identifier: EPL-2.0
<configuration xmlns:xsi="http://www.w3.org/2001/XMLSchema-instance" xsi:noNamespaceSchemaLocation="http://sumo.dlr.de/xsd/netedit.exeConfiguration.xsd">

    <input>
        <sumo-net-file value="net4a.net.xml"/>
    </input>

    <output>
        <output-file value="net4a.net.xml"/>
        <plain-output-prefix value="/scr1/erdm_ja/sip-svn-trunk/projects/colombo/prototype4/plain4a"/>
    </output>

    <processing>
        <no-turnarounds value="true"/>
        <offset.disable-normalization value="true"/>
    </processing>

</configuration>
-->

<edges version="0.13" xmlns:xsi="http://www.w3.org/2001/XMLSchema-instance" xsi:noNamespaceSchemaLocation="http://sumo.dlr.de/xsd/edges_file.xsd">
    <edge id="CE" from="C" to="E" priority="2" numLanes="2" speed="13.89"/>
    <edge id="CN" from="C" to="N" priority="2" numLanes="2" speed="13.89" allow="passenger bicycle"/>
    <edge id="CS" from="C" to="S" priority="2" numLanes="2" speed="13.89" allow="bicycle"/>
    <edge id="CW" from="C" to="W" priority="2" numLanes="2" speed="13.89" allow="rail"/>
    <edge id="EC" from="E" to="C" priority="2" numLanes="2" speed="13.89" allow="rail"/>
    <edge id="NC" from="N" to="C" priority="2" numLanes="2" speed="13.89" allow="passenger"/>
    <edge id="SC" from="S" to="C" priority="2" numLanes="2" speed="13.89" allow="passenger bicycle"/>
    <edge id="WC" from="W" to="C" priority="2" numLanes="2" speed="13.89" disallow="rail"/>
</edges>
