<?xml version="1.0" encoding="UTF-8"?>

<!-- generated on 2022-12-09 15:10:21 by Eclipse SUMO duarouter Version v1_15_0+0922-9b637f3
This data file and the accompanying materials
are made available under the terms of the Eclipse Public License v2.0
which accompanies this distribution, and is available at
http://www.eclipse.org/legal/epl-v20.html
This file may also be made available under the following Secondary
Licenses when the conditions for such availability set forth in the Eclipse
Public License 2.0 are satisfied: GNU General Public License, version 2
or later which is available at
https://www.gnu.org/licenses/old-licenses/gpl-2.0-standalone.html
SPDX-License-Identifier: EPL-2.0 OR GPL-2.0-or-later
<configuration xmlns:xsi="http://www.w3.org/2001/XMLSchema-instance" xsi:noNamespaceSchemaLocation="http://sumo.dlr.de/xsd/duarouterConfiguration.xsd">

    <input>
        <net-file value="input_net2.net.xml"/>
        <additional-files value="input_additional.add.xml"/>
        <route-files value="input_trips.trips.xml"/>
    </input>

    <output>
        <output-file value="routes.rou.xml"/>
        <write-license value="true"/>
    </output>

    <report>
        <xml-validation value="never"/>
        <no-step-log value="true"/>
    </report>

</configuration>
-->

<routes xmlns:xsi="http://www.w3.org/2001/XMLSchema-instance" xsi:noNamespaceSchemaLocation="http://sumo.dlr.de/xsd/routes_file.xsd">
    <vehicle id="v0" depart="0.00">
        <route edges="E0 E2 E3 E4 E5"/>
        <stop busStop="bs_0" duration="5.00" jump="6.00"/>
        <stop busStop="bs_1" duration="5.00" jump="10.00"/>
        <stop busStop="bs_2" duration="5.00"/>
        <stop busStop="bs_3" duration="5.00"/>
    </vehicle>
</routes>
