<?xml version="1.0" encoding="UTF-8"?>

<!-- generated on Thu Apr 19 14:42:57 2018 by Eclipse SUMO netconvert Version d7544a1
This data file and the accompanying materials
are made available under the terms of the Eclipse Public License v2.0
which accompanies this distribution, and is available at
http://www.eclipse.org/legal/epl-v20.html
SPDX-License-Identifier: EPL-2.0
<configuration xmlns:xsi="http://www.w3.org/2001/XMLSchema-instance" xsi:noNamespaceSchemaLocation="http://sumo.dlr.de/xsd/netconvertConfiguration.xsd">

    <input>
        <node-files value="input_plain.nod.xml"/>
        <edge-files value="input_plain.edg.xml"/>
    </input>

    <output>
        <write-license value="true"/>
        <output-file value="net.net.xml"/>
        <output.street-names value="true"/>
    </output>

    <processing>
        <ignore-errors.edge-type value="true"/>
        <roundabouts.guess value="true"/>
        <crossings.guess value="true"/>
    </processing>

    <report>
        <xml-validation value="never"/>
    </report>

</configuration>
-->

<net version="0.27" walkingareas="true" xmlns:xsi="http://www.w3.org/2001/XMLSchema-instance" xsi:noNamespaceSchemaLocation="http://sumo.dlr.de/xsd/net_file.xsd">

    <location netOffset="-395408.93,-5809112.45" convBoundary="0.00,0.00,5580.65,3531.77" origBoundary="13.460807,52.423029,13.543874,52.453954" projParameter="+proj=utm +zone=33 +ellps=WGS84 +datum=WGS84 +units=m +no_defs"/>

    <edge id=":1292264836_0" function="internal">
        <lane id=":1292264836_0_0" index="0" allow="delivery pedestrian" speed="5.56" length="9.26" shape="4491.28,501.97 4482.08,503.04"/>
    </edge>
    <edge id=":1292264836_1" function="internal">
        <lane id=":1292264836_1_0" index="0" allow="delivery pedestrian" speed="5.56" length="10.09" shape="4491.28,501.97 4488.53,501.86 4486.46,500.89 4485.06,499.08 4484.35,496.41"/>
    </edge>
    <edge id=":1292264836_2" function="internal">
        <lane id=":1292264836_2_0" index="0" allow="delivery pedestrian" speed="5.56" length="4.67" shape="4491.28,501.97 4490.00,501.30 4489.52,500.54 4489.84,499.71 4490.95,498.79"/>
    </edge>
    <edge id=":1292264836_3" function="internal">
        <lane id=":1292264836_3_0" index="0" allow="delivery pedestrian" speed="5.56" length="5.00" shape="4487.53,496.02 4487.88,497.35 4488.57,498.25 4489.59,498.73 4490.95,498.79"/>
    </edge>
    <edge id=":1292264836_4" function="internal">
        <lane id=":1292264836_4_0" index="0" allow="delivery pedestrian" speed="5.56" length="10.12" shape="4487.53,496.02 4487.47,498.79 4486.54,500.88 4484.74,502.30 4482.08,503.04"/>
    </edge>
    <edge id=":1292264836_5" function="internal">
        <lane id=":1292264836_5_0" index="0" allow="delivery pedestrian" speed="5.56" length="4.67" shape="4487.53,496.02 4486.88,497.31 4486.13,497.80 4485.29,497.50 4484.35,496.41"/>
    </edge>
    <edge id=":1292264836_6" function="internal">
        <lane id=":1292264836_6_0" index="0" allow="delivery pedestrian" speed="5.56" length="4.99" shape="4481.66,499.87 4482.98,499.50 4483.86,498.80 4484.32,497.77 4484.35,496.41"/>
    </edge>
    <edge id=":1292264836_7" function="internal">
        <lane id=":1292264836_7_0" index="0" allow="delivery pedestrian" speed="5.56" length="9.35" shape="4481.66,499.87 4490.95,498.79"/>
    </edge>
    <edge id=":1292264836_8" function="internal">
        <lane id=":1292264836_8_0" index="0" allow="delivery pedestrian" speed="5.56" length="4.67" shape="4481.66,499.87 4482.95,500.51 4483.46,501.25 4483.16,502.09 4482.08,503.04"/>
    </edge>
    <edge id=":1292264836_w0" function="walkingarea">
        <lane id=":1292264836_w0_0" index="0" allow="pedestrian" speed="1.00" length="6.84" width="3.20" shape="4491.44,503.56 4491.11,500.38 4491.11,500.38 4490.79,497.20 4489.11,495.83 4485.94,496.21 4485.94,496.21 4482.76,496.60 4481.45,498.28 4481.87,501.46 4481.87,501.46 4482.28,504.63"/>
    </edge>
    <edge id=":1292264851_0" function="internal">
        <lane id=":1292264851_0_0" index="0" allow="delivery pedestrian" speed="5.56" length="4.67" shape="4528.09,398.02 4529.39,398.66 4529.89,399.40 4529.59,400.25 4528.51,401.20"/>
    </edge>
    <edge id=":1302814166_0" function="internal">
        <lane id=":1302814166_0_0" index="0" allow="delivery pedestrian" speed="5.56" length="9.13" shape="4497.29,571.15 4495.42,569.19 4494.12,567.85 4492.70,566.65 4490.49,565.11"/>
    </edge>
    <edge id=":1302814166_1" function="internal">
        <lane id=":1302814166_1_0" index="0" allow="delivery pedestrian" speed="5.56" length="12.00" shape="4497.29,571.15 4495.83,568.90 4495.57,566.37 4496.53,563.54 4498.69,560.42"/>
    </edge>
    <edge id=":1302814166_2" function="internal">
        <lane id=":1302814166_2_0" index="0" allow="delivery pedestrian" speed="5.56" length="4.67" shape="4497.29,571.15 4497.02,569.73 4497.31,568.88 4498.16,568.61 4499.57,568.90"/>
    </edge>
    <edge id=":1302814166_3" function="internal">
        <lane id=":1302814166_3_0" index="0" allow="delivery pedestrian" speed="5.56" length="5.65" shape="4499.98,563.85 4499.02,565.27 4498.63,566.58 4498.82,567.79 4499.57,568.90"/>
    </edge>
    <edge id=":1302814166_4" function="internal">
        <lane id=":1302814166_4_0" index="0" allow="delivery pedestrian" speed="5.56" length="10.65" shape="4499.98,563.85 4497.86,565.73 4495.57,566.57 4493.11,566.36 4490.49,565.11"/>
    </edge>
    <edge id=":1302814166_5" function="internal">
        <lane id=":1302814166_5_0" index="0" allow="delivery pedestrian" speed="5.56" length="5.35" shape="4499.98,563.85 4498.37,563.48 4497.62,562.78 4497.73,561.76 4498.69,560.42"/>
    </edge>
    <edge id=":1302814166_6" function="internal">
        <lane id=":1302814166_6_0" index="0" allow="delivery pedestrian" speed="5.56" length="7.46" shape="4492.24,562.44 4493.79,563.06 4495.38,562.93 4497.01,562.05 4498.69,560.42"/>
    </edge>
    <edge id=":1302814166_7" function="internal">
        <lane id=":1302814166_7_0" index="0" allow="delivery pedestrian" speed="5.56" length="9.81" shape="4492.24,562.44 4494.63,564.09 4496.15,565.37 4497.55,566.80 4499.57,568.90"/>
    </edge>
    <edge id=":1302814166_8" function="internal">
        <lane id=":1302814166_8_0" index="0" allow="delivery pedestrian" speed="5.56" length="4.67" shape="4492.24,562.44 4492.81,563.76 4492.70,564.65 4491.93,565.10 4490.49,565.11"/>
    </edge>
    <edge id=":1302814166_w0" function="walkingarea">
        <lane id=":1302814166_w0_0" index="0" allow="pedestrian" speed="1.00" length="7.64" width="3.20" shape="4496.15,572.27 4498.43,570.02 4498.43,570.02 4500.71,567.78 4501.20,564.88 4498.76,562.82 4499.91,561.46 4497.47,559.39 4493.12,561.10 4491.36,563.77 4491.36,563.77 4489.61,566.45"/>
    </edge>
    <edge id=":1311774301_0" function="internal">
        <lane id=":1311774301_0_0" index="0" disallow="pedestrian" speed="13.89" length="5.95" shape="4574.52,392.98 4573.82,387.07"/>
    </edge>
    <edge id=":1311774301_1" function="internal">
        <lane id=":1311774301_1_0" index="0" disallow="pedestrian" speed="13.89" length="2.34" shape="4574.52,392.98 4575.19,391.71 4575.95,391.23"/>
    </edge>
    <edge id=":1311774301_4" function="internal">
        <lane id=":1311774301_4_0" index="0" speed="13.89" length="2.34" shape="4575.95,391.23 4576.79,391.55 4577.70,392.66"/>
    </edge>
    <edge id=":1311774301_2" function="internal">
        <lane id=":1311774301_2_0" index="0" disallow="pedestrian" speed="13.89" length="6.07" shape="4576.99,386.64 4577.70,392.66"/>
    </edge>
    <edge id=":1311774301_3" function="internal">
        <lane id=":1311774301_3_0" index="0" disallow="pedestrian" speed="13.89" length="2.34" shape="4576.99,386.64 4576.36,387.93 4575.62,388.44"/>
    </edge>
    <edge id=":1311774301_5" function="internal">
        <lane id=":1311774301_5_0" index="0" speed="13.89" length="2.34" shape="4575.62,388.44 4574.78,388.15 4573.82,387.07"/>
    </edge>
    <edge id=":1311774301_c0" function="crossing" crossingEdges="-172014854#1 172014854#1">
        <lane id=":1311774301_c0_0" index="0" allow="pedestrian" speed="1.00" length="6.40" width="4.00" shape="4579.09,390.51 4572.73,391.15"/>
    </edge>
    <edge id=":1311774301_w0" function="walkingarea">
        <lane id=":1311774301_w0_0" index="0" allow="pedestrian" speed="1.00" length="4.03" width="4.00" shape="4572.24,387.29 4570.25,387.56 4570.93,393.34 4572.92,393.14 4572.53,389.16"/>
    </edge>
    <edge id=":1311774301_w1" function="walkingarea">
        <lane id=":1311774301_w1_0" index="0" allow="pedestrian" speed="1.00" length="4.06" width="4.00" shape="4578.90,388.52 4579.29,392.50 4581.28,392.31 4582.63,390.67 4582.31,387.48 4580.56,386.15 4578.58,386.42"/>
    </edge>
    <edge id=":1370020144_0" function="internal">
        <lane id=":1370020144_0_0" index="0" allow="delivery pedestrian" speed="5.56" length="9.98" shape="4519.46,740.19 4517.10,738.84 4515.70,737.05 4515.28,734.82 4515.83,732.15"/>
    </edge>
    <edge id=":1370020144_1" function="internal">
        <lane id=":1370020144_1_0" index="0" allow="delivery pedestrian" speed="5.56" length="4.67" shape="4519.46,740.19 4518.64,739.01 4518.56,738.12 4519.23,737.52 4520.64,737.22"/>
    </edge>
    <edge id=":1370020144_2" function="internal">
        <lane id=":1370020144_2_0" index="0" allow="delivery pedestrian" speed="5.56" length="4.96" shape="4518.84,733.23 4518.57,734.55 4518.78,735.66 4519.47,736.55 4520.64,737.22"/>
    </edge>
    <edge id=":1370020144_3" function="internal">
        <lane id=":1370020144_3_0" index="0" allow="delivery pedestrian" speed="5.56" length="4.67" shape="4518.84,733.23 4517.68,734.09 4516.80,734.20 4516.18,733.55 4515.83,732.15"/>
    </edge>
    <edge id=":1370020144_w0" function="walkingarea">
        <lane id=":1370020144_w0_0" index="0" allow="pedestrian" speed="1.00" length="6.97" width="3.20" shape="4518.87,741.68 4520.05,738.71 4520.05,738.71 4521.24,735.74 4520.35,733.77 4517.33,732.69 4517.33,732.69 4514.32,731.61 4510.42,736.09 4510.83,739.26"/>
    </edge>
    <edge id=":1370020147_0" function="internal">
        <lane id=":1370020147_0_0" index="0" allow="delivery pedestrian" speed="5.56" length="4.67" shape="4523.94,709.46 4525.10,708.60 4525.99,708.50 4526.61,709.14 4526.95,710.54"/>
    </edge>
    <edge id=":1370020147_w0" function="walkingarea">
        <lane id=":1370020147_w0_0" index="0" allow="pedestrian" speed="1.00" length="3.18" width="3.20" shape="4527.82,707.82 4524.74,706.96 4522.43,708.92 4525.45,710.00 4525.45,710.00 4528.46,711.08"/>
    </edge>
    <edge id=":1370020156_0" function="internal">
        <lane id=":1370020156_0_0" index="0" disallow="pedestrian" speed="22.22" length="9.48" shape="4537.25,787.63 4528.37,784.30"/>
    </edge>
    <edge id=":1370020156_1" function="internal">
        <lane id=":1370020156_1_0" index="0" allow="delivery pedestrian" speed="13.89" length="4.63" shape="4537.25,787.63 4534.79,786.16 4533.88,784.65"/>
    </edge>
    <edge id=":1370020156_2" function="internal">
        <lane id=":1370020156_2_0" index="0" disallow="pedestrian" speed="22.22" length="2.34" shape="4537.25,787.63 4536.40,786.46 4536.30,785.58"/>
    </edge>
    <edge id=":1370020156_9" function="internal">
        <lane id=":1370020156_9_0" index="0" speed="13.89" length="7.33" shape="4533.88,784.65 4533.48,784.00 4533.31,781.13 4534.29,777.57"/>
    </edge>
    <edge id=":1370020156_10" function="internal">
        <lane id=":1370020156_10_0" index="0" speed="22.22" length="2.34" shape="4536.30,785.58 4536.96,784.96 4538.36,784.63"/>
    </edge>
    <edge id=":1370020156_3" function="internal">
        <lane id=":1370020156_3_0" index="0" disallow="pedestrian" speed="13.89" length="6.74" shape="4537.26,778.75 4536.62,780.91 4536.59,782.61 4537.17,783.85 4538.36,784.63"/>
    </edge>
    <edge id=":1370020156_4" function="internal">
        <lane id=":1370020156_4_0" index="0" disallow="pedestrian" speed="13.89" length="11.84" shape="4537.26,778.75 4535.55,782.01 4533.50,784.02 4531.11,784.78 4528.37,784.30"/>
    </edge>
    <edge id=":1370020156_5" function="internal">
        <lane id=":1370020156_5_0" index="0" allow="delivery pedestrian" speed="5.56" length="4.67" shape="4537.26,778.75 4536.08,779.57 4535.19,779.65 4534.59,778.98 4534.29,777.57"/>
    </edge>
    <edge id=":1370020156_6" function="internal">
        <lane id=":1370020156_6_0" index="0" allow="delivery pedestrian" speed="13.89" length="6.76" shape="4529.52,781.31 4530.89,781.48 4532.14,780.92 4533.27,779.62 4534.29,777.57"/>
    </edge>
    <edge id=":1370020156_7" function="internal">
        <lane id=":1370020156_7_0" index="0" disallow="pedestrian" speed="22.22" length="9.44" shape="4529.52,781.31 4538.36,784.63"/>
    </edge>
    <edge id=":1370020156_8" function="internal">
        <lane id=":1370020156_8_0" index="0" disallow="pedestrian" speed="22.22" length="2.34" shape="4529.52,781.31 4530.35,782.48 4530.44,783.37"/>
    </edge>
    <edge id=":1370020156_11" function="internal">
        <lane id=":1370020156_11_0" index="0" speed="22.22" length="2.34" shape="4530.44,783.37 4529.78,783.98 4528.37,784.30"/>
    </edge>
    <edge id=":1370020156_w0" function="walkingarea">
        <lane id=":1370020156_w0_0" index="0" allow="pedestrian" speed="1.00" length="9.51" width="2.00" shape="4527.80,785.79 4527.09,787.66 4536.00,791.01 4536.70,789.13"/>
    </edge>
    <edge id=":1370020156_w1" function="walkingarea">
        <lane id=":1370020156_w1_0" index="0" allow="pedestrian" speed="1.00" length="5.71" width="3.20" shape="4538.91,783.13 4539.60,781.25 4538.75,779.34 4535.77,778.16 4535.77,778.16 4532.80,776.98 4530.80,777.94 4530.09,779.81"/>
    </edge>
    <edge id=":1371616230_0" function="internal">
        <lane id=":1371616230_0_0" index="0" allow="delivery pedestrian" speed="5.56" length="4.98" shape="4555.08,503.56 4553.92,502.86 4552.80,502.69 4551.73,503.06 4550.72,503.96"/>
    </edge>
    <edge id=":1371616230_1" function="internal">
        <lane id=":1371616230_1_0" index="0" allow="delivery pedestrian" speed="5.56" length="10.06" shape="4555.08,503.56 4553.22,501.54 4552.43,499.39 4552.72,497.13 4554.08,494.75"/>
    </edge>
    <edge id=":1371616230_2" function="internal">
        <lane id=":1371616230_2_0" index="0" allow="delivery pedestrian" speed="5.56" length="4.67" shape="4555.08,503.56 4554.66,502.18 4554.86,501.31 4555.67,500.95 4557.11,501.09"/>
    </edge>
    <edge id=":1371616230_3" function="internal">
        <lane id=":1371616230_3_0" index="0" allow="delivery pedestrian" speed="5.56" length="4.99" shape="4556.60,496.72 4555.93,497.90 4555.79,499.02 4556.18,500.08 4557.11,501.09"/>
    </edge>
    <edge id=":1371616230_4" function="internal">
        <lane id=":1371616230_4_0" index="0" allow="delivery pedestrian" speed="5.56" length="9.33" shape="4556.60,496.72 4550.72,503.96"/>
    </edge>
    <edge id=":1371616230_5" function="internal">
        <lane id=":1371616230_5_0" index="0" allow="delivery pedestrian" speed="5.56" length="4.67" shape="4556.60,496.72 4555.23,497.17 4554.36,497.00 4553.97,496.19 4554.08,494.75"/>
    </edge>
    <edge id=":1371616230_6" function="internal">
        <lane id=":1371616230_6_0" index="0" allow="delivery pedestrian" speed="5.56" length="9.20" shape="4548.27,501.89 4554.08,494.75"/>
    </edge>
    <edge id=":1371616230_7" function="internal">
        <lane id=":1371616230_7_0" index="0" allow="delivery pedestrian" speed="5.56" length="10.08" shape="4548.27,501.89 4550.34,500.06 4552.49,499.32 4554.75,499.66 4557.11,501.09"/>
    </edge>
    <edge id=":1371616230_8" function="internal">
        <lane id=":1371616230_8_0" index="0" allow="delivery pedestrian" speed="5.56" length="4.67" shape="4548.27,501.89 4549.66,501.49 4550.53,501.71 4550.88,502.53 4550.72,503.96"/>
    </edge>
    <edge id=":1371616230_w0" function="walkingarea">
        <lane id=":1371616230_w0_0" index="0" allow="pedestrian" speed="1.00" length="6.82" width="3.20" shape="4554.07,504.80 4556.10,502.33 4556.10,502.33 4558.12,499.85 4557.87,497.70 4555.34,495.73 4555.34,495.73 4552.82,493.77 4547.05,500.86 4549.50,502.93 4549.50,502.93 4551.94,504.99"/>
    </edge>
    <edge id=":1371616238_0" function="internal">
        <lane id=":1371616238_0_0" index="0" allow="delivery pedestrian" speed="5.56" length="4.67" shape="4582.03,521.51 4582.46,522.89 4582.26,523.76 4581.44,524.13 4580.01,523.99"/>
    </edge>
    <edge id=":138562259_0" function="internal">
        <lane id=":138562259_0_0" index="0" disallow="pedestrian" speed="13.89" length="4.67" shape="2284.11,1008.25 2282.67,1008.25 2281.89,1007.81 2281.78,1006.92 2282.33,1005.59"/>
    </edge>
    <edge id=":138562259_w0" function="walkingarea">
        <lane id=":138562259_w0_0" index="0" allow="pedestrian" speed="1.00" length="9.40" width="3.00" shape="2281.44,1004.26 2279.77,1001.77 2286.67,1012.07 2285.00,1009.58"/>
    </edge>
    <edge id=":1392924660_0" function="internal">
        <lane id=":1392924660_0_0" index="0" disallow="pedestrian" speed="13.89" length="6.21" shape="4377.87,641.42 4371.88,639.77"/>
        <lane id=":1392924660_0_1" index="1" disallow="pedestrian" speed="13.89" length="6.21" shape="4378.71,638.33 4372.72,636.69"/>
    </edge>
    <edge id=":1392924660_w0" function="walkingarea">
        <lane id=":1392924660_w0_0" index="0" allow="pedestrian" speed="1.00" length="5.04" width="3.20" shape="4371.45,641.31 4370.65,644.21 4371.54,646.00 4374.51,647.19 4376.65,645.85 4377.45,642.96"/>
    </edge>
    <edge id=":1421174996_0" function="internal">
        <lane id=":1421174996_0_0" index="0" allow="delivery pedestrian" speed="5.56" length="6.20" shape="4586.55,940.72 4581.86,936.66"/>
    </edge>
    <edge id=":1421174996_1" function="internal">
        <lane id=":1421174996_1_0" index="0" allow="delivery pedestrian" speed="5.56" length="2.34" shape="4586.55,940.72 4586.17,939.33 4586.39,938.46"/>
    </edge>
    <edge id=":1421174996_4" function="internal">
        <lane id=":1421174996_4_0" index="0" speed="5.56" length="2.34" shape="4586.39,938.46 4587.21,938.12 4588.64,938.30"/>
    </edge>
    <edge id=":1421174996_2" function="internal">
        <lane id=":1421174996_2_0" index="0" allow="delivery pedestrian" speed="5.56" length="6.20" shape="4583.96,934.24 4588.64,938.30"/>
    </edge>
    <edge id=":1421174996_3" function="internal">
        <lane id=":1421174996_3_0" index="0" allow="delivery pedestrian" speed="5.56" length="2.34" shape="4583.96,934.24 4584.34,935.63 4584.12,936.49"/>
    </edge>
    <edge id=":1421174996_5" function="internal">
        <lane id=":1421174996_5_0" index="0" speed="5.56" length="2.34" shape="4584.12,936.49 4583.29,936.84 4581.86,936.66"/>
    </edge>
    <edge id=":1421174996_w0" function="walkingarea">
        <lane id=":1421174996_w0_0" index="0" allow="pedestrian" speed="1.00" length="5.56" width="3.20" shape="4585.50,941.93 4587.60,939.51 4587.60,939.51 4589.69,937.09 4585.01,933.03 4582.91,935.45 4582.91,935.45 4580.81,937.87 4580.95,939.97 4583.35,942.09"/>
    </edge>
    <edge id=":1421174997_w0" function="walkingarea">
        <lane id=":1421174997_w0_0" index="0" allow="pedestrian" speed="1.00" length="5.02" width="3.20" shape="4576.48,952.31 4578.50,949.83 4578.33,947.76 4575.93,945.64 4571.82,950.14 4574.14,952.34"/>
    </edge>
    <edge id=":1472995246_0" function="internal">
        <lane id=":1472995246_0_0" index="0" allow="delivery pedestrian" speed="5.56" length="5.75" shape="4321.19,781.59 4319.16,780.53 4317.72,779.63 4316.88,778.88 4316.64,778.30"/>
    </edge>
    <edge id=":1472995246_1" function="internal">
        <lane id=":1472995246_1_0" index="0" allow="delivery pedestrian" speed="5.56" length="2.47" shape="4321.19,781.59 4320.46,780.34 4320.45,779.45 4320.56,779.37"/>
    </edge>
    <edge id=":1472995246_4" function="internal">
        <lane id=":1472995246_4_0" index="0" speed="5.56" length="2.21" shape="4320.56,779.37 4321.16,778.90 4322.59,778.71"/>
    </edge>
    <edge id=":1472995246_2" function="internal">
        <lane id=":1472995246_2_0" index="0" allow="delivery pedestrian" speed="5.56" length="4.13" shape="4320.16,775.69 4320.24,776.53 4320.67,777.31 4321.45,778.04 4322.59,778.71"/>
    </edge>
    <edge id=":1472995246_3" function="internal">
        <lane id=":1472995246_3_0" index="0" allow="delivery pedestrian" speed="5.56" length="3.49" shape="4320.16,775.69 4320.26,777.66 4319.70,778.75 4319.42,778.80"/>
    </edge>
    <edge id=":1472995246_5" function="internal">
        <lane id=":1472995246_5_0" index="0" speed="5.56" length="2.91" shape="4319.42,778.80 4318.50,778.96 4316.64,778.30"/>
    </edge>
    <edge id=":1472995246_w0" function="walkingarea">
        <lane id=":1472995246_w0_0" index="0" allow="pedestrian" speed="1.00" length="5.30" width="3.20" shape="4320.49,783.03 4321.89,780.15 4321.89,780.15 4323.29,777.27 4321.75,775.87 4318.57,775.50 4318.23,778.48 4315.05,778.11 4315.61,782.25 4318.46,783.71"/>
    </edge>
    <edge id=":1472995247_0" function="internal">
        <lane id=":1472995247_0_0" index="0" allow="delivery pedestrian" speed="5.56" length="5.01" shape="4358.81,799.89 4357.51,799.46 4356.38,799.55 4355.43,800.17 4354.67,801.31"/>
    </edge>
    <edge id=":1472995247_1" function="internal">
        <lane id=":1472995247_1_0" index="0" allow="delivery pedestrian" speed="5.56" length="9.41" shape="4358.81,799.89 4350.36,795.75"/>
    </edge>
    <edge id=":1472995247_2" function="internal">
        <lane id=":1472995247_2_0" index="0" allow="delivery pedestrian" speed="5.56" length="4.67" shape="4358.81,799.89 4358.09,798.64 4358.09,797.74 4358.80,797.20 4360.23,797.02"/>
    </edge>
    <edge id=":1472995247_3" function="internal">
        <lane id=":1472995247_3_0" index="0" allow="delivery pedestrian" speed="5.56" length="9.43" shape="4351.76,792.87 4360.23,797.02"/>
    </edge>
    <edge id=":1472995247_4" function="internal">
        <lane id=":1472995247_4_0" index="0" allow="delivery pedestrian" speed="5.56" length="10.18" shape="4351.76,792.87 4354.06,794.43 4355.31,796.36 4355.52,798.65 4354.67,801.31"/>
    </edge>
    <edge id=":1472995247_5" function="internal">
        <lane id=":1472995247_5_0" index="0" allow="delivery pedestrian" speed="5.56" length="4.67" shape="4351.76,792.87 4352.49,794.12 4352.50,795.01 4351.79,795.55 4350.36,795.75"/>
    </edge>
    <edge id=":1472995247_6" function="internal">
        <lane id=":1472995247_6_0" index="0" allow="delivery pedestrian" speed="5.56" length="5.03" shape="4351.78,799.92 4352.21,798.60 4352.11,797.47 4351.49,796.52 4350.36,795.75"/>
    </edge>
    <edge id=":1472995247_7" function="internal">
        <lane id=":1472995247_7_0" index="0" allow="delivery pedestrian" speed="5.56" length="10.20" shape="4351.78,799.92 4353.35,797.60 4355.27,796.34 4357.57,796.15 4360.23,797.02"/>
    </edge>
    <edge id=":1472995247_8" function="internal">
        <lane id=":1472995247_8_0" index="0" allow="delivery pedestrian" speed="5.56" length="4.67" shape="4351.78,799.92 4353.03,799.19 4353.92,799.18 4354.47,799.89 4354.67,801.31"/>
    </edge>
    <edge id=":1472995247_w0" function="walkingarea">
        <lane id=":1472995247_w0_0" index="0" allow="pedestrian" speed="1.00" length="6.88" width="3.20" shape="4358.11,801.32 4359.52,798.45 4359.52,798.45 4360.94,795.58 4352.46,791.43 4351.06,794.31 4351.06,794.31 4349.66,797.19 4350.34,799.23 4353.23,800.62 4353.23,800.62 4356.11,802.01"/>
    </edge>
    <edge id=":1472995248_0" function="internal">
        <lane id=":1472995248_0_0" index="0" allow="delivery pedestrian" speed="5.56" length="5.80" shape="4393.17,813.56 4394.03,813.87 4394.31,814.80 4394.03,816.36 4393.18,818.53"/>
    </edge>
    <edge id=":1472995248_1" function="internal">
        <lane id=":1472995248_1_0" index="0" allow="delivery pedestrian" speed="5.56" length="6.32" shape="4393.17,813.56 4386.86,813.71"/>
    </edge>
    <edge id=":1472995248_2" function="internal">
        <lane id=":1472995248_2_0" index="0" allow="delivery pedestrian" speed="5.56" length="3.48" shape="4393.17,813.56 4393.30,814.62 4393.05,815.24 4392.40,815.40 4391.37,815.11"/>
    </edge>
    <edge id=":1472995248_3" function="internal">
        <lane id=":1472995248_3_0" index="0" allow="delivery pedestrian" speed="5.56" length="5.27" shape="4388.27,810.84 4391.37,815.11"/>
    </edge>
    <edge id=":1472995248_4" function="internal">
        <lane id=":1472995248_4_0" index="0" allow="delivery pedestrian" speed="5.56" length="10.18" shape="4388.27,810.84 4391.15,812.59 4392.93,814.46 4393.61,816.44 4393.18,818.53"/>
    </edge>
    <edge id=":1472995248_5" function="internal">
        <lane id=":1472995248_5_0" index="0" allow="delivery pedestrian" speed="5.56" length="4.67" shape="4388.27,810.84 4388.99,812.09 4389.00,812.99 4388.29,813.53 4386.86,813.71"/>
    </edge>
    <edge id=":1472995248_6" function="internal">
        <lane id=":1472995248_6_0" index="0" allow="delivery pedestrian" speed="5.56" length="5.24" shape="4390.27,817.20 4390.31,816.43 4389.75,815.59 4388.60,814.69 4386.86,813.71"/>
    </edge>
    <edge id=":1472995248_7" function="internal">
        <lane id=":1472995248_7_0" index="0" allow="delivery pedestrian" speed="5.56" length="2.55" shape="4390.27,817.20 4390.70,816.60 4391.19,816.12 4391.50,815.65 4391.37,815.11"/>
    </edge>
    <edge id=":1472995248_8" function="internal">
        <lane id=":1472995248_8_0" index="0" allow="delivery pedestrian" speed="5.56" length="4.67" shape="4390.27,817.20 4391.49,816.44 4392.39,816.41 4392.95,817.11 4393.18,818.53"/>
    </edge>
    <edge id=":1472995248_w0" function="walkingarea">
        <lane id=":1472995248_w0_0" index="0" allow="pedestrian" speed="1.00" length="5.01" width="3.20" shape="4393.17,811.96 4393.17,815.16 4392.66,814.17 4390.07,816.05 4388.98,809.41 4387.56,812.28 4387.56,812.28 4386.15,815.15 4388.81,816.54 4391.72,817.87 4391.72,817.87 4394.63,819.20"/>
    </edge>
    <edge id=":1472995250_0" function="internal">
        <lane id=":1472995250_0_0" index="0" disallow="pedestrian" speed="22.22" length="6.06" shape="4226.24,820.59 4225.70,826.62"/>
    </edge>
    <edge id=":1472995250_1" function="internal">
        <lane id=":1472995250_1_0" index="0" disallow="pedestrian" speed="22.22" length="2.34" shape="4226.24,820.59 4225.36,821.73 4224.53,822.07"/>
    </edge>
    <edge id=":1472995250_4" function="internal">
        <lane id=":1472995250_4_0" index="0" speed="22.22" length="2.34" shape="4224.53,822.07 4223.76,821.61 4223.05,820.36"/>
    </edge>
    <edge id=":1472995250_2" function="internal">
        <lane id=":1472995250_2_0" index="0" disallow="pedestrian" speed="22.22" length="5.93" shape="4222.52,826.26 4223.05,820.36"/>
    </edge>
    <edge id=":1472995250_3" function="internal">
        <lane id=":1472995250_3_0" index="0" disallow="pedestrian" speed="22.22" length="2.34" shape="4222.52,826.26 4223.45,825.16 4224.28,824.85"/>
    </edge>
    <edge id=":1472995250_5" function="internal">
        <lane id=":1472995250_5_0" index="0" speed="22.22" length="2.34" shape="4224.28,824.85 4225.04,825.34 4225.70,826.62"/>
    </edge>
    <edge id=":1472995250_w0" function="walkingarea">
        <lane id=":1472995250_w0_0" index="0" allow="pedestrian" speed="1.00" length="4.73" width="3.20" shape="4227.29,826.80 4229.27,827.02 4231.05,825.62 4231.22,822.43 4229.83,820.85 4227.84,820.70"/>
    </edge>
    <edge id=":1472995250_w1" function="walkingarea">
        <lane id=":1472995250_w1_0" index="0" allow="pedestrian" speed="1.00" length="5.82" width="2.00" shape="4221.46,820.24 4219.46,820.10 4218.94,825.86 4220.93,826.08"/>
    </edge>
    <edge id=":1472995254_w0" function="walkingarea">
        <lane id=":1472995254_w0_0" index="0" allow="pedestrian" speed="1.00" length="5.03" width="3.20" shape="4288.09,846.85 4289.41,843.94 4288.73,841.98 4285.88,840.53 4283.77,841.36 4282.43,844.26"/>
    </edge>
    <edge id=":1472995255_w0" function="walkingarea">
        <lane id=":1472995255_w0_0" index="0" allow="pedestrian" speed="1.00" length="0.10" width="3.20" shape="4296.75,850.79 4297.91,847.81 4297.99,847.84 4296.67,850.76"/>
    </edge>
    <edge id=":1472997321_0" function="internal">
        <lane id=":1472997321_0_0" index="0" allow="delivery pedestrian" speed="13.89" length="6.77" shape="4407.12,804.08 4405.78,803.78 4404.49,804.23 4403.23,805.43 4402.01,807.37"/>
    </edge>
    <edge id=":1472997321_1" function="internal">
        <lane id=":1472997321_1_0" index="0" disallow="pedestrian" speed="22.22" length="9.40" shape="4407.12,804.08 4398.68,799.93"/>
    </edge>
    <edge id=":1472997321_2" function="internal">
        <lane id=":1472997321_2_0" index="0" disallow="pedestrian" speed="22.22" length="2.34" shape="4407.12,804.08 4406.40,802.83 4406.39,801.94"/>
    </edge>
    <edge id=":1472997321_9" function="internal">
        <lane id=":1472997321_9_0" index="0" speed="22.22" length="2.34" shape="4406.39,801.94 4407.10,801.39 4408.53,801.20"/>
    </edge>
    <edge id=":1472997321_3" function="internal">
        <lane id=":1472997321_3_0" index="0" disallow="pedestrian" speed="22.22" length="9.40" shape="4400.09,797.06 4408.53,801.20"/>
    </edge>
    <edge id=":1472997321_4" function="internal">
        <lane id=":1472997321_4_0" index="0" allow="delivery pedestrian" speed="13.89" length="4.59" shape="4400.09,797.06 4402.38,798.77 4403.12,800.33"/>
    </edge>
    <edge id=":1472997321_5" function="internal">
        <lane id=":1472997321_5_0" index="0" disallow="pedestrian" speed="22.22" length="2.34" shape="4400.09,797.06 4400.82,798.31 4400.82,799.20"/>
    </edge>
    <edge id=":1472997321_10" function="internal">
        <lane id=":1472997321_10_0" index="0" speed="13.89" length="7.37" shape="4403.12,800.33 4403.47,801.06 4403.34,803.93 4402.01,807.37"/>
    </edge>