<?xml version="1.0" encoding="UTF-8"?>

<!-- generated on 2023-05-22 15:03:41 by Eclipse SUMO netedit Version v1_17_0+0377-6a9238e9e1b
-->

<routes xmlns:xsi="http://www.w3.org/2001/XMLSchema-instance" xsi:noNamespaceSchemaLocation="http://sumo.dlr.de/xsd/routes_file.xsd">
    <!-- Vehicles, persons and containers (sorted by depart) -->
    <vehicle id="vehicle_0" depart="0.00">
        <route edges="gneE0 gneE1" color="yellow"/>
        <stop parkingArea="parkingArea" duration="60.00" triggered="person" parking="1" expected="personA personB"/>
    </vehicle>
</routes>
