<?xml version="1.0"?>

<!-- generated on 07/02/10 12:17:38 by SUMO sumo Version dev-SVN-r8822
<configuration>

    <input>
        <net-file value="net.net.xml"/>
        <additional-files value="input_routes.rou.xml,input_additional.add.xml,input_additional2.add.xml"/>
    </input>

    <time>
        <begin value="0"/>
        <end value="150"/>
    </time>

    <report>
        <no-duration-log value="true"/>
        <no-step-log value="true"/>
    </report>

</configuration>
-->

<netstats>
    <interval begin="15.00" end="25.00" id="dump_15">
        <edge id="4/1to3/1" sampledSeconds="43.00" traveltime="39.05" density="11.01" occupancy="10.37" waitingTime="0.00" speed="10.00" departed="2" arrived="0" entered="0" left="0" laneChangedFrom="0" laneChangedTo="0"/>
    </interval>
    <interval begin="25.00" end="35.00" id="dump_15">
        <edge id="3/1to2/1" sampledSeconds="4.95" traveltime="39.05" density="1.27" occupancy="0.63" waitingTime="0.00" speed="10.00" departed="0" arrived="0" entered="1" left="0" laneChangedFrom="0" laneChangedTo="0"/>
        <edge id="4/1to3/1" sampledSeconds="15.05" traveltime="39.05" density="3.85" occupancy="4.49" waitingTime="0.00" speed="10.00" departed="0" arrived="0" entered="0" left="1" laneChangedFrom="0" laneChangedTo="0"/>
    </interval>
</netstats>
