<routes>
   <vehicle id="0" depart="0">
      <route>beg middle end xxx</route>
   </vehicle>
</routes>
