<?xml version="1.0" encoding="UTF-8"?>

<!-- generated on Mon Feb 17 15:30:48 2020 by Eclipse SUMO netconvert Version v1_5_0+0130-ceb0a01
This data file and the accompanying materials
are made available under the terms of the Eclipse Public License v2.0
which accompanies this distribution, and is available at
http://www.eclipse.org/legal/epl-v20.html
SPDX-License-Identifier: EPL-2.0
<configuration xmlns:xsi="http://www.w3.org/2001/XMLSchema-instance" xsi:noNamespaceSchemaLocation="http://sumo.dlr.de/xsd/netconvertConfiguration.xsd">

    <input>
        <node-files value="input_plain.nod.xml"/>
        <edge-files value="input_plain.edg.xml"/>
        <connection-files value="input_plain.con.xml"/>
    </input>

    <output>
        <write-license value="true"/>
        <output-file value="net.net.xml"/>
        <plain-output-prefix value="plain"/>
    </output>

    <report>
        <xml-validation value="never"/>
        <aggregate-warnings value="5"/>
    </report>

</configuration>
-->

<edges version="1.6" xmlns:xsi="http://www.w3.org/2001/XMLSchema-instance" xsi:noNamespaceSchemaLocation="http://sumo.dlr.de/xsd/edges_file.xsd">
    <edge id="-51811895a" from="54536753" to="gneJ3" priority="-2" numLanes="3" speed="13.89">
        <lane index="0" allow="pedestrian" width="2.00"/>
        <lane index="1" disallow="pedestrian"/>
        <lane index="2" disallow="pedestrian"/>
    </edge>
    <edge id="-51812052" from="54536750" to="54536753" priority="-3" numLanes="3" speed="13.89">
        <lane index="0" allow="pedestrian" width="2.00"/>
        <lane index="1" disallow="pedestrian"/>
        <lane index="2" disallow="pedestrian"/>
    </edge>
    <edge id="-786367651" from="54536771" to="54536753" priority="-2" numLanes="3" speed="13.89" shape="74.37,83.92 56.65,35.56" spreadType="center">
        <lane index="0" allow="pedestrian" width="2.00"/>
        <lane index="1" disallow="pedestrian"/>
        <lane index="2" disallow="pedestrian"/>
    </edge>
    <edge id="51811895a" from="54536752" to="54536753" priority="-5" numLanes="1" speed="13.89" disallow="pedestrian"/>
    <edge id="51811895b" from="54536752" to="54536753" priority="-2" numLanes="3" speed="13.89" shape="53.62,7.64 63.06,31.56">
        <lane index="0" allow="pedestrian" width="2.00"/>
        <lane index="1" disallow="pedestrian"/>
        <lane index="2" disallow="pedestrian"/>
    </edge>
    <edge id="51812052" from="54536753" to="54536750" priority="-3" numLanes="2" speed="13.89">
        <lane index="0" allow="pedestrian" width="2.00"/>
        <lane index="1" disallow="pedestrian"/>
    </edge>
    <edge id="786367652" from="54536753" to="54536772" priority="-2" numLanes="3" speed="13.89" shape="68.96,39.03 83.45,80.53" spreadType="center">
        <lane index="0" allow="pedestrian" width="2.00"/>
        <lane index="1" disallow="pedestrian"/>
        <lane index="2" disallow="pedestrian"/>
    </edge>
</edges>
