<?xml version="1.0" encoding="UTF-8"?>

<!-- generated on 2024-10-28 18:24:10 by Eclipse SUMO sumo Version v1_14_1+15631-c97bcde1465
This data file and the accompanying materials
are made available under the terms of the Eclipse Public License v2.0
which accompanies this distribution, and is available at
http://www.eclipse.org/legal/epl-v20.html
This file may also be made available under the following Secondary
Licenses when the conditions for such availability set forth in the Eclipse
Public License 2.0 are satisfied: GNU General Public License, version 2
or later which is available at
https://www.gnu.org/licenses/old-licenses/gpl-2.0-standalone.html
SPDX-License-Identifier: EPL-2.0 OR GPL-2.0-or-later
<sumoConfiguration xmlns:xsi="http://www.w3.org/2001/XMLSchema-instance" xsi:noNamespaceSchemaLocation="http://sumo.dlr.de/xsd/sumoConfiguration.xsd">

    <input>
        <net-file value="net.net.xml"/>
        <route-files value="input_routes.rou.xml"/>
        <additional-files value="input_additional.add.xml"/>
    </input>

    <output>
        <write-license value="true"/>
        <battery-output value="battery.xml"/>
        <battery-output.precision value="4"/>
        <chargingstations-output value="chargingstations.xml"/>
        <tripinfo-output value="tripinfos.xml"/>
    </output>

    <processing>
        <default.speeddev value="0"/>
    </processing>

    <report>
        <xml-validation value="never"/>
        <duration-log.disable value="true"/>
        <no-step-log value="true"/>
    </report>

    <battery>
        <device.stationfinder.probability value="1"/>
        <device.stationfinder.rescueAction value="none"/>
        <device.stationfinder.emptyThreshold value="0"/>
    </battery>

</sumoConfiguration>
-->

<battery-export xmlns:xsi="http://www.w3.org/2001/XMLSchema-instance" xsi:noNamespaceSchemaLocation="http://sumo.dlr.de/xsd/battery_file.xsd">
    <timestep time="0.00">
        <vehicle id="veh0" energyConsumed="0.0000" totalEnergyConsumed="0.0000" totalEnergyRegenerated="0.0000" actualBatteryCapacity="150.0000" maximumBatteryCapacity="35000.0000" chargingStationId="NULL" energyCharged="0.0000" energyChargedInTransit="0.0000" energyChargedStopped="0.0000" speed="0.0000" acceleration="0.0000" x="-987.9000" y="995.0500" lane="D2_0" posOnLane="12.1000" timeStopped="0"/>
    </timestep>
    <timestep time="1.00">
        <vehicle id="veh0" energyConsumed="0.3125" totalEnergyConsumed="0.3125" totalEnergyRegenerated="0.0000" actualBatteryCapacity="149.6875" maximumBatteryCapacity="35000.0000" chargingStationId="NULL" energyCharged="0.0000" energyChargedInTransit="0.0000" energyChargedStopped="0.0000" speed="1.0000" acceleration="1.0000" x="-986.9000" y="995.0500" lane="D2_0" posOnLane="13.1000" timeStopped="0"/>
    </timestep>
    <timestep time="2.00">
        <vehicle id="veh0" energyConsumed="0.8649" totalEnergyConsumed="1.1774" totalEnergyRegenerated="0.0000" actualBatteryCapacity="148.8226" maximumBatteryCapacity="35000.0000" chargingStationId="NULL" energyCharged="0.0000" energyChargedInTransit="0.0000" energyChargedStopped="0.0000" speed="2.0000" acceleration="1.0000" x="-984.9000" y="995.0500" lane="D2_0" posOnLane="15.1000" timeStopped="0"/>
    </timestep>
    <timestep time="3.00">
        <vehicle id="veh0" energyConsumed="1.4190" totalEnergyConsumed="2.5963" totalEnergyRegenerated="0.0000" actualBatteryCapacity="147.4037" maximumBatteryCapacity="35000.0000" chargingStationId="NULL" energyCharged="0.0000" energyChargedInTransit="0.0000" energyChargedStopped="0.0000" speed="3.0000" acceleration="1.0000" x="-981.9000" y="995.0500" lane="D2_0" posOnLane="18.1000" timeStopped="0"/>
    </timestep>
    <timestep time="4.00">
        <vehicle id="veh0" energyConsumed="1.9755" totalEnergyConsumed="4.5718" totalEnergyRegenerated="0.0000" actualBatteryCapacity="145.4282" maximumBatteryCapacity="35000.0000" chargingStationId="NULL" energyCharged="0.0000" energyChargedInTransit="0.0000" energyChargedStopped="0.0000" speed="4.0000" acceleration="1.0000" x="-977.9000" y="995.0500" lane="D2_0" posOnLane="22.1000" timeStopped="0"/>
    </timestep>
    <timestep time="5.00">
        <vehicle id="veh0" energyConsumed="2.5352" totalEnergyConsumed="7.1071" totalEnergyRegenerated="0.0000" actualBatteryCapacity="142.8929" maximumBatteryCapacity="35000.0000" chargingStationId="NULL" energyCharged="0.0000" energyChargedInTransit="0.0000" energyChargedStopped="0.0000" speed="5.0000" acceleration="1.0000" x="-972.9000" y="995.0500" lane="D2_0" posOnLane="27.1000" timeStopped="0"/>
    </timestep>
    <timestep time="6.00">
        <vehicle id="veh0" energyConsumed="3.0990" totalEnergyConsumed="10.2061" totalEnergyRegenerated="0.0000" actualBatteryCapacity="139.7939" maximumBatteryCapacity="35000.0000" chargingStationId="NULL" energyCharged="0.0000" energyChargedInTransit="0.0000" energyChargedStopped="0.0000" speed="6.0000" acceleration="1.0000" x="-966.9000" y="995.0500" lane="D2_0" posOnLane="33.1000" timeStopped="0"/>
    </timestep>
    <timestep time="7.00">
        <vehicle id="veh0" energyConsumed="3.6677" totalEnergyConsumed="13.8738" totalEnergyRegenerated="0.0000" actualBatteryCapacity="136.1262" maximumBatteryCapacity="35000.0000" chargingStationId="NULL" energyCharged="0.0000" energyChargedInTransit="0.0000" energyChargedStopped="0.0000" speed="7.0000" acceleration="1.0000" x="-959.9000" y="995.0500" lane="D2_0" posOnLane="40.1000" timeStopped="0"/>
    </timestep>
    <timestep time="8.00">
        <vehicle id="veh0" energyConsumed="4.2420" totalEnergyConsumed="18.1158" totalEnergyRegenerated="0.0000" actualBatteryCapacity="131.8842" maximumBatteryCapacity="35000.0000" chargingStationId="NULL" energyCharged="0.0000" energyChargedInTransit="0.0000" energyChargedStopped="0.0000" speed="8.0000" acceleration="1.0000" x="-951.9000" y="995.0500" lane="D2_0" posOnLane="48.1000" timeStopped="0"/>
    </timestep>
    <timestep time="9.00">
        <vehicle id="veh0" energyConsumed="4.8228" totalEnergyConsumed="22.9385" totalEnergyRegenerated="0.0000" actualBatteryCapacity="127.0615" maximumBatteryCapacity="35000.0000" chargingStationId="NULL" energyCharged="0.0000" energyChargedInTransit="0.0000" energyChargedStopped="0.0000" speed="9.0000" acceleration="1.0000" x="-942.9000" y="995.0500" lane="D2_0" posOnLane="57.1000" timeStopped="0"/>
    </timestep>
    <timestep time="10.00">
        <vehicle id="veh0" energyConsumed="5.4108" totalEnergyConsumed="28.3494" totalEnergyRegenerated="0.0000" actualBatteryCapacity="121.6506" maximumBatteryCapacity="35000.0000" chargingStationId="NULL" energyCharged="0.0000" energyChargedInTransit="0.0000" energyChargedStopped="0.0000" speed="10.0000" acceleration="1.0000" x="-932.9000" y="995.0500" lane="D2_0" posOnLane="67.1000" timeStopped="0"/>
    </timestep>
    <timestep time="11.00">
        <vehicle id="veh0" energyConsumed="6.0070" totalEnergyConsumed="34.3564" totalEnergyRegenerated="0.0000" actualBatteryCapacity="115.6436" maximumBatteryCapacity="35000.0000" chargingStationId="NULL" energyCharged="0.0000" energyChargedInTransit="0.0000" energyChargedStopped="0.0000" speed="11.0000" acceleration="1.0000" x="-921.9000" y="995.0500" lane="D2_0" posOnLane="78.1000" timeStopped="0"/>
    </timestep>
    <timestep time="12.00">
        <vehicle id="veh0" energyConsumed="6.6121" totalEnergyConsumed="40.9685" totalEnergyRegenerated="0.0000" actualBatteryCapacity="109.0315" maximumBatteryCapacity="35000.0000" chargingStationId="NULL" energyCharged="0.0000" energyChargedInTransit="0.0000" energyChargedStopped="0.0000" speed="12.0000" acceleration="1.0000" x="-909.9000" y="995.0500" lane="D2_0" posOnLane="90.1000" timeStopped="0"/>
    </timestep>
    <timestep time="13.00">
        <vehicle id="veh0" energyConsumed="7.2269" totalEnergyConsumed="48.1954" totalEnergyRegenerated="0.0000" actualBatteryCapacity="101.8046" maximumBatteryCapacity="35000.0000" chargingStationId="NULL" energyCharged="0.0000" energyChargedInTransit="0.0000" energyChargedStopped="0.0000" speed="13.0000" acceleration="1.0000" x="-896.9000" y="995.0500" lane="D2_0" posOnLane="103.1000" timeStopped="0"/>
    </timestep>
    <timestep time="14.00">
        <vehicle id="veh0" energyConsumed="7.0665" totalEnergyConsumed="55.2619" totalEnergyRegenerated="0.0000" actualBatteryCapacity="94.7381" maximumBatteryCapacity="35000.0000" chargingStationId="NULL" energyCharged="0.0000" energyChargedInTransit="0.0000" energyChargedStopped="0.0000" speed="13.8900" acceleration="0.8900" x="-883.0100" y="995.0500" lane="D2_0" posOnLane="116.9900" timeStopped="0"/>
    </timestep>
    <timestep time="15.00">
        <vehicle id="veh0" energyConsumed="1.0465" totalEnergyConsumed="56.3084" totalEnergyRegenerated="0.0000" actualBatteryCapacity="93.6916" maximumBatteryCapacity="35000.0000" chargingStationId="NULL" energyCharged="0.0000" energyChargedInTransit="0.0000" energyChargedStopped="0.0000" speed="13.8900" acceleration="0.0000" x="-869.1200" y="995.0500" lane="D2_0" posOnLane="130.8800" timeStopped="0"/>
    </timestep>
    <timestep time="16.00">
        <vehicle id="veh0" energyConsumed="1.0465" totalEnergyConsumed="57.3549" totalEnergyRegenerated="0.0000" actualBatteryCapacity="92.6451" maximumBatteryCapacity="35000.0000" chargingStationId="NULL" energyCharged="0.0000" energyChargedInTransit="0.0000" energyChargedStopped="0.0000" speed="13.8900" acceleration="0.0000" x="-855.2300" y="995.0500" lane="D2_0" posOnLane="144.7700" timeStopped="0"/>
    </timestep>
    <timestep time="17.00">
        <vehicle id="veh0" energyConsumed="1.0465" totalEnergyConsumed="58.4014" totalEnergyRegenerated="0.0000" actualBatteryCapacity="91.5986" maximumBatteryCapacity="35000.0000" chargingStationId="NULL" energyCharged="0.0000" energyChargedInTransit="0.0000" energyChargedStopped="0.0000" speed="13.8900" acceleration="0.0000" x="-841.3400" y="995.0500" lane="D2_0" posOnLane="158.6600" timeStopped="0"/>
    </timestep>
    <timestep time="18.00">
        <vehicle id="veh0" energyConsumed="1.0465" totalEnergyConsumed="59.4480" totalEnergyRegenerated="0.0000" actualBatteryCapacity="90.5520" maximumBatteryCapacity="35000.0000" chargingStationId="NULL" energyCharged="0.0000" energyChargedInTransit="0.0000" energyChargedStopped="0.0000" speed="13.8900" acceleration="0.0000" x="-827.4500" y="995.0500" lane="D2_0" posOnLane="172.5500" timeStopped="0"/>
    </timestep>
    <timestep time="19.00">
        <vehicle id="veh0" energyConsumed="1.0465" totalEnergyConsumed="60.4945" totalEnergyRegenerated="0.0000" actualBatteryCapacity="89.5055" maximumBatteryCapacity="35000.0000" chargingStationId="NULL" energyCharged="0.0000" energyChargedInTransit="0.0000" energyChargedStopped="0.0000" speed="13.8900" acceleration="0.0000" x="-813.5600" y="995.0500" lane="D2_0" posOnLane="186.4400" timeStopped="0"/>
    </timestep>
    <timestep time="20.00">
        <vehicle id="veh0" energyConsumed="1.0465" totalEnergyConsumed="61.5410" totalEnergyRegenerated="0.0000" actualBatteryCapacity="88.4590" maximumBatteryCapacity="35000.0000" chargingStationId="NULL" energyCharged="0.0000" energyChargedInTransit="0.0000" energyChargedStopped="0.0000" speed="13.8900" acceleration="0.0000" x="-799.6700" y="995.0500" lane="D2_0" posOnLane="200.3300" timeStopped="0"/>
    </timestep>
    <timestep time="21.00">
        <vehicle id="veh0" energyConsumed="1.0465" totalEnergyConsumed="62.5876" totalEnergyRegenerated="0.0000" actualBatteryCapacity="87.4124" maximumBatteryCapacity="35000.0000" chargingStationId="NULL" energyCharged="0.0000" energyChargedInTransit="0.0000" energyChargedStopped="0.0000" speed="13.8900" acceleration="0.0000" x="-785.7800" y="995.0500" lane="D2_0" posOnLane="214.2200" timeStopped="0"/>
    </timestep>
    <timestep time="22.00">
        <vehicle id="veh0" energyConsumed="1.0465" totalEnergyConsumed="63.6341" totalEnergyRegenerated="0.0000" actualBatteryCapacity="86.3659" maximumBatteryCapacity="35000.0000" chargingStationId="NULL" energyCharged="0.0000" energyChargedInTransit="0.0000" energyChargedStopped="0.0000" speed="13.8900" acceleration="0.0000" x="-771.8900" y="995.0500" lane="D2_0" posOnLane="228.1100" timeStopped="0"/>
    </timestep>
    <timestep time="23.00">
        <vehicle id="veh0" energyConsumed="1.0465" totalEnergyConsumed="64.6806" totalEnergyRegenerated="0.0000" actualBatteryCapacity="85.3194" maximumBatteryCapacity="35000.0000" chargingStationId="NULL" energyCharged="0.0000" energyChargedInTransit="0.0000" energyChargedStopped="0.0000" speed="13.8900" acceleration="0.0000" x="-758.0000" y="995.0500" lane="D2_0" posOnLane="242.0000" timeStopped="0"/>
    </timestep>
    <timestep time="24.00">
        <vehicle id="veh0" energyConsumed="1.0465" totalEnergyConsumed="65.7271" totalEnergyRegenerated="0.0000" actualBatteryCapacity="84.2729" maximumBatteryCapacity="35000.0000" chargingStationId="NULL" energyCharged="0.0000" energyChargedInTransit="0.0000" energyChargedStopped="0.0000" speed="13.8900" acceleration="0.0000" x="-744.1100" y="995.0500" lane="D2_0" posOnLane="255.8900" timeStopped="0"/>
    </timestep>
    <timestep time="25.00">
        <vehicle id="veh0" energyConsumed="1.0465" totalEnergyConsumed="66.7737" totalEnergyRegenerated="0.0000" actualBatteryCapacity="83.2263" maximumBatteryCapacity="35000.0000" chargingStationId="NULL" energyCharged="0.0000" energyChargedInTransit="0.0000" energyChargedStopped="0.0000" speed="13.8900" acceleration="0.0000" x="-730.2200" y="995.0500" lane="D2_0" posOnLane="269.7800" timeStopped="0"/>
    </timestep>
    <timestep time="26.00">
        <vehicle id="veh0" energyConsumed="1.0465" totalEnergyConsumed="67.8202" totalEnergyRegenerated="0.0000" actualBatteryCapacity="82.1798" maximumBatteryCapacity="35000.0000" chargingStationId="NULL" energyCharged="0.0000" energyChargedInTransit="0.0000" energyChargedStopped="0.0000" speed="13.8900" acceleration="0.0000" x="-716.3300" y="995.0500" lane="D2_0" posOnLane="283.6700" timeStopped="0"/>
    </timestep>
    <timestep time="27.00">
        <vehicle id="veh0" energyConsumed="1.0465" totalEnergyConsumed="68.8667" totalEnergyRegenerated="0.0000" actualBatteryCapacity="81.1333" maximumBatteryCapacity="35000.0000" chargingStationId="NULL" energyCharged="0.0000" energyChargedInTransit="0.0000" energyChargedStopped="0.0000" speed="13.8900" acceleration="0.0000" x="-702.4400" y="995.0500" lane="D2_0" posOnLane="297.5600" timeStopped="0"/>
    </timestep>
    <timestep time="28.00">
        <vehicle id="veh0" energyConsumed="1.0465" totalEnergyConsumed="69.9133" totalEnergyRegenerated="0.0000" actualBatteryCapacity="80.0867" maximumBatteryCapacity="35000.0000" chargingStationId="NULL" energyCharged="0.0000" energyChargedInTransit="0.0000" energyChargedStopped="0.0000" speed="13.8900" acceleration="0.0000" x="-688.5500" y="995.0500" lane="D2_0" posOnLane="311.4500" timeStopped="0"/>
    </timestep>
    <timestep time="29.00">
        <vehicle id="veh0" energyConsumed="1.0465" totalEnergyConsumed="70.9598" totalEnergyRegenerated="0.0000" actualBatteryCapacity="79.0402" maximumBatteryCapacity="35000.0000" chargingStationId="NULL" energyCharged="0.0000" energyChargedInTransit="0.0000" energyChargedStopped="0.0000" speed="13.8900" acceleration="0.0000" x="-674.6600" y="995.0500" lane="D2_0" posOnLane="325.3400" timeStopped="0"/>
    </timestep>
    <timestep time="30.00">
        <vehicle id="veh0" energyConsumed="1.0465" totalEnergyConsumed="72.0063" totalEnergyRegenerated="0.0000" actualBatteryCapacity="77.9937" maximumBatteryCapacity="35000.0000" chargingStationId="NULL" energyCharged="0.0000" energyChargedInTransit="0.0000" energyChargedStopped="0.0000" speed="13.8900" acceleration="0.0000" x="-660.7700" y="995.0500" lane="D2_0" posOnLane="339.2300" timeStopped="0"/>
    </timestep>
    <timestep time="31.00">
        <vehicle id="veh0" energyConsumed="1.0465" totalEnergyConsumed="73.0528" totalEnergyRegenerated="0.0000" actualBatteryCapacity="76.9472" maximumBatteryCapacity="35000.0000" chargingStationId="NULL" energyCharged="0.0000" energyChargedInTransit="0.0000" energyChargedStopped="0.0000" speed="13.8900" acceleration="0.0000" x="-646.8800" y="995.0500" lane="D2_0" posOnLane="353.1200" timeStopped="0"/>
    </timestep>
    <timestep time="32.00">
        <vehicle id="veh0" energyConsumed="1.0465" totalEnergyConsumed="74.0994" totalEnergyRegenerated="0.0000" actualBatteryCapacity="75.9006" maximumBatteryCapacity="35000.0000" chargingStationId="NULL" energyCharged="0.0000" energyChargedInTransit="0.0000" energyChargedStopped="0.0000" speed="13.8900" acceleration="0.0000" x="-632.9900" y="995.0500" lane="D2_0" posOnLane="367.0100" timeStopped="0"/>
    </timestep>
    <timestep time="33.00">
        <vehicle id="veh0" energyConsumed="1.0465" totalEnergyConsumed="75.1459" totalEnergyRegenerated="0.0000" actualBatteryCapacity="74.8541" maximumBatteryCapacity="35000.0000" chargingStationId="NULL" energyCharged="0.0000" energyChargedInTransit="0.0000" energyChargedStopped="0.0000" speed="13.8900" acceleration="0.0000" x="-619.1000" y="995.0500" lane="D2_0" posOnLane="380.9000" timeStopped="0"/>
    </timestep>
    <timestep time="34.00">
        <vehicle id="veh0" energyConsumed="1.0465" totalEnergyConsumed="76.1924" totalEnergyRegenerated="0.0000" actualBatteryCapacity="73.8076" maximumBatteryCapacity="35000.0000" chargingStationId="NULL" energyCharged="0.0000" energyChargedInTransit="0.0000" energyChargedStopped="0.0000" speed="13.8900" acceleration="0.0000" x="-605.2100" y="995.0500" lane="D2_0" posOnLane="394.7900" timeStopped="0"/>
    </timestep>
    <timestep time="35.00">
        <vehicle id="veh0" energyConsumed="1.0465" totalEnergyConsumed="77.2389" totalEnergyRegenerated="0.0000" actualBatteryCapacity="72.7611" maximumBatteryCapacity="35000.0000" chargingStationId="NULL" energyCharged="0.0000" energyChargedInTransit="0.0000" energyChargedStopped="0.0000" speed="13.8900" acceleration="0.0000" x="-591.3200" y="995.0500" lane="D2_0" posOnLane="408.6800" timeStopped="0"/>
    </timestep>
    <timestep time="36.00">
        <vehicle id="veh0" energyConsumed="1.0465" totalEnergyConsumed="78.2855" totalEnergyRegenerated="0.0000" actualBatteryCapacity="71.7145" maximumBatteryCapacity="35000.0000" chargingStationId="NULL" energyCharged="0.0000" energyChargedInTransit="0.0000" energyChargedStopped="0.0000" speed="13.8900" acceleration="0.0000" x="-577.4300" y="995.0500" lane="D2_0" posOnLane="422.5700" timeStopped="0"/>
    </timestep>
    <timestep time="37.00">
        <vehicle id="veh0" energyConsumed="1.0465" totalEnergyConsumed="79.3320" totalEnergyRegenerated="0.0000" actualBatteryCapacity="70.6680" maximumBatteryCapacity="35000.0000" chargingStationId="NULL" energyCharged="0.0000" energyChargedInTransit="0.0000" energyChargedStopped="0.0000" speed="13.8900" acceleration="0.0000" x="-563.5400" y="995.0500" lane="D2_0" posOnLane="436.4600" timeStopped="0"/>
    </timestep>
    <timestep time="38.00">
        <vehicle id="veh0" energyConsumed="1.0465" totalEnergyConsumed="80.3785" totalEnergyRegenerated="0.0000" actualBatteryCapacity="69.6215" maximumBatteryCapacity="35000.0000" chargingStationId="NULL" energyCharged="0.0000" energyChargedInTransit="0.0000" energyChargedStopped="0.0000" speed="13.8900" acceleration="0.0000" x="-549.6500" y="995.0500" lane="D2_0" posOnLane="450.3500" timeStopped="0"/>
    </timestep>
    <timestep time="39.00">
        <vehicle id="veh0" energyConsumed="1.0465" totalEnergyConsumed="81.4251" totalEnergyRegenerated="0.0000" actualBatteryCapacity="68.5749" maximumBatteryCapacity="35000.0000" chargingStationId="NULL" energyCharged="0.0000" energyChargedInTransit="0.0000" energyChargedStopped="0.0000" speed="13.8900" acceleration="0.0000" x="-535.7600" y="995.0500" lane="D2_0" posOnLane="464.2400" timeStopped="0"/>
    </timestep>
    <timestep time="40.00">
        <vehicle id="veh0" energyConsumed="1.0465" totalEnergyConsumed="82.4716" totalEnergyRegenerated="0.0000" actualBatteryCapacity="67.5284" maximumBatteryCapacity="35000.0000" chargingStationId="NULL" energyCharged="0.0000" energyChargedInTransit="0.0000" energyChargedStopped="0.0000" speed="13.8900" acceleration="0.0000" x="-521.8700" y="995.0500" lane="D2_0" posOnLane="478.1300" timeStopped="0"/>
    </timestep>
    <timestep time="41.00">
        <vehicle id="veh0" energyConsumed="1.0465" totalEnergyConsumed="83.5181" totalEnergyRegenerated="0.0000" actualBatteryCapacity="66.4819" maximumBatteryCapacity="35000.0000" chargingStationId="NULL" energyCharged="0.0000" energyChargedInTransit="0.0000" energyChargedStopped="0.0000" speed="13.8900" acceleration="0.0000" x="-507.9800" y="995.0500" lane="D2_0" posOnLane="492.0200" timeStopped="0"/>
    </timestep>
    <timestep time="42.00">
        <vehicle id="veh0" energyConsumed="1.0465" totalEnergyConsumed="84.5646" totalEnergyRegenerated="0.0000" actualBatteryCapacity="65.4354" maximumBatteryCapacity="35000.0000" chargingStationId="NULL" energyCharged="0.0000" energyChargedInTransit="0.0000" energyChargedStopped="0.0000" speed="13.8900" acceleration="0.0000" x="-494.1900" y="995.0500" lane="L2_0" posOnLane="5.8100" timeStopped="0"/>
    </timestep>
    <timestep time="43.00">
        <vehicle id="veh0" energyConsumed="1.0465" totalEnergyConsumed="85.6112" totalEnergyRegenerated="0.0000" actualBatteryCapacity="64.3888" maximumBatteryCapacity="35000.0000" chargingStationId="NULL" energyCharged="0.0000" energyChargedInTransit="0.0000" energyChargedStopped="0.0000" speed="13.8900" acceleration="0.0000" x="-480.3000" y="995.0500" lane="L2_0" posOnLane="19.7000" timeStopped="0"/>
    </timestep>
    <timestep time="44.00">
        <vehicle id="veh0" energyConsumed="1.0465" totalEnergyConsumed="86.6577" totalEnergyRegenerated="0.0000" actualBatteryCapacity="63.3423" maximumBatteryCapacity="35000.0000" chargingStationId="NULL" energyCharged="0.0000" energyChargedInTransit="0.0000" energyChargedStopped="0.0000" speed="13.8900" acceleration="0.0000" x="-466.4100" y="995.0500" lane="L2_0" posOnLane="33.5900" timeStopped="0"/>
    </timestep>
    <timestep time="45.00">
        <vehicle id="veh0" energyConsumed="1.0465" totalEnergyConsumed="87.7042" totalEnergyRegenerated="0.0000" actualBatteryCapacity="62.2958" maximumBatteryCapacity="35000.0000" chargingStationId="NULL" energyCharged="0.0000" energyChargedInTransit="0.0000" energyChargedStopped="0.0000" speed="13.8900" acceleration="0.0000" x="-452.5200" y="995.0500" lane="L2_0" posOnLane="47.4800" timeStopped="0"/>
    </timestep>
    <timestep time="46.00">
        <vehicle id="veh0" energyConsumed="1.0465" totalEnergyConsumed="88.7508" totalEnergyRegenerated="0.0000" actualBatteryCapacity="61.2492" maximumBatteryCapacity="35000.0000" chargingStationId="NULL" energyCharged="0.0000" energyChargedInTransit="0.0000" energyChargedStopped="0.0000" speed="13.8900" acceleration="0.0000" x="-438.6300" y="995.0500" lane="L2_0" posOnLane="61.3700" timeStopped="0"/>
    </timestep>
    <timestep time="47.00">
        <vehicle id="veh0" energyConsumed="1.0465" totalEnergyConsumed="89.7973" totalEnergyRegenerated="0.0000" actualBatteryCapacity="60.2027" maximumBatteryCapacity="35000.0000" chargingStationId="NULL" energyCharged="0.0000" energyChargedInTransit="0.0000" energyChargedStopped="0.0000" speed="13.8900" acceleration="0.0000" x="-424.7400" y="995.0500" lane="L2_0" posOnLane="75.2600" timeStopped="0"/>
    </timestep>
    <timestep time="48.00">
        <vehicle id="veh0" energyConsumed="1.0465" totalEnergyConsumed="90.8438" totalEnergyRegenerated="0.0000" actualBatteryCapacity="59.1562" maximumBatteryCapacity="35000.0000" chargingStationId="NULL" energyCharged="0.0000" energyChargedInTransit="0.0000" energyChargedStopped="0.0000" speed="13.8900" acceleration="0.0000" x="-410.8500" y="995.0500" lane="L2_0" posOnLane="89.1500" timeStopped="0"/>
    </timestep>
    <timestep time="49.00">
        <vehicle id="veh0" energyConsumed="1.0465" totalEnergyConsumed="91.8903" totalEnergyRegenerated="0.0000" actualBatteryCapacity="58.1097" maximumBatteryCapacity="35000.0000" chargingStationId="NULL" energyCharged="0.0000" energyChargedInTransit="0.0000" energyChargedStopped="0.0000" speed="13.8900" acceleration="0.0000" x="-396.9600" y="995.0500" lane="L2_0" posOnLane="103.0400" timeStopped="0"/>
    </timestep>
    <timestep time="50.00">
        <vehicle id="veh0" energyConsumed="1.0465" totalEnergyConsumed="92.9369" totalEnergyRegenerated="0.0000" actualBatteryCapacity="57.0631" maximumBatteryCapacity="35000.0000" chargingStationId="NULL" energyCharged="0.0000" energyChargedInTransit="0.0000" energyChargedStopped="0.0000" speed="13.8900" acceleration="0.0000" x="-383.0700" y="995.0500" lane="L2_0" posOnLane="116.9300" timeStopped="0"/>
    </timestep>
    <timestep time="51.00">
        <vehicle id="veh0" energyConsumed="1.0465" totalEnergyConsumed="93.9834" totalEnergyRegenerated="0.0000" actualBatteryCapacity="56.0166" maximumBatteryCapacity="35000.0000" chargingStationId="NULL" energyCharged="0.0000" energyChargedInTransit="0.0000" energyChargedStopped="0.0000" speed="13.8900" acceleration="0.0000" x="-369.1800" y="995.0500" lane="L2_0" posOnLane="130.8200" timeStopped="0"/>
    </timestep>
    <timestep time="52.00">
        <vehicle id="veh0" energyConsumed="1.0465" totalEnergyConsumed="95.0299" totalEnergyRegenerated="0.0000" actualBatteryCapacity="54.9701" maximumBatteryCapacity="35000.0000" chargingStationId="NULL" energyCharged="0.0000" energyChargedInTransit="0.0000" energyChargedStopped="0.0000" speed="13.8900" acceleration="0.0000" x="-355.2900" y="995.0500" lane="L2_0" posOnLane="144.7100" timeStopped="0"/>
    </timestep>
    <timestep time="53.00">
        <vehicle id="veh0" energyConsumed="1.0465" totalEnergyConsumed="96.0765" totalEnergyRegenerated="0.0000" actualBatteryCapacity="53.9235" maximumBatteryCapacity="35000.0000" chargingStationId="NULL" energyCharged="0.0000" energyChargedInTransit="0.0000" energyChargedStopped="0.0000" speed="13.8900" acceleration="0.0000" x="-341.4000" y="995.0500" lane="L2_0" posOnLane="158.6000" timeStopped="0"/>
    </timestep>
    <timestep time="54.00">
        <vehicle id="veh0" energyConsumed="1.0465" totalEnergyConsumed="97.1230" totalEnergyRegenerated="0.0000" actualBatteryCapacity="52.8770" maximumBatteryCapacity="35000.0000" chargingStationId="NULL" energyCharged="0.0000" energyChargedInTransit="0.0000" energyChargedStopped="0.0000" speed="13.8900" acceleration="0.0000" x="-327.5100" y="995.0500" lane="L2_0" posOnLane="172.4900" timeStopped="0"/>
    </timestep>
    <timestep time="55.00">
        <vehicle id="veh0" energyConsumed="1.0465" totalEnergyConsumed="98.1695" totalEnergyRegenerated="0.0000" actualBatteryCapacity="51.8305" maximumBatteryCapacity="35000.0000" chargingStationId="NULL" energyCharged="0.0000" energyChargedInTransit="0.0000" energyChargedStopped="0.0000" speed="13.8900" acceleration="0.0000" x="-313.6200" y="995.0500" lane="L2_0" posOnLane="186.3800" timeStopped="0"/>
    </timestep>
    <timestep time="56.00">
        <vehicle id="veh0" energyConsumed="1.0465" totalEnergyConsumed="99.2160" totalEnergyRegenerated="0.0000" actualBatteryCapacity="50.7840" maximumBatteryCapacity="35000.0000" chargingStationId="NULL" energyCharged="0.0000" energyChargedInTransit="0.0000" energyChargedStopped="0.0000" speed="13.8900" acceleration="0.0000" x="-299.7300" y="995.0500" lane="L2_0" posOnLane="200.2700" timeStopped="0"/>
    </timestep>
    <timestep time="57.00">
        <vehicle id="veh0" energyConsumed="1.0465" totalEnergyConsumed="100.2626" totalEnergyRegenerated="0.0000" actualBatteryCapacity="49.7374" maximumBatteryCapacity="35000.0000" chargingStationId="NULL" energyCharged="0.0000" energyChargedInTransit="0.0000" energyChargedStopped="0.0000" speed="13.8900" acceleration="0.0000" x="-285.8400" y="995.0500" lane="L2_0" posOnLane="214.1600" timeStopped="0"/>
    </timestep>
    <timestep time="58.00">
        <vehicle id="veh0" energyConsumed="1.0465" totalEnergyConsumed="101.3091" totalEnergyRegenerated="0.0000" actualBatteryCapacity="48.6909" maximumBatteryCapacity="35000.0000" chargingStationId="NULL" energyCharged="0.0000" energyChargedInTransit="0.0000" energyChargedStopped="0.0000" speed="13.8900" acceleration="0.0000" x="-271.9500" y="995.0500" lane="L2_0" posOnLane="228.0500" timeStopped="0"/>
    </timestep>
    <timestep time="59.00">
        <vehicle id="veh0" energyConsumed="1.0465" totalEnergyConsumed="102.3556" totalEnergyRegenerated="0.0000" actualBatteryCapacity="47.6444" maximumBatteryCapacity="35000.0000" chargingStationId="NULL" energyCharged="0.0000" energyChargedInTransit="0.0000" energyChargedStopped="0.0000" speed="13.8900" acceleration="0.0000" x="-258.0600" y="995.0500" lane="L2_0" posOnLane="241.9400" timeStopped="0"/>
    </timestep>
    <timestep time="60.00">
        <vehicle id="veh0" energyConsumed="1.0465" totalEnergyConsumed="103.4021" totalEnergyRegenerated="0.0000" actualBatteryCapacity="46.5979" maximumBatteryCapacity="35000.0000" chargingStationId="NULL" energyCharged="0.0000" energyChargedInTransit="0.0000" energyChargedStopped="0.0000" speed="13.8900" acceleration="0.0000" x="-244.1700" y="995.0500" lane="L2_0" posOnLane="255.8300" timeStopped="0"/>
    </timestep>
    <timestep time="61.00">
        <vehicle id="veh0" energyConsumed="1.0465" totalEnergyConsumed="104.4487" totalEnergyRegenerated="0.0000" actualBatteryCapacity="45.5513" maximumBatteryCapacity="35000.0000" chargingStationId="NULL" energyCharged="0.0000" energyChargedInTransit="0.0000" energyChargedStopped="0.0000" speed="13.8900" acceleration="0.0000" x="-230.2800" y="995.0500" lane="L2_0" posOnLane="269.7200" timeStopped="0"/>
    </timestep>
    <timestep time="62.00">