<?xml version="1.0" encoding="UTF-8"?>

<!-- generated on 2024-03-25 15:54:32 by Eclipse SUMO sumo Version v1_19_0+1534-05906377cd3
This data file and the accompanying materials
are made available under the terms of the Eclipse Public License v2.0
which accompanies this distribution, and is available at
http://www.eclipse.org/legal/epl-v20.html
This file may also be made available under the following Secondary
Licenses when the conditions for such availability set forth in the Eclipse
Public License 2.0 are satisfied: GNU General Public License, version 2
or later which is available at
https://www.gnu.org/licenses/old-licenses/gpl-2.0-standalone.html
SPDX-License-Identifier: EPL-2.0 OR GPL-2.0-or-later
<configuration xmlns:xsi="http://www.w3.org/2001/XMLSchema-instance" xsi:noNamespaceSchemaLocation="http://sumo.dlr.de/xsd/sumoConfiguration.xsd">

    <input>
        <net-file value="net.net.xml"/>
        <route-files value="input_routes.rou.xml"/>
        <additional-files value="input_additional.add.xml"/>
    </input>

    <output>
        <write-license value="true"/>
    </output>

    <processing>
        <default.speeddev value="0"/>
    </processing>

    <report>
        <xml-validation value="never"/>
        <duration-log.disable value="true"/>
        <no-step-log value="true"/>
    </report>

</configuration>
-->

<tlsStates xmlns:xsi="http://www.w3.org/2001/XMLSchema-instance" xsi:noNamespaceSchemaLocation="http://sumo.dlr.de/xsd/tlsstates_file.xsd">
    <tlsState time="0.00" id="0" programID="actuated_additional" phase="1" state="yyggrrrryyggrrrr"/>
    <tlsState time="4.00" id="0" programID="actuated_additional" phase="2" state="rrGGrrrrrrGGrrrr"/>
    <tlsState time="10.00" id="0" programID="actuated_additional" phase="3" state="rryyrrrrrryyrrrr"/>
    <tlsState time="14.00" id="0" programID="actuated_additional" phase="5" state="rrrryyggrrrryygg"/>
    <tlsState time="18.00" id="0" programID="actuated_additional" phase="7" state="rrrrrryyrrrrrryy"/>
    <tlsState time="22.00" id="0" programID="actuated_additional" phase="1" state="yyggrrrryyggrrrr"/>
    <tlsState time="26.00" id="0" programID="actuated_additional" phase="2" state="rrGGrrrrrrGGrrrr"/>
    <tlsState time="32.00" id="0" programID="actuated_additional" phase="3" state="rryyrrrrrryyrrrr"/>
    <tlsState time="36.00" id="0" programID="actuated_additional" phase="4" state="rrrrGGggrrrrGGgg"/>
    <tlsState time="66.00" id="0" programID="actuated_additional" phase="5" state="rrrryyggrrrryygg"/>
    <tlsState time="70.00" id="0" programID="actuated_additional" phase="7" state="rrrrrryyrrrrrryy"/>
    <tlsState time="74.00" id="0" programID="actuated_additional" phase="0" state="GGggrrrrGGggrrrr"/>
    <tlsState time="88.00" id="0" programID="actuated_additional" phase="1" state="yyggrrrryyggrrrr"/>
    <tlsState time="92.00" id="0" programID="actuated_additional" phase="3" state="rryyrrrrrryyrrrr"/>
    <tlsState time="96.00" id="0" programID="actuated_additional" phase="4" state="rrrrGGggrrrrGGgg"/>
    <tlsState time="111.00" id="0" programID="actuated_additional" phase="5" state="rrrryyggrrrryygg"/>
    <tlsState time="115.00" id="0" programID="actuated_additional" phase="7" state="rrrrrryyrrrrrryy"/>
    <tlsState time="119.00" id="0" programID="actuated_additional" phase="0" state="GGggrrrrGGggrrrr"/>
    <tlsState time="135.00" id="0" programID="actuated_additional" phase="1" state="yyggrrrryyggrrrr"/>
    <tlsState time="139.00" id="0" programID="actuated_additional" phase="3" state="rryyrrrrrryyrrrr"/>
    <tlsState time="143.00" id="0" programID="actuated_additional" phase="4" state="rrrrGGggrrrrGGgg"/>
    <tlsState time="157.00" id="0" programID="actuated_additional" phase="5" state="rrrryyggrrrryygg"/>
    <tlsState time="161.00" id="0" programID="actuated_additional" phase="7" state="rrrrrryyrrrrrryy"/>
    <tlsState time="165.00" id="0" programID="actuated_additional" phase="0" state="GGggrrrrGGggrrrr"/>
    <tlsState time="182.00" id="0" programID="actuated_additional" phase="1" state="yyggrrrryyggrrrr"/>
    <tlsState time="186.00" id="0" programID="actuated_additional" phase="3" state="rryyrrrrrryyrrrr"/>
    <tlsState time="190.00" id="0" programID="actuated_additional" phase="4" state="rrrrGGggrrrrGGgg"/>
    <tlsState time="212.00" id="0" programID="actuated_additional" phase="5" state="rrrryyggrrrryygg"/>
    <tlsState time="216.00" id="0" programID="actuated_additional" phase="7" state="rrrrrryyrrrrrryy"/>
    <tlsState time="220.00" id="0" programID="actuated_additional" phase="0" state="GGggrrrrGGggrrrr"/>
    <tlsState time="236.00" id="0" programID="actuated_additional" phase="1" state="yyggrrrryyggrrrr"/>
    <tlsState time="240.00" id="0" programID="actuated_additional" phase="3" state="rryyrrrrrryyrrrr"/>
    <tlsState time="244.00" id="0" programID="actuated_additional" phase="4" state="rrrrGGggrrrrGGgg"/>
    <tlsState time="266.00" id="0" programID="actuated_additional" phase="5" state="rrrryyggrrrryygg"/>
    <tlsState time="270.00" id="0" programID="actuated_additional" phase="7" state="rrrrrryyrrrrrryy"/>
    <tlsState time="274.00" id="0" programID="actuated_additional" phase="0" state="GGggrrrrGGggrrrr"/>
    <tlsState time="284.00" id="0" programID="actuated_additional" phase="1" state="yyggrrrryyggrrrr"/>
    <tlsState time="288.00" id="0" programID="actuated_additional" phase="3" state="rryyrrrrrryyrrrr"/>
    <tlsState time="292.00" id="0" programID="actuated_additional" phase="4" state="rrrrGGggrrrrGGgg"/>
    <tlsState time="309.00" id="0" programID="actuated_additional" phase="5" state="rrrryyggrrrryygg"/>
    <tlsState time="313.00" id="0" programID="actuated_additional" phase="7" state="rrrrrryyrrrrrryy"/>
    <tlsState time="317.00" id="0" programID="actuated_additional" phase="0" state="GGggrrrrGGggrrrr"/>
    <tlsState time="329.00" id="0" programID="actuated_additional" phase="1" state="yyggrrrryyggrrrr"/>
    <tlsState time="333.00" id="0" programID="actuated_additional" phase="3" state="rryyrrrrrryyrrrr"/>
    <tlsState time="337.00" id="0" programID="actuated_additional" phase="4" state="rrrrGGggrrrrGGgg"/>
    <tlsState time="379.00" id="0" programID="actuated_additional" phase="5" state="rrrryyggrrrryygg"/>
    <tlsState time="383.00" id="0" programID="actuated_additional" phase="7" state="rrrrrryyrrrrrryy"/>
    <tlsState time="387.00" id="0" programID="actuated_additional" phase="0" state="GGggrrrrGGggrrrr"/>
    <tlsState time="406.00" id="0" programID="actuated_additional" phase="1" state="yyggrrrryyggrrrr"/>
    <tlsState time="410.00" id="0" programID="actuated_additional" phase="3" state="rryyrrrrrryyrrrr"/>
    <tlsState time="414.00" id="0" programID="actuated_additional" phase="4" state="rrrrGGggrrrrGGgg"/>
    <tlsState time="439.00" id="0" programID="actuated_additional" phase="5" state="rrrryyggrrrryygg"/>
    <tlsState time="443.00" id="0" programID="actuated_additional" phase="7" state="rrrrrryyrrrrrryy"/>
    <tlsState time="447.00" id="0" programID="actuated_additional" phase="0" state="GGggrrrrGGggrrrr"/>
    <tlsState time="451.00" id="0" programID="actuated_additional" phase="1" state="yyggrrrryyggrrrr"/>
    <tlsState time="455.00" id="0" programID="actuated_additional" phase="2" state="rrGGrrrrrrGGrrrr"/>
    <tlsState time="457.00" id="0" programID="actuated_additional" phase="3" state="rryyrrrrrryyrrrr"/>
    <tlsState time="461.00" id="0" programID="actuated_additional" phase="5" state="rrrryyggrrrryygg"/>
    <tlsState time="465.00" id="0" programID="actuated_additional" phase="7" state="rrrrrryyrrrrrryy"/>
    <tlsState time="469.00" id="0" programID="actuated_additional" phase="1" state="yyggrrrryyggrrrr"/>
    <tlsState time="473.00" id="0" programID="actuated_additional" phase="2" state="rrGGrrrrrrGGrrrr"/>
    <tlsState time="479.00" id="0" programID="actuated_additional" phase="3" state="rryyrrrrrryyrrrr"/>
    <tlsState time="483.00" id="0" programID="actuated_additional" phase="5" state="rrrryyggrrrryygg"/>
    <tlsState time="487.00" id="0" programID="actuated_additional" phase="7" state="rrrrrryyrrrrrryy"/>
    <tlsState time="491.00" id="0" programID="actuated_additional" phase="1" state="yyggrrrryyggrrrr"/>
</tlsStates>
