<?xml version="1.0" encoding="UTF-8"?>

<!-- generated on 2022-10-17 08:37:16 by Eclipse SUMO netedit Version v1_14_1+1773-b11436548cc
-->

<routes xmlns:xsi="http://www.w3.org/2001/XMLSchema-instance" xsi:noNamespaceSchemaLocation="http://sumo.dlr.de/xsd/routes_file.xsd">
    <!-- Vehicles, persons and containers (sorted by depart) -->
    <containerFlow id="cf_0" begin="7.30" end="3600.00" containersPerHour="1800.00">
        <tranship from="gneE2" containerStop="containerStop" departPos="0.00"/>
    </containerFlow>
</routes>
