<?xml version="1.0" encoding="UTF-8"?>

<configuration xmlns:xsi="http://www.w3.org/2001/XMLSchema-instance" xsi:noNamespaceSchemaLocation="https://sumo.dlr.de/xsd/sumoConfiguration.xsd">

    <input>
        <net-file value="input_net.net.xml"/>
        <additional-files value="input_additional.add.xml"/>
        <route-files value="input_routes.rou.xml"/>
    </input>

    <time>
        <begin value="0"/>
        <end value="60"/>
    </time>

    <processing>
        <default.speeddev value="0" /> 
    </processing>

    <report>
        <no-step-log value="true"/>
    </report>

</configuration>
