<?xml version="1.0" encoding="UTF-8"?>

<!-- generated on Thu May 22 16:12:59 2014 by SUMO netconvert Version dev-SVN-r16411
<?xml version="1.0" encoding="UTF-8"?>

<configuration xmlns:xsi="http://www.w3.org/2001/XMLSchema-instance" xsi:noNamespaceSchemaLocation="http://sumo-sim.org/xsd/netconvertConfiguration.xsd">

    <input>
        <node-files value="input_plain.nod.xml"/>
        <edge-files value="input_plain.edg.xml"/>
    </input>

    <output>
        <output-file value="net.net.xml"/>
        <plain-output-prefix value="plain"/>
    </output>

    <processing>
        <offset.disable-normalization value="true"/>
    </processing>

    <report>
        <xml-validation value="never"/>
    </report>

</configuration>
-->

<connections version="0.13" xmlns:xsi="http://www.w3.org/2001/XMLSchema-instance" xsi:noNamespaceSchemaLocation="http://sumo-sim.org/xsd/connections_file.xsd">
    <connection from="CE" to="EC" fromLane="2" toLane="2"/>

    <connection from="CN" to="NC" fromLane="2" toLane="2"/>

    <connection from="CW" to="WC" fromLane="2" toLane="2"/>

    <connection from="EC" to="CN" fromLane="0" toLane="0"/>
    <connection from="EC" to="CW" fromLane="0" toLane="0"/>
    <connection from="EC" to="CW" fromLane="1" toLane="1"/>
    <connection from="EC" to="CW" fromLane="2" toLane="2"/>
    <connection from="EC" to="CE" fromLane="2" toLane="2"/>

    <connection from="NC" to="CW" fromLane="0" toLane="0"/>
    <connection from="NC" to="CE" fromLane="1" toLane="1"/>
    <connection from="NC" to="CE" fromLane="2" toLane="2"/>
    <connection from="NC" to="CN" fromLane="2" toLane="2"/>

    <connection from="WC" to="CE" fromLane="0" toLane="0"/>
    <connection from="WC" to="CE" fromLane="1" toLane="1"/>
    <connection from="WC" to="CE" fromLane="2" toLane="2"/>
    <connection from="WC" to="CN" fromLane="2" toLane="1"/>
    <connection from="WC" to="CN" fromLane="2" toLane="2"/>
    <connection from="WC" to="CW" fromLane="2" toLane="2"/>

</connections>
