<?xml version="1.0" encoding="UTF-8"?>

<!-- generated on 2025-08-01 13:22:23 by Eclipse SUMO netconvert Version v1_24_0+0105-e209ab84cb0
This data file and the accompanying materials
are made available under the terms of the Eclipse Public License v2.0
which accompanies this distribution, and is available at
http://www.eclipse.org/legal/epl-v20.html
This file may also be made available under the following Secondary
Licenses when the conditions for such availability set forth in the Eclipse
Public License 2.0 are satisfied: GNU General Public License, version 2
or later which is available at
https://www.gnu.org/licenses/old-licenses/gpl-2.0-standalone.html
SPDX-License-Identifier: EPL-2.0 OR GPL-2.0-or-later
<netconvertConfiguration xmlns:xsi="http://www.w3.org/2001/XMLSchema-instance" xsi:noNamespaceSchemaLocation="http://sumo.dlr.de/xsd/netconvertConfiguration.xsd">

    <input>
        <osm-files value="osm.xml"/>
    </input>

    <output>
        <write-license value="true"/>
    </output>

    <projection>
        <proj.utm value="true"/>
    </projection>

    <edge_removal>
        <keep-edges.by-vclass value="passenger"/>
    </edge_removal>

    <junctions>
        <junctions.join value="true"/>
    </junctions>

    <report>
        <xml-validation value="never"/>
    </report>

</netconvertConfiguration>
-->

<net version="1.20" junctionCornerDetail="5" limitTurnSpeed="5.50" xmlns:xsi="http://www.w3.org/2001/XMLSchema-instance" xsi:noNamespaceSchemaLocation="http://sumo.dlr.de/xsd/net_file.xsd">

    <location netOffset="-465593.25,-5245835.52" convBoundary="0.00,0.00,106.27,225.37" origBoundary="8.544066,47.362753,8.546669,47.367103" projParameter="+proj=utm +zone=32 +ellps=WGS84 +datum=WGS84 +units=m +no_defs"/>

    <type id="highway.primary" priority="12" numLanes="2" speed="27.78" disallow="tram rail_urban rail rail_electric rail_fast ship container cable_car subway aircraft wheelchair scooter drone" oneway="0"/>
    <type id="highway.primary_link" priority="7" numLanes="1" speed="22.22" disallow="tram rail_urban rail rail_electric rail_fast ship container cable_car subway aircraft wheelchair scooter drone" oneway="0"/>
    <type id="highway.secondary_link" priority="6" numLanes="1" speed="22.22" disallow="tram rail_urban rail rail_electric rail_fast ship container cable_car subway aircraft wheelchair scooter drone" oneway="0"/>

    <edge id=":10836944685_0" function="internal">
        <lane id=":10836944685_0_0" index="0" disallow="tram rail_urban rail rail_electric rail_fast ship container cable_car subway aircraft wheelchair scooter drone" speed="13.89" length="0.30" shape="67.91,143.21 67.99,143.49"/>
    </edge>
    <edge id=":10836944687_0" function="internal">
        <lane id=":10836944687_0_0" index="0" disallow="tram rail_urban rail rail_electric rail_fast ship container cable_car subway aircraft wheelchair scooter drone" speed="13.89" length="0.30" shape="44.49,141.01 44.62,140.74"/>
        <lane id=":10836944687_0_1" index="1" disallow="tram rail_urban rail rail_electric rail_fast ship container cable_car subway aircraft wheelchair scooter drone" speed="13.89" length="0.30" shape="47.36,142.42 47.49,142.16"/>
    </edge>
    <edge id=":156384136_0" function="internal">
        <lane id=":156384136_0_0" index="0" disallow="tram rail_urban rail rail_electric rail_fast ship container cable_car subway aircraft wheelchair scooter drone" speed="10.59" length="6.72" shape="69.34,147.31 70.00,149.20 70.49,150.54 71.27,151.65 72.78,152.85"/>
    </edge>
    <edge id=":156384136_1" function="internal">
        <lane id=":156384136_1_0" index="0" disallow="tram rail_urban rail rail_electric rail_fast ship container cable_car subway aircraft wheelchair scooter drone" speed="13.89" length="6.65" shape="66.40,150.18 68.34,150.90 69.71,151.31 71.02,151.82 72.78,152.85"/>
        <lane id=":156384136_1_1" index="1" disallow="tram rail_urban rail rail_electric rail_fast ship container cable_car subway aircraft wheelchair scooter drone" speed="13.89" length="6.65" shape="65.16,153.13 66.93,153.78 68.19,154.13 69.40,154.58 71.01,155.52"/>
    </edge>
    <edge id=":156385113_0" function="internal">
        <lane id=":156385113_0_0" index="0" disallow="tram rail_urban rail rail_electric rail_fast ship container cable_car subway aircraft wheelchair scooter drone" speed="10.98" length="8.75" shape="65.88,125.15 64.90,127.56 64.36,129.32 64.35,131.09 64.96,133.55"/>
    </edge>
    <edge id=":156385113_1" function="internal">
        <lane id=":156385113_1_0" index="0" disallow="tram rail_urban rail rail_electric rail_fast ship container cable_car subway aircraft wheelchair scooter drone" speed="13.89" length="8.15" shape="65.88,125.15 64.47,126.98 62.73,127.75 61.13,128.57 60.17,130.52"/>
        <lane id=":156385113_1_1" index="1" disallow="tram rail_urban rail rail_electric rail_fast ship container cable_car subway aircraft wheelchair scooter drone" speed="13.89" length="8.15" shape="62.90,123.98 61.49,125.78 59.73,126.49 58.12,127.25 57.15,129.16"/>
    </edge>
    <edge id=":156385113_3" function="internal">
        <lane id=":156385113_3_0" index="0" disallow="tram rail_urban rail rail_electric rail_fast ship container cable_car subway aircraft wheelchair scooter drone" speed="3.65" length="1.44" shape="59.92,122.82 58.73,123.64"/>
    </edge>
    <edge id=":156385113_6" function="internal">
        <lane id=":156385113_6_0" index="0" disallow="tram rail_urban rail rail_electric rail_fast ship container cable_car subway aircraft wheelchair scooter drone" speed="3.65" length="3.23" shape="58.73,123.64 57.84,123.72 57.24,123.06 56.94,121.65"/>
    </edge>
    <edge id=":156385113_4" function="internal">
        <lane id=":156385113_4_0" index="0" disallow="tram rail_urban rail rail_electric rail_fast ship container cable_car subway aircraft wheelchair scooter drone" speed="13.89" length="6.73" shape="50.69,126.25 51.55,124.49 52.33,123.37 53.11,122.25 53.96,120.48"/>
        <lane id=":156385113_4_1" index="1" disallow="tram rail_urban rail rail_electric rail_fast ship container cable_car subway aircraft wheelchair scooter drone" speed="13.89" length="6.73" shape="53.61,127.57 54.49,125.76 55.28,124.61 56.07,123.46 56.94,121.65"/>
    </edge>
    <edge id=":2114258_0" function="internal">
        <lane id=":2114258_0_0" index="0" disallow="tram rail_urban rail rail_electric rail_fast ship container cable_car subway aircraft wheelchair scooter drone" speed="13.89" length="0.26" shape="46.23,137.50 46.28,137.38"/>
        <lane id=":2114258_0_1" index="1" disallow="tram rail_urban rail rail_electric rail_fast ship container cable_car subway aircraft wheelchair scooter drone" speed="13.89" length="0.26" shape="49.09,138.92 49.26,138.56"/>
    </edge>
    <edge id=":300386717_0" function="internal">
        <lane id=":300386717_0_0" index="0" disallow="tram rail_urban rail rail_electric rail_fast ship container cable_car subway aircraft wheelchair scooter drone" speed="13.89" length="0.30" shape="26.50,203.56 26.30,203.77"/>
        <lane id=":300386717_0_1" index="1" disallow="tram rail_urban rail rail_electric rail_fast ship container cable_car subway aircraft wheelchair scooter drone" speed="13.89" length="0.30" shape="24.25,201.29 24.03,201.50"/>
    </edge>
    <edge id=":300390875_0" function="internal">
        <lane id=":300390875_0_0" index="0" disallow="tram rail_urban rail rail_electric rail_fast ship container cable_car subway aircraft wheelchair scooter drone" speed="13.89" length="0.29" shape="66.72,139.18 66.80,139.46"/>
    </edge>
    <edge id=":383074942_0" function="internal">
        <lane id=":383074942_0_0" index="0" disallow="tram rail_urban rail rail_electric rail_fast ship container cable_car subway aircraft wheelchair scooter drone" speed="13.89" length="0.26" shape="37.76,154.51 37.86,154.32"/>
        <lane id=":383074942_0_1" index="1" disallow="tram rail_urban rail rail_electric rail_fast ship container cable_car subway aircraft wheelchair scooter drone" speed="13.89" length="0.26" shape="40.58,156.02 40.72,155.75"/>
    </edge>
    <edge id=":6052666719_0" function="internal">
        <lane id=":6052666719_0_0" index="0" disallow="tram rail_urban rail rail_electric rail_fast ship container cable_car subway aircraft wheelchair scooter drone" speed="13.89" length="0.74" shape="57.01,161.65 56.94,161.97 56.88,162.19 56.79,162.40 56.65,162.69"/>
        <lane id=":6052666719_0_1" index="1" disallow="tram rail_urban rail rail_electric rail_fast ship container cable_car subway aircraft wheelchair scooter drone" speed="13.89" length="0.74" shape="53.89,160.97 53.86,161.07 53.84,161.15 53.81,161.22 53.77,161.32"/>
    </edge>
    <edge id=":94580802_0" function="internal">
        <lane id=":94580802_0_0" index="0" disallow="tram rail_urban rail rail_electric rail_fast ship container cable_car subway aircraft wheelchair scooter drone" speed="3.65" length="4.67" shape="104.78,-0.58 105.96,-1.41 106.85,-1.49 107.45,-0.83 107.76,0.58"/>
    </edge>
    <edge id=":cluster_10836944686_156384137_156384139_300386714_#2more_0" function="internal">
        <lane id=":cluster_10836944686_156384137_156384139_300386714_#2more_0_0" index="0" disallow="tram rail_urban rail rail_electric rail_fast ship container cable_car subway aircraft wheelchair scooter drone" speed="13.89" length="20.71" shape="59.42,135.76 59.09,141.84 59.19,146.23 59.08,150.59 58.12,156.57"/>
        <lane id=":cluster_10836944686_156384137_156384139_300386714_#2more_0_1" index="1" disallow="tram rail_urban rail rail_electric rail_fast ship container cable_car subway aircraft wheelchair scooter drone" speed="13.89" length="20.71" shape="56.24,135.44 55.91,141.46 56.03,145.73 55.94,149.97 54.99,155.88"/>
    </edge>
    <edge id=":cluster_10836944686_156384137_156384139_300386714_#2more_2" function="internal">
        <lane id=":cluster_10836944686_156384137_156384139_300386714_#2more_2_0" index="0" disallow="tram rail_urban rail rail_electric rail_fast ship container cable_car subway aircraft wheelchair scooter drone" speed="13.89" length="3.51" shape="36.21,151.79 37.68,154.66"/>
        <lane id=":cluster_10836944686_156384137_156384139_300386714_#2more_2_1" index="1" disallow="tram rail_urban rail rail_electric rail_fast ship container cable_car subway aircraft wheelchair scooter drone" speed="13.89" length="3.51" shape="39.52,152.51 40.50,156.17"/>
    </edge>
    <edge id=":cluster_10836944686_156384137_156384139_300386714_#2more_4" function="internal">
        <lane id=":cluster_10836944686_156384137_156384139_300386714_#2more_4_0" index="0" disallow="tram rail_urban rail rail_electric rail_fast ship container cable_car subway aircraft wheelchair scooter drone" speed="11.24" length="12.92" shape="42.82,153.23 46.65,149.14 51.80,147.25 53.63,147.34"/>
        <lane id=":cluster_10836944686_156384137_156384139_300386714_#2more_4_1" index="1" disallow="tram rail_urban rail rail_electric rail_fast ship container cable_car subway aircraft wheelchair scooter drone" speed="10.04" length="8.53" shape="46.13,153.95 48.91,151.24 52.96,150.18 53.42,150.23"/>
    </edge>
    <edge id=":cluster_10836944686_156384137_156384139_300386714_#2more_6" function="internal">
        <lane id=":cluster_10836944686_156384137_156384139_300386714_#2more_6_0" index="0" allow="bus" speed="5.75" length="9.77" shape="46.13,153.95 49.07,151.11 51.53,150.49 53.50,152.08 53.72,152.64"/>
    </edge>
    <edge id=":cluster_10836944686_156384137_156384139_300386714_#2more_7" function="internal">
        <lane id=":cluster_10836944686_156384137_156384139_300386714_#2more_7_0" index="0" disallow="tram rail_urban rail rail_electric rail_fast ship container cable_car subway aircraft wheelchair scooter drone" speed="11.24" length="12.87" shape="53.63,147.34 58.29,147.56 66.11,150.06"/>
        <lane id=":cluster_10836944686_156384137_156384139_300386714_#2more_7_1" index="0" disallow="tram rail_urban rail rail_electric rail_fast ship container cable_car subway aircraft wheelchair scooter drone" speed="10.04" length="11.84" shape="53.42,150.23 58.28,150.77 64.86,153.00"/>
    </edge>
    <edge id=":cluster_10836944686_156384137_156384139_300386714_#2more_8" function="internal">
        <lane id=":cluster_10836944686_156384137_156384139_300386714_#2more_8_0" index="0" allow="bus" speed="5.75" length="3.48" shape="53.72,152.64 54.99,155.88"/>
    </edge>

    <edge id="-27361348" from="94580802" to="156385113" priority="12" type="highway.primary" shape="106.27,0.00 104.56,4.37 62.47,111.90">
        <lane id="-27361348_0" index="0" disallow="tram rail_urban rail rail_electric rail_fast ship container cable_car subway aircraft wheelchair scooter drone" speed="13.89" length="131.26" shape="113.72,2.92 112.01,7.29 65.88,125.15"/>
        <lane id="-27361348_1" index="1" disallow="tram rail_urban rail rail_electric rail_fast ship container cable_car subway aircraft wheelchair scooter drone" speed="13.89" length="131.26" shape="110.74,1.75 109.03,6.12 62.90,123.98"/>
        <lane id="-27361348_2" index="2" disallow="tram rail_urban rail rail_electric rail_fast ship container cable_car subway aircraft wheelchair scooter drone" speed="13.89" length="131.26" shape="107.76,0.58 106.05,4.95 59.92,122.82"/>
        <param key="ref" value="17"/>
    </edge>
    <edge id="141506878#1" from="cluster_10836944686_156384137_156384139_300386714_#2more" to="156384136" priority="7" type="highway.primary_link" spreadType="center" shape="63.03,150.49 72.16,154.36">
        <lane id="141506878#1_0" index="0" disallow="tram rail_urban rail rail_electric rail_fast ship container cable_car subway aircraft wheelchair scooter drone" speed="13.89" length="0.32" shape="66.11,150.06 66.40,150.18"/>
        <lane id="141506878#1_1" index="1" disallow="tram rail_urban rail rail_electric rail_fast ship container cable_car subway aircraft wheelchair scooter drone" speed="13.89" length="0.32" shape="64.86,153.00 65.16,153.13"/>
    </edge>
    <edge id="27361348" from="156385113" to="94580802" priority="12" type="highway.primary" shape="62.47,111.90 104.56,4.37 106.27,0.00">
        <lane id="27361348_0" index="0" disallow="tram rail_urban rail rail_electric rail_fast ship container cable_car subway aircraft wheelchair scooter drone" speed="13.89" length="131.26" shape="53.96,120.48 100.09,2.62 101.80,-1.75"/>
        <lane id="27361348_1" index="1" disallow="tram rail_urban rail rail_electric rail_fast ship container cable_car subway aircraft wheelchair scooter drone" speed="13.89" length="131.26" shape="56.94,121.65 103.07,3.79 104.78,-0.58"/>
        <param key="ref" value="17"/>
    </edge>
    <edge id="27361375#0" from="156385113" to="cluster_10836944686_156384137_156384139_300386714_#2more" priority="6" type="highway.secondary_link" spreadType="center" shape="65.59,112.59 59.16,126.84 58.04,133.53 57.42,139.58">
        <lane id="27361375#0_0" index="0" disallow="tram rail_urban rail rail_electric rail_fast ship container cable_car subway aircraft wheelchair scooter drone" speed="13.89" length="5.82" shape="60.17,130.52 59.63,133.74 59.42,135.76"/>
        <lane id="27361375#0_1" index="1" disallow="tram rail_urban rail rail_electric rail_fast ship container cable_car subway aircraft wheelchair scooter drone" speed="13.89" length="5.82" shape="57.15,129.16 56.45,133.32 56.24,135.44"/>
    </edge>
    <edge id="361838934#0" from="cluster_10836944686_156384137_156384139_300386714_#2more" to="6052666719" priority="6" type="highway.secondary_link" spreadType="center" shape="57.25,149.74 56.65,155.80 55.37,161.67">
        <lane id="361838934#0_0" index="0" disallow="tram rail_urban rail rail_electric rail_fast ship container cable_car subway aircraft wheelchair scooter drone" speed="13.89" length="5.20" shape="58.12,156.57 57.01,161.65"/>
        <lane id="361838934#0_1" index="1" disallow="tram rail_urban rail rail_electric rail_fast ship container cable_car subway aircraft wheelchair scooter drone" speed="13.89" length="5.20" shape="54.99,155.88 53.89,160.97"/>
    </edge>
    <edge id="361838934#1" from="6052666719" to="300386717" priority="6" type="highway.secondary_link" spreadType="center" shape="55.37,161.67 51.87,169.00 47.36,176.65 40.37,185.67 29.66,198.20 25.27,202.53">
        <lane id="361838934#1_0" index="0" disallow="tram rail_urban rail rail_electric rail_fast ship container cable_car subway aircraft wheelchair scooter drone" speed="13.89" length="50.54" shape="56.65,162.69 53.28,169.75 48.69,177.55 41.61,186.68 30.83,199.29 26.50,203.56"/>
        <lane id="361838934#1_1" index="1" disallow="tram rail_urban rail rail_electric rail_fast ship container cable_car subway aircraft wheelchair scooter drone" speed="13.89" length="50.54" shape="53.77,161.32 50.46,168.25 46.03,175.75 39.13,184.66 28.49,197.11 24.25,201.29"/>
    </edge>
    <edge id="361838934#2" from="300386717" to="3017726326" priority="6" type="highway.secondary_link" spreadType="center" shape="25.27,202.53 19.04,208.77 14.82,213.28 9.14,218.61 4.94,222.53 2.47,224.24 0.00,225.37">
        <lane id="361838934#2_0" index="0" disallow="tram rail_urban rail rail_electric rail_fast ship container cable_car subway aircraft wheelchair scooter drone" speed="13.89" length="34.10" shape="26.30,203.77 20.19,209.88 15.95,214.41 10.23,219.78 5.95,223.78 3.26,225.64 0.67,226.82"/>
        <lane id="361838934#2_1" index="1" disallow="tram rail_urban rail rail_electric rail_fast ship container cable_car subway aircraft wheelchair scooter drone" speed="13.89" length="34.10" shape="24.03,201.50 17.89,207.66 13.69,212.15 8.05,217.44 3.93,221.28 1.68,222.84 -0.67,223.92"/>
    </edge>
    <edge id="374407128" from="156384136" to="917982633" priority="12" type="highway.primary" spreadType="center">
        <lane id="374407128_0" index="0" disallow="tram rail_urban rail rail_electric rail_fast ship container cable_car subway aircraft wheelchair scooter drone" speed="13.89" length="36.30" shape="72.78,152.85 103.04,172.91"/>
        <lane id="374407128_1" index="1" disallow="tram rail_urban rail rail_electric rail_fast ship container cable_car subway aircraft wheelchair scooter drone" speed="13.89" length="36.30" shape="71.01,155.52 101.28,175.57"/>
        <param key="ref" value="17"/>
    </edge>
    <edge id="374407129#0" from="383074942" to="10836944687" priority="12" type="highway.primary" spreadType="center" shape="39.23,155.15 44.07,145.47 45.99,141.58">
        <lane id="374407129#0_0" index="0" disallow="tram rail_urban rail rail_electric rail_fast ship container cable_car subway aircraft wheelchair scooter drone" speed="13.89" length="14.88" shape="37.86,154.32 42.64,144.76 44.49,141.01"/>
        <lane id="374407129#0_1" index="1" disallow="tram rail_urban rail rail_electric rail_fast ship container cable_car subway aircraft wheelchair scooter drone" speed="13.89" length="14.88" shape="40.72,155.75 45.50,146.18 47.36,142.42"/>
        <param key="ref" value="17"/>
    </edge>
    <edge id="374407129#1" from="10836944687" to="2114258" priority="12" type="highway.primary" spreadType="center">
        <lane id="374407129#1_0" index="0" disallow="tram rail_urban rail rail_electric rail_fast ship container cable_car subway aircraft wheelchair scooter drone" speed="13.89" length="3.61" shape="44.62,140.74 46.23,137.50"/>
        <lane id="374407129#1_1" index="1" disallow="tram rail_urban rail rail_electric rail_fast ship container cable_car subway aircraft wheelchair scooter drone" speed="13.89" length="3.61" shape="47.49,142.16 49.09,138.92"/>
        <param key="ref" value="17"/>
    </edge>
    <edge id="374407129#2" from="2114258" to="156385113" priority="12" type="highway.primary" spreadType="center" shape="47.72,138.09 53.42,123.72 56.74,118.75 60.02,109.85">
        <lane id="374407129#2_0" index="0" disallow="tram rail_urban rail rail_electric rail_fast ship container cable_car subway aircraft wheelchair scooter drone" speed="13.89" length="11.89" shape="46.28,137.38 50.69,126.25"/>
        <lane id="374407129#2_1" index="1" disallow="tram rail_urban rail rail_electric rail_fast ship container cable_car subway aircraft wheelchair scooter drone" speed="13.89" length="11.89" shape="49.26,138.56 53.61,127.57"/>
        <param key="ref" value="17"/>
    </edge>
    <edge id="4479836#0" from="156385113" to="300390875" priority="12" type="highway.primary" spreadType="center" shape="62.47,111.90 64.61,132.45 66.76,139.32">
        <lane id="4479836#0_0" index="0" disallow="tram rail_urban rail rail_electric rail_fast ship container cable_car subway aircraft wheelchair scooter drone" speed="13.89" length="5.90" shape="64.96,133.55 66.72,139.18"/>
        <param key="ref" value="17"/>
    </edge>
    <edge id="4479836#1" from="300390875" to="10836944685" priority="12" type="highway.primary" spreadType="center">
        <lane id="4479836#1_0" index="0" disallow="tram rail_urban rail rail_electric rail_fast ship container cable_car subway aircraft wheelchair scooter drone" speed="13.89" length="3.91" shape="66.80,139.46 67.91,143.21"/>
        <param key="ref" value="17"/>
    </edge>
    <edge id="4479836#2" from="10836944685" to="156384136" priority="12" type="highway.primary" spreadType="center" shape="67.95,143.35 68.49,145.19 72.16,154.36">
        <lane id="4479836#2_0" index="0" disallow="tram rail_urban rail rail_electric rail_fast ship container cable_car subway aircraft wheelchair scooter drone" speed="13.89" length="4.05" shape="67.99,143.49 68.49,145.19 69.34,147.31"/>
        <param key="ref" value="17"/>
    </edge>
    <edge id="69537613" from="2114260" to="cluster_10836944686_156384137_156384139_300386714_#2more" priority="12" type="highway.primary" spreadType="center" shape="20.68,186.50 35.32,162.47">
        <lane id="69537613_0" index="0" disallow="tram rail_urban rail rail_electric rail_fast ship container cable_car subway aircraft wheelchair scooter drone" speed="13.89" length="39.38" shape="16.58,184.00 36.21,151.79"/>
        <lane id="69537613_1" index="1" disallow="tram rail_urban rail rail_electric rail_fast ship container cable_car subway aircraft wheelchair scooter drone" speed="13.89" length="39.38" shape="19.31,185.67 39.52,152.51"/>
        <lane id="69537613_2" index="2" disallow="tram rail_urban rail rail_electric rail_fast ship container cable_car subway aircraft wheelchair scooter drone" speed="13.89" length="39.38" shape="22.05,187.33 42.82,153.23"/>
        <lane id="69537613_3" index="3" disallow="tram rail_urban rail rail_electric rail_fast ship container cable_car subway aircraft wheelchair scooter drone" speed="13.89" length="39.38" shape="24.78,189.00 46.13,153.95"/>
        <param key="ref" value="17"/>
    </edge>
    <edge id="854904053" from="cluster_10836944686_156384137_156384139_300386714_#2more" to="383074942" priority="12" type="highway.primary" spreadType="center" shape="35.32,162.47 39.23,155.15">
        <lane id="854904053_0" index="0" disallow="tram rail_urban rail rail_electric rail_fast ship container cable_car subway aircraft wheelchair scooter drone" speed="13.89" length="0.17" shape="37.68,154.66 37.76,154.51"/>
        <lane id="854904053_1" index="1" disallow="tram rail_urban rail rail_electric rail_fast ship container cable_car subway aircraft wheelchair scooter drone" speed="13.89" length="0.17" shape="40.50,156.17 40.58,156.02"/>
        <param key="ref" value="17"/>
    </edge>

    <tlLogic id="2114258" type="static" programID="0" offset="0">
        <phase duration="82" state="GG"/>
        <phase duration="3"  state="yy"/>
        <phase duration="5"  state="rr"/>
    </tlLogic>
    <tlLogic id="300386717" type="static" programID="0" offset="0">
        <phase duration="82" state="GG"/>
        <phase duration="3"  state="yy"/>
        <phase duration="5"  state="rr"/>
    </tlLogic>
    <tlLogic id="300390875" type="static" programID="0" offset="0">
        <phase duration="82" state="G"/>
        <phase duration="3"  state="y"/>
        <phase duration="5"  state="r"/>
    </tlLogic>
    <tlLogic id="94580802" type="static" programID="0" offset="0">
        <phase duration="82" state="G"/>
        <phase duration="3"  state="y"/>
        <phase duration="5"  state="r"/>
    </tlLogic>
    <tlLogic id="cluster_10836944686_156384137_156384139_300386714_#2more" type="static" programID="0" offset="0">
        <phase duration="78" state="GGGGggg"/>
        <phase duration="3"  state="yyGGggg"/>
        <phase duration="6"  state="rrGGGGG"/>
        <phase duration="3"  state="rrGGyyy"/>
    </tlLogic>

    <junction id="10836944685" type="priority" x="67.95" y="143.35" incLanes="4479836#1_0" intLanes=":10836944685_0_0" shape="66.46,143.94 69.53,143.04 69.44,142.75 66.37,143.66">
        <request index="0" response="0" foes="0" cont="0"/>
    </junction>
    <junction id="10836944687" type="priority" x="45.99" y="141.58" incLanes="374407129#0_0 374407129#0_1" intLanes=":10836944687_0_0 :10836944687_0_1" shape="48.92,142.87 43.19,140.02 43.05,140.30 48.79,143.13">
        <request index="0" response="00" foes="00" cont="0"/>
        <request index="1" response="00" foes="00" cont="0"/>
    </junction>
    <junction id="156384136" type="priority" x="72.16" y="154.36" incLanes="4479836#2_0 141506878#1_0 141506878#1_1" intLanes=":156384136_0_0 :156384136_1_0 :156384136_1_1" shape="70.13,156.85 73.66,151.52 72.12,150.16 71.76,149.51 71.50,148.77 71.23,147.86 70.82,146.71 67.85,147.90 68.01,148.61 67.92,148.80 67.73,148.88 67.43,148.85 67.03,148.71 64.53,154.60 66.66,155.34 67.43,155.54 68.18,155.79 69.03,156.19">
        <request index="0" response="000" foes="110" cont="0"/>
        <request index="1" response="001" foes="001" cont="0"/>
        <request index="2" response="001" foes="001" cont="0"/>
    </junction>
    <junction id="156385113" type="priority" x="62.47" y="111.90" incLanes="-27361348_0 -27361348_1 -27361348_2 374407129#2_0 374407129#2_1" intLanes=":156385113_0_0 :156385113_1_0 :156385113_1_1 :156385113_6_0 :156385113_4_0 :156385113_4_1" shape="63.33,133.73 66.58,133.38 65.96,130.56 66.02,129.52 66.28,128.49 66.74,127.29 67.36,125.73 52.47,119.90 51.37,122.06 50.34,123.44 49.81,124.33 49.23,125.60 61.67,131.20 61.99,130.68 62.24,130.93 62.55,131.52 62.91,132.45">
        <request index="0" response="000000" foes="000000" cont="0"/>
        <request index="1" response="000000" foes="000000" cont="0"/>
        <request index="2" response="000000" foes="000000" cont="0"/>
        <request index="3" response="110000" foes="110000" cont="1"/>
        <request index="4" response="000000" foes="001000" cont="0"/>
        <request index="5" response="000000" foes="001000" cont="0"/>
    </junction>
    <junction id="2114258" type="traffic_light" x="47.72" y="138.09" incLanes="374407129#1_0 374407129#1_1" intLanes=":2114258_0_0 :2114258_0_1" shape="50.74,139.15 44.79,136.79 50.53,139.63">
        <request index="0" response="00" foes="00" cont="0"/>
        <request index="1" response="00" foes="00" cont="0"/>
    </junction>
    <junction id="2114260" type="dead_end" x="20.68" y="186.50" incLanes="" intLanes="" shape="26.15,189.83 15.21,183.17"/>
    <junction id="300386717" type="traffic_light" x="25.27" y="202.53" incLanes="361838934#1_0 361838934#1_1" intLanes=":300386717_0_0 :300386717_0_1" shape="27.62,204.70 23.13,200.15 22.90,200.37 27.43,204.90">
        <request index="0" response="00" foes="00" cont="0"/>
        <request index="1" response="00" foes="00" cont="0"/>
    </junction>
    <junction id="300390875" type="traffic_light" x="66.76" y="139.32" incLanes="4479836#0_0" intLanes=":300390875_0_0" shape="65.27,139.91 68.34,139.00 68.24,138.71 65.19,139.66">
        <request index="0" response="0" foes="0" cont="0"/>
    </junction>
    <junction id="3017726326" type="dead_end" x="0.00" y="225.37" incLanes="361838934#2_0 361838934#2_1" intLanes="" shape="1.33,228.28 -1.33,222.46"/>
    <junction id="383074942" type="priority" x="39.23" y="155.15" incLanes="854904053_0 854904053_1" intLanes=":383074942_0_0 :383074942_0_1" shape="42.15,156.46 36.43,153.60 36.35,153.76 41.99,156.77">
        <request index="0" response="00" foes="00" cont="0"/>
        <request index="1" response="00" foes="00" cont="0"/>
    </junction>
    <junction id="6052666719" type="priority" x="55.37" y="161.67" incLanes="361838934#0_0 361838934#0_1" intLanes=":6052666719_0_0 :6052666719_0_1" shape="58.58,161.99 52.32,160.63 58.10,163.38 58.33,162.89 58.40,162.71 58.45,162.52 58.51,162.30">
        <request index="0" response="00" foes="00" cont="0"/>
        <request index="1" response="00" foes="00" cont="0"/>
    </junction>
    <junction id="917982633" type="dead_end" x="102.16" y="174.24" incLanes="374407128_0 374407128_1" intLanes="" shape="103.93,171.57 100.39,176.91"/>
    <junction id="94580802" type="traffic_light" x="106.27" y="0.00" incLanes="27361348_0 27361348_1" intLanes=":94580802_0_0" shape="106.27,0.00 100.31,-2.33 106.27,0.00">
        <request index="0" response="0" foes="0" cont="0"/>
    </junction>
    <junction id="cluster_10836944686_156384137_156384139_300386714_#2more" type="traffic_light" x="53.26" y="149.46" incLanes="27361375#0_0 27361375#0_1 69537613_0 69537613_1 69537613_2 69537613_3" intLanes=":cluster_10836944686_156384137_156384139_300386714_#2more_0_0 :cluster_10836944686_156384137_156384139_300386714_#2more_0_1 :cluster_10836944686_156384137_156384139_300386714_#2more_2_0 :cluster_10836944686_156384137_156384139_300386714_#2more_2_1 :cluster_10836944686_156384137_156384139_300386714_#2more_7_0 :cluster_10836944686_156384137_156384139_300386714_#2more_7_1 :cluster_10836944686_156384137_156384139_300386714_#2more_8_0" shape="64.24,154.48 66.73,148.58 64.71,147.44 63.11,145.91 61.94,143.99 61.20,141.69 60.89,139.00 61.01,135.93 54.64,135.27 41.91,156.92 36.27,153.91 34.55,151.43 59.68,156.91 60.58,154.86 61.26,154.30 62.09,154.05 63.09,154.11">