<additional xmlns:xsi="http://www.w3.org/2001/XMLSchema-instance" xsi:noNamespaceSchemaLocation="https://sumo.dlr.de/xsd/additional_file.xsd">

	<!-- Calibrator with vehicleTypes -->
	<calibrator id="laneCalibratorVehicleTypes" lane="gneE0_0" pos="10.00" freq="100.00" output="laneCalibratorVehicleTypes.txt">
	
		<!-- non valid (empty) -->
		<vType id="type01"/>
		
		<!-- non valid (dummy) -->
		<vType id="type02" decel="dummyDecel"/>
		
		<!-- non valid (negative) -->
		<vType id="type03" decel="-12"/>
		
		<!-- valid -->
		<vType id="type04" decel="2.5"/>
		
	</calibrator>
	
</additional>
