<?xml version="1.0" encoding="UTF-8"?>

<!-- generated on Fri Nov 10 14:24:25 2017 by SUMO netconvert Version v0_31_0-1066-g5500226
<?xml version="1.0" encoding="UTF-8"?>

<configuration xmlns:xsi="http://www.w3.org/2001/XMLSchema-instance" xsi:noNamespaceSchemaLocation="http://sumo.dlr.de/xsd/netconvertConfiguration.xsd">

    <input>
        <sumo-net-file value="input_net.net.xml"/>
    </input>

    <output>
        <plain-output-prefix value="plain"/>
        <output.street-names value="true"/>
    </output>

    <processing>
        <no-turnarounds value="true"/>
        <offset.disable-normalization value="true"/>
        <lefthand value="false"/>
        <junctions.corner-detail value="0"/>
        <rectangular-lane-cut value="false"/>
        <crossings.guess value="true"/>
        <walkingareas value="false"/>
    </processing>

    <report>
        <xml-validation value="never"/>
    </report>

</configuration>
-->

<connections version="0.27" xmlns:xsi="http://www.w3.org/2001/XMLSchema-instance" xsi:noNamespaceSchemaLocation="http://sumo.dlr.de/xsd/connections_file.xsd">
    <connection from="-24912713#0"/>

    <connection from="24912713#0"/>

    <connection from="5088350" to="24912713#0" fromLane="0" toLane="0"/>
    <connection from="5088350" to="24912713#0" fromLane="0" toLane="1"/>

</connections>
