<?xml version="1.0" encoding="UTF-8"?>

<!-- generated on Sun Sep  2 10:34:25 2018 by Eclipse SUMO netconvert Version d6cfaccbb6
<configuration xmlns:xsi="http://www.w3.org/2001/XMLSchema-instance" xsi:noNamespaceSchemaLocation="http://sumo.dlr.de/xsd/netconvertConfiguration.xsd">

    <input>
        <node-files value=".\netedit\shapeElements\poi\load\input_net.nod.xml"/>
        <edge-files value=".\netedit\shapeElements\poi\load\input_net.edg.xml"/>
        <connection-files value=".\netedit\shapeElements\poi\load\input_net.con.xml"/>
        <tllogic-files value=".\netedit\shapeElements\poi\load\input_net.tll.xml"/>
    </input>

    <output>
        <output-file value=".\netedit\shapeElements\poi\load\input_net.net.xml"/>
    </output>

    <report>
        <verbose value="true"/>
    </report>

</configuration>
-->

<net version="1.0" junctionCornerDetail="5" limitTurnSpeed="5.50" xmlns:xsi="http://www.w3.org/2001/XMLSchema-instance" xsi:noNamespaceSchemaLocation="http://sumo.dlr.de/xsd/net_file.xsd">

    <location netOffset="20.00,20.00" convBoundary="0.00,0.00,30.00,30.00" origBoundary="-10000000000.00,-10000000000.00,10000000000.00,10000000000.00" projParameter="!"/>

    <edge id=":gneJ0_0" function="internal">
        <lane id=":gneJ0_0_0" index="0" speed="6.08" length="7.74" shape="3.20,31.60 1.10,31.30 -0.40,30.40 -1.30,28.90 -1.60,26.80"/>
    </edge>
    <edge id=":gneJ0_1" function="internal">
        <lane id=":gneJ0_1_0" index="0" speed="3.90" length="2.58" shape="1.60,26.80 1.70,27.50 2.00,28.00 2.50,28.30 3.20,28.40"/>
    </edge>
    <edge id=":gneJ1_0" function="internal">
        <lane id=":gneJ1_0_0" index="0" speed="6.08" length="7.74" shape="-1.60,3.20 -1.30,1.10 -0.40,-0.40 1.10,-1.30 3.20,-1.60"/>
    </edge>
    <edge id=":gneJ1_1" function="internal">
        <lane id=":gneJ1_1_0" index="0" speed="3.90" length="2.58" shape="3.20,1.60 2.50,1.70 2.00,2.00 1.70,2.50 1.60,3.20"/>
    </edge>
    <edge id=":gneJ2_0" function="internal">
        <lane id=":gneJ2_0_0" index="0" speed="3.90" length="2.58" shape="28.40,3.20 28.30,2.50 28.00,2.00 27.50,1.70 26.80,1.60"/>
    </edge>
    <edge id=":gneJ2_1" function="internal">
        <lane id=":gneJ2_1_0" index="0" speed="6.08" length="7.74" shape="26.80,-1.60 28.90,-1.30 30.40,-0.40 31.30,1.10 31.60,3.20"/>
    </edge>
    <edge id=":gneJ3_0" function="internal">
        <lane id=":gneJ3_0_0" index="0" speed="6.08" length="7.74" shape="31.60,26.80 31.30,28.90 30.40,30.40 28.90,31.30 26.80,31.60"/>
    </edge>
    <edge id=":gneJ3_1" function="internal">
        <lane id=":gneJ3_1_0" index="0" speed="3.90" length="2.58" shape="26.80,28.40 27.50,28.30 28.00,28.00 28.30,27.50 28.40,26.80"/>
    </edge>

    <edge id="gneE0" from="gneJ0" to="gneJ1" priority="1">
        <lane id="gneE0_0" index="0" speed="13.89" length="23.60" shape="-1.60,26.80 -1.60,3.20"/>
    </edge>
    <edge id="gneE1" from="gneJ1" to="gneJ2" priority="1">
        <lane id="gneE1_0" index="0" speed="13.89" length="23.60" shape="3.20,-1.60 26.80,-1.60"/>
    </edge>
    <edge id="gneE2" from="gneJ2" to="gneJ3" priority="1">
        <lane id="gneE2_0" index="0" speed="13.89" length="23.60" shape="31.60,3.20 31.60,26.80"/>
    </edge>
    <edge id="gneE3" from="gneJ3" to="gneJ0" priority="1">
        <lane id="gneE3_0" index="0" speed="13.89" length="23.60" shape="26.80,31.60 3.20,31.60"/>
    </edge>
    <edge id="gneE4" from="gneJ1" to="gneJ0" priority="1">
        <lane id="gneE4_0" index="0" speed="13.89" length="23.60" shape="1.60,3.20 1.60,26.80"/>
    </edge>
    <edge id="gneE6" from="gneJ0" to="gneJ3" priority="1">
        <lane id="gneE6_0" index="0" speed="13.89" length="23.60" shape="3.20,28.40 26.80,28.40"/>
    </edge>
    <edge id="gneE7" from="gneJ3" to="gneJ2" priority="1">
        <lane id="gneE7_0" index="0" speed="13.89" length="23.60" shape="28.40,26.80 28.40,3.20"/>
    </edge>
    <edge id="gneE8" from="gneJ2" to="gneJ1" priority="1">
        <lane id="gneE8_0" index="0" speed="13.89" length="23.60" shape="26.80,1.60 3.20,1.60"/>
    </edge>

    <junction id="gneJ0" type="priority" x="0.00" y="30.00" incLanes="gneE3_0 gneE4_0" intLanes=":gneJ0_0_0 :gneJ0_1_0" shape="3.20,33.20 3.20,26.80 -3.20,26.80 -2.49,30.36 -1.60,31.60 -0.36,32.49 1.24,33.02">
        <request index="0" response="00" foes="00" cont="0"/>
        <request index="1" response="00" foes="00" cont="0"/>
    </junction>
    <junction id="gneJ1" type="priority" x="0.00" y="0.00" incLanes="gneE0_0 gneE8_0" intLanes=":gneJ1_0_0 :gneJ1_1_0" shape="-3.20,3.20 3.20,3.20 3.20,-3.20 -0.36,-2.49 -1.60,-1.60 -2.49,-0.36 -3.02,1.24">
        <request index="0" response="00" foes="00" cont="0"/>
        <request index="1" response="00" foes="00" cont="0"/>
    </junction>
    <junction id="gneJ2" type="priority" x="30.00" y="0.00" incLanes="gneE7_0 gneE1_0" intLanes=":gneJ2_0_0 :gneJ2_1_0" shape="26.80,3.20 33.20,3.20 32.49,-0.36 31.60,-1.60 30.36,-2.49 28.76,-3.02 26.80,-3.20">
        <request index="0" response="00" foes="00" cont="0"/>
        <request index="1" response="00" foes="00" cont="0"/>
    </junction>
    <junction id="gneJ3" type="priority" x="30.00" y="30.00" incLanes="gneE2_0 gneE6_0" intLanes=":gneJ3_0_0 :gneJ3_1_0" shape="33.20,26.80 26.80,26.80 26.80,33.20 30.36,32.49 31.60,31.60 32.49,30.36 33.02,28.76">
        <request index="0" response="00" foes="00" cont="0"/>
        <request index="1" response="00" foes="00" cont="0"/>
    </junction>

    <connection from="gneE0" to="gneE1" fromLane="0" toLane="0" via=":gneJ1_0_0" dir="l" state="M"/>
    <connection from="gneE1" to="gneE2" fromLane="0" toLane="0" via=":gneJ2_1_0" dir="l" state="M"/>
    <connection from="gneE2" to="gneE3" fromLane="0" toLane="0" via=":gneJ3_0_0" dir="l" state="M"/>
    <connection from="gneE3" to="gneE0" fromLane="0" toLane="0" via=":gneJ0_0_0" dir="l" state="M"/>
    <connection from="gneE4" to="gneE6" fromLane="0" toLane="0" via=":gneJ0_1_0" dir="r" state="M"/>
    <connection from="gneE6" to="gneE7" fromLane="0" toLane="0" via=":gneJ3_1_0" dir="r" state="M"/>
    <connection from="gneE7" to="gneE8" fromLane="0" toLane="0" via=":gneJ2_0_0" dir="r" state="M"/>
    <connection from="gneE8" to="gneE4" fromLane="0" toLane="0" via=":gneJ1_1_0" dir="r" state="M"/>

    <connection from=":gneJ0_0" to="gneE0" fromLane="0" toLane="0" dir="l" state="M"/>
    <connection from=":gneJ0_1" to="gneE6" fromLane="0" toLane="0" dir="r" state="M"/>
    <connection from=":gneJ1_0" to="gneE1" fromLane="0" toLane="0" dir="l" state="M"/>
    <connection from=":gneJ1_1" to="gneE4" fromLane="0" toLane="0" dir="r" state="M"/>
    <connection from=":gneJ2_0" to="gneE8" fromLane="0" toLane="0" dir="r" state="M"/>
    <connection from=":gneJ2_1" to="gneE2" fromLane="0" toLane="0" dir="l" state="M"/>
    <connection from=":gneJ3_0" to="gneE3" fromLane="0" toLane="0" dir="l" state="M"/>
    <connection from=":gneJ3_1" to="gneE7" fromLane="0" toLane="0" dir="r" state="M"/>

</net>
