<?xml version="1.0" encoding="UTF-8"?>

<!-- generated on Tue Sep 24 08:50:44 2019 by Eclipse SUMO Version v1_3_1+0424-59468cc
<configuration xmlns:xsi="http://www.w3.org/2001/XMLSchema-instance" xsi:noNamespaceSchemaLocation="http://sumo.dlr.de/xsd/sumoConfiguration.xsd">

    <input>
        <net-file value="input_net.net.xml"/>
        <route-files value="input_routes.rou.xml"/>
        <additional-files value="input_additional.add.xml"/>
    </input>

    <output>
        <fcd-output value="fcd.xml"/>
    </output>

    <processing>
        <default.speeddev value="0"/>
    </processing>

    <report>
        <no-step-log value="true"/>
    </report>

    <traci_server>
        <remote-port value="50586"/>
    </traci_server>

</configuration>
-->

<ToCDeviceLog>
    <TOR id="ToC_veh" t="202.00" lane="5/1to6/1_0" lanePos="0.92"/>
    <MRM id="ToC_veh" t="203.00" lane="5/1to6/1_0" lanePos="0.94"/>
    <ToCdown id="ToC_veh" t="232.00" lane="6/1to7/1_0" lanePos="0.13"/>
</ToCDeviceLog>
