<?xml version="1.0" encoding="UTF-8"?>

<!-- generated on Tue 04 Jun 2013 01:20:57 PM CEST by Netedit Version dev-SVN-r13777
<?xml version="1.0" encoding="UTF-8"?>

<configuration xmlns:xsi="http://www.w3.org/2001/XMLSchema-instance" xsi:noNamespaceSchemaLocation="http://sumo.dlr.de/xsd/netedit.exeConfiguration.xsd">

    <output>
        <output-file value="/scr1/erdm_ja/debug/invalid_foes/input_plain.net.xml"/>
        <plain-output-prefix value="/scr1/erdm_ja/debug/invalid_foes/input_plain"/>
    </output>

    <processing>
        <no-turnarounds value="true"/>
        <offset.disable-normalization value="true"/>
    </processing>

</configuration>
-->

<edges version="0.13" xmlns:xsi="http://www.w3.org/2001/XMLSchema-instance" xsi:noNamespaceSchemaLocation="http://sumo.dlr.de/xsd/edges_file.xsd">
    <edge id="main" from="gneJ0" to="gneJ1" priority="2" numLanes="2" speed="13.89"/>
    <edge id="main2" from="gneJ1" to="gneJ2" priority="2" numLanes="2" speed="13.89"/>
    <edge id="side" from="gneJ3" to="gneJ1" priority="1" numLanes="1" speed="13.89"/>
</edges>
