<?xml version="1.0" encoding="UTF-8"?>

<!-- generated on 2024-02-22 13:54:05 by Eclipse SUMO netconvert Version v1_19_0+0965-4998ef0cb0f
This data file and the accompanying materials
are made available under the terms of the Eclipse Public License v2.0
which accompanies this distribution, and is available at
http://www.eclipse.org/legal/epl-v20.html
This file may also be made available under the following Secondary
Licenses when the conditions for such availability set forth in the Eclipse
Public License 2.0 are satisfied: GNU General Public License, version 2
or later which is available at
https://www.gnu.org/licenses/old-licenses/gpl-2.0-standalone.html
SPDX-License-Identifier: EPL-2.0 OR GPL-2.0-or-later
<configuration xmlns:xsi="http://www.w3.org/2001/XMLSchema-instance" xsi:noNamespaceSchemaLocation="http://sumo.dlr.de/xsd/netconvertConfiguration.xsd">

    <input>
        <type-files value="${SUMO_HOME}/data/typemap/osmNetconvert.typ.xml,${SUMO_HOME}/data/typemap/osmNetconvertUrbanDe.typ.xml,${SUMO_HOME}/data/typemap/osmNetconvertBicycle.typ.xml,${SUMO_HOME}/data/typemap/osmNetconvertPedestrians.typ.xml"/>
        <osm-files value="osm.xml.gz"/>
    </input>

    <output>
        <write-license value="true"/>
        <output.street-names value="true"/>
        <output.original-names value="true"/>
    </output>

    <projection>
        <proj.utm value="true"/>
    </projection>

    <processing>
        <geometry.remove value="true"/>
        <roundabouts.guess value="true"/>
    </processing>

    <tls_building>
        <tls.discard-simple value="true"/>
        <tls.join value="true"/>
        <tls.guess-signals value="true"/>
        <tls.default-type value="actuated"/>
    </tls_building>

    <ramp_guessing>
        <ramps.guess value="true"/>
    </ramp_guessing>

    <junctions>
        <junctions.join value="true"/>
        <junctions.corner-detail value="5"/>
    </junctions>

    <pedestrian>
        <crossings.guess value="true"/>
    </pedestrian>

    <formats>
        <osm.bike-access value="true"/>
        <osm.sidewalks value="true"/>
    </formats>

    <report>
        <verbose value="true"/>
        <xml-validation value="never"/>
    </report>

</configuration>
-->

<net version="1.16" junctionCornerDetail="5" walkingareas="true" limitTurnSpeed="5.50" xmlns:xsi="http://www.w3.org/2001/XMLSchema-instance" xsi:noNamespaceSchemaLocation="http://sumo.dlr.de/xsd/net_file.xsd">

    <location netOffset="-403109.10,-5812345.94" convBoundary="0.00,0.00,354.46,642.70" origBoundary="13.574171,52.452694,13.579200,52.458530" projParameter="+proj=utm +zone=33 +ellps=WGS84 +datum=WGS84 +units=m +no_defs"/>

    <type id="cycleway.track|highway.secondary" priority="11" numLanes="1" speed="13.89" disallow="pedestrian tram rail_urban rail rail_electric rail_fast ship" oneway="0" sidewalkWidth="3.00" bikeLaneWidth="1.50"/>
    <type id="highway.path" priority="1" numLanes="1" speed="5.56" allow="pedestrian bicycle" oneway="0" width="2.00"/>
    <type id="highway.residential" priority="3" numLanes="1" speed="13.89" disallow="pedestrian tram rail_urban rail rail_electric rail_fast ship" oneway="0" sidewalkWidth="2.00"/>
    <type id="highway.secondary" priority="11" numLanes="1" speed="13.89" disallow="pedestrian tram rail_urban rail rail_electric rail_fast ship" oneway="0" sidewalkWidth="3.00"/>
    <type id="railway.tram" priority="17" numLanes="1" speed="13.89" allow="tram" oneway="1"/>

    <edge id=":10213971212_0" function="internal">
        <lane id=":10213971212_0_0" index="0" disallow="pedestrian tram rail_urban rail rail_electric rail_fast ship" speed="3.65" length="4.67" shape="152.35,497.04 151.86,498.40 151.18,498.97 150.31,498.78 149.25,497.80"/>
    </edge>
    <edge id=":10213971212_w0" function="walkingarea">
        <lane id=":10213971212_w0_0" index="0" allow="pedestrian" speed="2.78" length="8.40" width="2.00" shape="147.69,498.18 145.75,498.65 155.85,496.19 153.91,496.66"/>
    </edge>
    <edge id=":2916141761_0" function="internal">
        <lane id=":2916141761_0_0" index="0" disallow="pedestrian tram rail_urban rail rail_electric rail_fast ship" speed="3.65" length="4.67" shape="5.35,251.23 4.15,250.44 3.74,249.64 4.13,248.84 5.33,248.03"/>
    </edge>
    <edge id=":2916141761_w0" function="walkingarea">
        <lane id=":2916141761_w0_0" index="0" allow="pedestrian" speed="2.78" length="8.40" width="2.00" shape="5.32,246.43 5.30,244.43 5.38,254.83 5.36,252.83"/>
    </edge>
    <edge id=":31492399_0" function="internal">
        <lane id=":31492399_0_0" index="0" disallow="pedestrian bicycle tram rail_urban rail rail_electric rail_fast ship" speed="5.00" length="8.76" width="6.00" shape="209.22,336.71 208.77,339.38 207.71,340.67 206.04,340.60 203.75,339.16"/>
    </edge>
    <edge id=":31524357_0" function="internal">
        <lane id=":31524357_0_0" index="0" disallow="pedestrian tram rail_urban rail rail_electric rail_fast ship" speed="3.65" length="4.67" shape="282.70,169.91 284.12,169.65 284.97,169.96 285.23,170.81 284.92,172.22"/>
    </edge>
    <edge id=":31524357_w0" function="walkingarea">
        <lane id=":31524357_w0_0" index="0" allow="pedestrian" speed="2.78" length="8.40" width="2.00" shape="286.02,173.37 287.41,174.82 280.21,167.31 281.60,168.75"/>
    </edge>
    <edge id=":72859927_0" function="internal">
        <lane id=":72859927_0_0" index="0" disallow="pedestrian tram rail_urban rail rail_electric rail_fast ship" speed="6.99" length="9.67" shape="62.65,241.39 61.16,238.95 59.39,237.45 57.34,236.88 55.00,237.25"/>
    </edge>
    <edge id=":72859927_1" function="internal">
        <lane id=":72859927_1_0" index="0" disallow="pedestrian tram rail_urban rail rail_electric rail_fast ship" speed="7.90" length="15.02" shape="62.65,241.39 61.44,237.38 61.89,234.08 63.98,231.50 67.72,229.62"/>
    </edge>
    <edge id=":72859927_2" function="internal">
        <lane id=":72859927_2_0" index="0" disallow="pedestrian tram rail_urban rail rail_electric rail_fast ship" speed="3.65" length="4.67" shape="62.65,241.39 62.87,239.96 63.43,239.26 64.32,239.29 65.55,240.04"/>
    </edge>
    <edge id=":72859927_3" function="internal">
        <lane id=":72859927_3_0" index="0" disallow="pedestrian tram rail_urban rail rail_electric rail_fast ship" speed="6.39" length="9.42" shape="68.73,232.66 66.39,233.84 65.07,235.46 64.80,237.53 65.55,240.04"/>
    </edge>
    <edge id=":72859927_4" function="internal">
        <lane id=":72859927_4_0" index="0" disallow="pedestrian tram rail_urban rail rail_electric rail_fast ship" speed="8.33" length="14.48" shape="68.73,232.66 55.00,237.25"/>
    </edge>
    <edge id=":72859927_5" function="internal">
        <lane id=":72859927_5_0" index="0" disallow="pedestrian tram rail_urban rail rail_electric rail_fast ship" speed="3.65" length="4.67" shape="68.73,232.66 67.34,232.28 66.71,231.65 66.84,230.76 67.72,229.62"/>
    </edge>
    <edge id=":72859927_6" function="internal">
        <lane id=":72859927_6_0" index="0" disallow="pedestrian tram rail_urban rail rail_electric rail_fast ship" speed="8.33" length="14.49" shape="53.98,234.21 67.72,229.62"/>
    </edge>
    <edge id=":72859927_7" function="internal">
        <lane id=":72859927_7_0" index="0" disallow="pedestrian tram rail_urban rail rail_electric rail_fast ship" speed="8.33" length="14.42" shape="53.98,234.21 57.58,233.61 60.71,234.38 63.36,236.53 65.55,240.04"/>
    </edge>
    <edge id=":72859927_8" function="internal">
        <lane id=":72859927_8_0" index="0" disallow="pedestrian tram rail_urban rail rail_electric rail_fast ship" speed="3.65" length="4.67" shape="53.98,234.21 55.38,234.59 56.01,235.22 55.89,236.11 55.00,237.25"/>
    </edge>
    <edge id=":72859927_c0" function="crossing" crossingEdges="9485797 -9485797">
        <lane id=":72859927_c0_0" index="0" allow="pedestrian" speed="2.78" length="6.40" width="4.00" shape="66.16,237.55 60.36,240.25"/>
    </edge>
    <edge id=":72859927_c1" function="crossing" crossingEdges="9485559#1 -9485559#1">
        <lane id=":72859927_c1_0" index="0" allow="pedestrian" speed="2.78" length="6.40" width="4.00" shape="65.32,228.74 67.34,234.81"/>
    </edge>
    <edge id=":72859927_c2" function="crossing" crossingEdges="-9485559#0 9485559#0">
        <lane id=":72859927_c2_0" index="0" allow="pedestrian" speed="2.78" length="6.40" width="4.00" shape="57.41,238.13 55.37,232.06"/>
    </edge>
    <edge id=":72859927_w0" function="walkingarea">
        <lane id=":72859927_w0_0" index="0" allow="pedestrian" speed="2.78" length="3.86" width="4.00" shape="55.51,238.76 56.15,240.66 59.39,242.91 61.20,242.06 60.46,240.72 59.64,239.70 58.73,238.99 57.74,238.60 56.67,238.52"/>
    </edge>
    <edge id=":72859927_w1" function="walkingarea">
        <lane id=":72859927_w1_0" index="0" allow="pedestrian" speed="2.78" length="3.33" width="4.00" shape="67.00,239.36 68.82,238.52 69.87,236.08 69.24,234.18 68.06,234.69 67.20,235.35 66.67,236.14 66.46,237.08 66.57,238.15"/>
    </edge>
    <edge id=":72859927_w2" function="walkingarea">
        <lane id=":72859927_w2_0" index="0" allow="pedestrian" speed="2.78" length="9.09" width="4.00" shape="63.42,229.37 67.22,228.11 66.59,226.21 52.84,230.80 53.47,232.70 57.27,231.42"/>
    </edge>
    <edge id=":75044603_0" function="internal">
        <lane id=":75044603_0_0" index="0" disallow="pedestrian tram rail_urban rail rail_electric rail_fast ship" speed="3.68" length="4.75" width="3.25" shape="4.38,158.56 2.94,158.31 2.24,157.73 2.29,156.82 3.08,155.59"/>
    </edge>
    <edge id=":75044603_w0" function="walkingarea">
        <lane id=":75044603_w0_0" index="0" allow="pedestrian" speed="2.78" length="8.50" width="2.00" shape="2.43,154.10 1.63,152.27 5.84,161.89 5.03,160.05"/>
    </edge>
    <edge id=":928259421_0" function="internal">
        <lane id=":928259421_0_0" index="0" disallow="pedestrian bicycle tram rail_urban rail rail_electric rail_fast ship" speed="13.89" length="7.94" shape="68.54,101.45 66.96,99.76 65.55,98.91 64.12,98.09 62.44,96.47"/>
        <lane id=":928259421_0_1" index="1" disallow="pedestrian bicycle tram rail_urban rail rail_electric rail_fast ship" speed="13.89" length="7.94" shape="68.54,101.45 67.34,99.44 66.79,97.90 66.21,96.38 64.92,94.45"/>
    </edge>
    <edge id=":928259421_2" function="internal">
        <lane id=":928259421_2_0" index="0" allow="bicycle" speed="13.89" length="8.38" width="1.50" shape="72.07,88.63 76.41,95.70"/>
        <lane id=":928259421_2_1" index="1" disallow="pedestrian bicycle tram rail_urban rail rail_electric rail_fast ship" speed="13.89" length="8.38" width="6.00" shape="70.23,90.13 71.33,92.36 71.73,94.08 72.17,95.76 73.39,97.91"/>
    </edge>
    <edge id=":928259421_w0" function="walkingarea">
        <lane id=":928259421_w0_0" index="0" allow="pedestrian" speed="2.78" length="8.42" width="3.00" shape="77.02,95.26 79.44,93.49 75.09,86.40 72.56,88.01"/>
    </edge>
    <edge id=":cluster_72859928_8453482056_0" function="internal">
        <lane id=":cluster_72859928_8453482056_0_0" index="0" disallow="pedestrian tram rail_urban rail rail_electric rail_fast ship" speed="9.18" length="12.07" shape="146.50,214.59 144.34,211.89 141.23,210.49 137.17,210.38 136.06,210.64"/>
    </edge>
    <edge id=":cluster_72859928_8453482056_1" function="internal">
        <lane id=":cluster_72859928_8453482056_1_0" index="0" allow="bicycle" speed="9.72" length="18.25" width="1.00" shape="144.27,215.71 142.24,212.68 139.59,209.79 136.46,206.30 132.95,201.45"/>
    </edge>
    <edge id=":cluster_72859928_8453482056_2" function="internal">
        <lane id=":cluster_72859928_8453482056_2_0" index="0" disallow="pedestrian tram rail_urban rail rail_electric rail_fast ship" speed="13.89" length="18.37" width="6.00" shape="146.50,214.59 144.47,210.83 141.98,206.60 139.38,202.43 137.01,198.87"/>
    </edge>
    <edge id=":cluster_72859928_8453482056_3" function="internal">
        <lane id=":cluster_72859928_8453482056_3_0" index="0" disallow="pedestrian tram rail_urban rail rail_electric rail_fast ship" speed="9.22" length="6.66" shape="146.50,214.59 145.04,209.48 145.44,208.19"/>
    </edge>
    <edge id=":cluster_72859928_8453482056_4" function="internal">
        <lane id=":cluster_72859928_8453482056_4_0" index="0" disallow="pedestrian bicycle tram rail_urban rail rail_electric rail_fast ship" speed="5.00" length="3.44" width="6.00" shape="146.50,214.59 146.83,211.90 147.27,211.32"/>
    </edge>
    <edge id=":cluster_72859928_8453482056_29" function="internal">
        <lane id=":cluster_72859928_8453482056_29_0" index="0" disallow="pedestrian tram rail_urban rail rail_electric rail_fast ship" speed="9.18" length="4.02" shape="136.06,210.64 132.15,211.56"/>
    </edge>
    <edge id=":cluster_72859928_8453482056_30" function="internal">
        <lane id=":cluster_72859928_8453482056_30_0" index="0" disallow="pedestrian tram rail_urban rail rail_electric rail_fast ship" speed="9.22" length="15.15" shape="145.44,208.19 146.31,205.33 150.29,202.15 157.00,199.92"/>
    </edge>
    <edge id=":cluster_72859928_8453482056_31" function="internal">
        <lane id=":cluster_72859928_8453482056_31_0" index="0" disallow="pedestrian bicycle tram rail_urban rail rail_electric rail_fast ship" speed="5.00" length="5.33" width="6.00" shape="147.27,211.32 147.83,210.56 149.51,210.56 151.86,211.89"/>
    </edge>
    <edge id=":cluster_72859928_8453482056_5" function="internal">
        <lane id=":cluster_72859928_8453482056_5_0" index="0" allow="bicycle" speed="5.94" length="8.79" width="1.50" shape="158.41,203.76 156.03,204.63 154.70,206.00 154.43,207.86 155.21,210.21"/>
        <lane id=":cluster_72859928_8453482056_5_1" index="1" disallow="pedestrian bicycle tram rail_urban rail rail_electric rail_fast ship" speed="7.16" length="13.30" width="6.00" shape="158.23,202.93 154.15,204.28 151.73,206.23 150.97,208.77 151.86,211.89"/>
    </edge>
    <edge id=":cluster_72859928_8453482056_7" function="internal">
        <lane id=":cluster_72859928_8453482056_7_0" index="0" disallow="pedestrian tram rail_urban rail rail_electric rail_fast ship" speed="8.33" length="27.49" shape="158.23,202.93 151.37,204.72 145.08,206.85 138.86,209.18 132.15,211.56"/>
    </edge>
    <edge id=":cluster_72859928_8453482056_8" function="internal">
        <lane id=":cluster_72859928_8453482056_8_0" index="0" allow="bicycle" speed="6.95" length="25.89" width="1.00" shape="158.00,201.85 148.25,203.60 140.83,204.11 135.73,203.39 132.95,201.45"/>
    </edge>
    <edge id=":cluster_72859928_8453482056_9" function="internal">
        <lane id=":cluster_72859928_8453482056_9_0" index="0" disallow="pedestrian tram rail_urban rail rail_electric rail_fast ship" speed="11.11" length="22.81" width="6.00" shape="158.23,202.93 150.91,203.97 144.93,203.64 140.30,201.94 137.01,198.87"/>
    </edge>
    <edge id=":cluster_72859928_8453482056_10" function="internal">
        <lane id=":cluster_72859928_8453482056_10_0" index="0" disallow="pedestrian tram rail_urban rail rail_electric rail_fast ship" speed="3.67" length="4.75" shape="158.23,202.93 156.79,202.64 156.11,202.04 156.18,201.14 157.00,199.92"/>
    </edge>
    <edge id=":cluster_72859928_8453482056_11" function="internal">
        <lane id=":cluster_72859928_8453482056_11_0" index="0" allow="bicycle" speed="9.16" length="9.44" width="1.50" shape="145.26,193.65 147.78,196.58 150.55,198.46 152.69,199.06"/>
    </edge>
    <edge id=":cluster_72859928_8453482056_12" function="internal">
        <lane id=":cluster_72859928_8453482056_12_0" index="0" allow="bicycle" speed="13.89" length="19.35" width="1.50" shape="145.26,193.65 148.53,198.37 150.67,201.67 152.60,205.10 155.21,210.21"/>
    </edge>
    <edge id=":cluster_72859928_8453482056_13" function="internal">
        <lane id=":cluster_72859928_8453482056_13_0" index="0" allow="bicycle" speed="5.51" length="14.57" width="1.00" shape="145.26,193.65 132.95,201.45"/>
    </edge>
    <edge id=":cluster_72859928_8453482056_14" function="internal">
        <lane id=":cluster_72859928_8453482056_14_0" index="0" disallow="pedestrian bicycle tram rail_urban rail rail_electric rail_fast ship" speed="10.37" length="5.17" shape="142.09,195.66 144.71,198.37 145.97,198.97"/>
    </edge>
    <edge id=":cluster_72859928_8453482056_15" function="internal">
        <lane id=":cluster_72859928_8453482056_15_0" index="0" disallow="pedestrian bicycle tram rail_urban rail rail_electric rail_fast ship" speed="13.89" length="18.98" width="6.00" shape="142.09,195.66 145.30,200.29 147.40,203.52 149.30,206.88 151.86,211.89"/>
    </edge>
    <edge id=":cluster_72859928_8453482056_16" function="internal">
        <lane id=":cluster_72859928_8453482056_16_0" index="0" disallow="pedestrian bicycle tram rail_urban rail rail_electric rail_fast ship" speed="9.31" length="6.68" shape="142.09,195.66 144.13,200.49 143.81,201.88"/>
    </edge>
    <edge id=":cluster_72859928_8453482056_17" function="internal">
        <lane id=":cluster_72859928_8453482056_17_0" index="0" disallow="pedestrian bicycle tram rail_urban rail rail_electric rail_fast ship" speed="5.00" length="3.41" width="6.00" shape="142.09,195.66 142.02,198.36 141.66,198.97"/>
    </edge>
    <edge id=":cluster_72859928_8453482056_32" function="internal">
        <lane id=":cluster_72859928_8453482056_32_0" index="0" allow="bicycle" speed="9.16" length="4.16" width="1.50" shape="152.69,199.06 153.56,199.30 156.82,199.09"/>
    </edge>
    <edge id=":cluster_72859928_8453482056_33" function="internal">
        <lane id=":cluster_72859928_8453482056_33_0" index="0" disallow="pedestrian bicycle tram rail_urban rail rail_electric rail_fast ship" speed="10.37" length="11.32" shape="145.97,198.97 148.08,199.98 152.17,200.50 157.00,199.92"/>
    </edge>
    <edge id=":cluster_72859928_8453482056_34" function="internal">
        <lane id=":cluster_72859928_8453482056_34_0" index="0" disallow="pedestrian bicycle tram rail_urban rail rail_electric rail_fast ship" speed="9.31" length="16.05" shape="143.81,201.88 143.16,204.75 139.17,208.44 132.15,211.56"/>
    </edge>
    <edge id=":cluster_72859928_8453482056_35" function="internal">
        <lane id=":cluster_72859928_8453482056_35_0" index="0" disallow="pedestrian bicycle tram rail_urban rail rail_electric rail_fast ship" speed="5.00" length="5.36" width="6.00" shape="141.66,198.97 141.16,199.80 139.49,199.97 137.01,198.87"/>
    </edge>
    <edge id=":cluster_72859928_8453482056_18" function="internal">
        <lane id=":cluster_72859928_8453482056_18_0" index="0" allow="bicycle" speed="5.66" length="7.80" width="1.00" shape="130.80,207.48 132.78,206.49 133.80,205.15 133.85,203.47 132.95,201.45"/>
    </edge>
    <edge id=":cluster_72859928_8453482056_19" function="internal">
        <lane id=":cluster_72859928_8453482056_19_0" index="0" disallow="pedestrian tram rail_urban rail rail_electric rail_fast ship" speed="7.19" length="13.72" width="6.00" shape="131.14,208.52 135.34,206.64 137.72,204.41 138.28,201.82 137.01,198.87"/>
    </edge>
    <edge id=":cluster_72859928_8453482056_20" function="internal">
        <lane id=":cluster_72859928_8453482056_20_0" index="0" disallow="pedestrian tram rail_urban rail rail_electric rail_fast ship" speed="8.33" length="27.27" shape="131.14,208.52 137.81,206.14 143.96,203.83 150.17,201.71 157.00,199.92"/>
    </edge>
    <edge id=":cluster_72859928_8453482056_21" function="internal">
        <lane id=":cluster_72859928_8453482056_21_0" index="0" allow="bicycle" speed="10.99" length="24.59" width="1.50" shape="131.41,209.33 138.04,207.88 145.42,207.42 151.75,208.13 155.21,210.21"/>
        <lane id=":cluster_72859928_8453482056_21_1" index="1" disallow="pedestrian bicycle tram rail_urban rail rail_electric rail_fast ship" speed="10.62" length="22.90" width="6.00" shape="131.14,208.52 138.55,206.70 144.47,206.66 148.91,208.39 151.86,211.89"/>
    </edge>
    <edge id=":cluster_72859928_8453482056_23" function="internal">
        <lane id=":cluster_72859928_8453482056_23_0" index="0" disallow="pedestrian tram rail_urban rail rail_electric rail_fast ship" speed="3.65" length="4.67" shape="131.14,208.52 132.53,208.90 133.17,209.54 133.04,210.42 132.15,211.56"/>
    </edge>
    <edge id=":cluster_72859928_8453482056_24" function="internal">
        <lane id=":cluster_72859928_8453482056_24_0" index="0" allow="bicycle" speed="6.95" length="11.64" width="1.00" shape="142.33,216.69 140.35,214.13 138.05,212.60 135.43,212.09 132.50,212.60"/>
    </edge>
    <edge id=":cluster_72859928_8453482056_25" function="internal">
        <lane id=":cluster_72859928_8453482056_25_0" index="0" allow="bicycle" speed="5.56" length="17.90" width="1.00" shape="142.33,216.69 132.95,201.45"/>
    </edge>
    <edge id=":cluster_72859928_8453482056_26" function="internal">
        <lane id=":cluster_72859928_8453482056_26_0" index="0" allow="bicycle" speed="9.72" length="18.00" width="1.00" shape="142.33,216.69 139.65,211.45 138.00,207.14 136.67,203.51 134.96,200.30"/>
    </edge>
    <edge id=":cluster_72859928_8453482056_27" function="internal">
        <lane id=":cluster_72859928_8453482056_27_0" index="0" allow="bicycle" speed="6.95" length="25.37" width="1.00" shape="142.33,216.69 141.90,211.38 145.29,205.93 150.81,201.40 156.76,198.85"/>
    </edge>
    <edge id=":cluster_72859928_8453482056_28" function="internal">
        <lane id=":cluster_72859928_8453482056_28_0" index="0" allow="bicycle" speed="5.44" length="14.43" width="1.00" shape="142.33,216.69 155.21,210.21"/>
    </edge>
    <edge id=":cluster_72859928_8453482056_c0" function="crossing" crossingEdges="860227378#0 -860227378#2 910439498#0">
        <lane id=":cluster_72859928_8453482056_c0_0" index="0" allow="pedestrian" speed="2.78" length="15.81" width="4.00" shape="154.98,208.08 140.88,215.22"/>
    </edge>
    <edge id=":cluster_72859928_8453482056_c1" function="crossing" crossingEdges="9485559#3 -9485559#3">
        <lane id=":cluster_72859928_8453482056_c1_0" index="0" allow="pedestrian" speed="2.78" length="6.43" width="4.00" shape="154.70,198.78 156.61,204.91"/>
    </edge>
    <edge id=":cluster_72859928_8453482056_c2" function="crossing" crossingEdges="910439498#3 -1037060789 1037060789">
        <lane id=":cluster_72859928_8453482056_c2_0" index="0" allow="pedestrian" speed="2.78" length="15.91" width="4.00" shape="133.59,203.41 147.01,194.86"/>
    </edge>
    <edge id=":cluster_72859928_8453482056_c3" function="crossing" crossingEdges="-9485559#1 9485559#1">
        <lane id=":cluster_72859928_8453482056_c3_0" index="0" allow="pedestrian" speed="2.78" length="6.40" width="4.00" shape="134.56,212.45 132.54,206.37"/>
    </edge>
    <edge id=":cluster_72859928_8453482056_w0" function="walkingarea">
        <lane id=":cluster_72859928_8453482056_w0_0" index="0" allow="pedestrian" speed="2.78" length="3.73" width="4.00" shape="155.88,209.87 158.56,208.52 159.44,206.35 159.02,204.39 158.52,204.32 157.14,204.93 156.11,205.56 155.46,206.36 155.21,207.35 155.35,208.52"/>
    </edge>
    <edge id=":cluster_72859928_8453482056_w1" function="walkingarea">
        <lane id=":cluster_72859928_8453482056_w1_0" index="0" allow="pedestrian" speed="2.78" length="7.04" width="4.00" shape="156.61,198.19 156.20,198.45 155.78,196.50 148.39,191.59 145.93,193.30 145.94,193.18 147.43,195.17 149.08,196.68 150.83,197.75 152.67,198.39 154.62,198.59"/>
    </edge>
    <edge id=":cluster_72859928_8453482056_w2" function="walkingarea">
        <lane id=":cluster_72859928_8453482056_w2_0" index="0" allow="pedestrian" speed="2.78" length="3.35" width="4.00" shape="132.52,201.72 130.83,202.79 130.01,205.11 130.64,207.00 131.89,206.46 132.77,205.78 133.27,204.96 133.40,204.01 133.15,202.93"/>
    </edge>
    <edge id=":cluster_72859928_8453482056_w3" function="walkingarea">
        <lane id=":cluster_72859928_8453482056_w3_0" index="0" allow="pedestrian" speed="2.78" length="6.01" width="4.00" shape="132.66,213.08 133.29,214.98 140.12,217.88 141.84,216.86 141.78,217.01 140.69,215.23 139.34,213.94 137.87,213.08 136.26,212.65 134.53,212.65"/>
    </edge>
    <edge id=":cluster_75042985_8453482059_0" function="internal">
        <lane id=":cluster_75042985_8453482059_0_0" index="0" allow="bicycle" speed="6.65" length="8.78" width="1.00" shape="82.54,129.92 81.19,128.61 79.40,128.04 77.18,128.19 74.52,129.09"/>
    </edge>
    <edge id=":cluster_75042985_8453482059_1" function="internal">
        <lane id=":cluster_75042985_8453482059_1_0" index="0" allow="bicycle" speed="5.56" length="14.81" width="1.00" shape="82.54,129.92 73.95,117.86"/>
    </edge>
    <edge id=":cluster_75042985_8453482059_2" function="internal">
        <lane id=":cluster_75042985_8453482059_2_0" index="0" allow="bicycle" speed="9.72" length="15.21" width="1.00" shape="82.54,129.92 80.17,125.69 78.88,122.20 77.83,119.13 76.19,116.16"/>
    </edge>
    <edge id=":cluster_75042985_8453482059_3" function="internal">
        <lane id=":cluster_75042985_8453482059_3_0" index="0" allow="bicycle" speed="5.51" length="15.09" width="1.00" shape="82.54,129.92 94.92,121.30"/>
    </edge>
    <edge id=":cluster_75042985_8453482059_4" function="internal">
        <lane id=":cluster_75042985_8453482059_4_0" index="0" disallow="pedestrian tram rail_urban rail rail_electric rail_fast ship" speed="8.70" length="9.65" width="3.25" shape="86.92,126.87 85.23,125.67 82.52,125.47 78.81,126.26 77.82,126.64"/>
    </edge>
    <edge id=":cluster_75042985_8453482059_5" function="internal">
        <lane id=":cluster_75042985_8453482059_5_0" index="0" allow="bicycle" speed="9.72" length="15.16" width="1.00" shape="84.87,128.30 82.59,125.79 80.03,123.81 77.16,121.47 73.95,117.86"/>
    </edge>
    <edge id=":cluster_75042985_8453482059_6" function="internal">
        <lane id=":cluster_75042985_8453482059_6_0" index="0" disallow="pedestrian tram rail_urban rail rail_electric rail_fast ship" speed="13.89" length="14.98" width="6.00" shape="86.92,126.87 78.21,114.69"/>
    </edge>
    <edge id=":cluster_75042985_8453482059_7" function="internal">
        <lane id=":cluster_75042985_8453482059_7_0" index="0" disallow="pedestrian bicycle tram rail_urban rail rail_electric rail_fast ship" speed="5.00" length="3.42" width="6.00" shape="86.92,126.87 86.87,124.17 87.21,123.54"/>
    </edge>
    <edge id=":cluster_75042985_8453482059_18" function="internal">
        <lane id=":cluster_75042985_8453482059_18_0" index="0" disallow="pedestrian tram rail_urban rail rail_electric rail_fast ship" speed="8.70" length="4.00" width="3.25" shape="77.82,126.64 74.07,128.06"/>
    </edge>
    <edge id=":cluster_75042985_8453482059_19" function="internal">
        <lane id=":cluster_75042985_8453482059_19_0" index="0" disallow="pedestrian bicycle tram rail_urban rail rail_electric rail_fast ship" speed="5.00" length="5.34" width="6.00" shape="87.21,123.54 87.67,122.70 89.33,122.45 91.85,123.45"/>
    </edge>
    <edge id=":cluster_75042985_8453482059_8" function="internal">
        <lane id=":cluster_75042985_8453482059_8_0" index="0" allow="bicycle" speed="13.89" length="15.30" width="1.50" shape="86.02,108.86 94.92,121.30"/>
    </edge>
    <edge id=":cluster_75042985_8453482059_9" function="internal">
        <lane id=":cluster_75042985_8453482059_9_0" index="0" allow="bicycle" speed="5.56" length="6.76" width="1.00" shape="86.02,108.86 80.60,112.90"/>
    </edge>
    <edge id=":cluster_75042985_8453482059_10" function="internal">
        <lane id=":cluster_75042985_8453482059_10_0" index="0" disallow="pedestrian bicycle tram rail_urban rail rail_electric rail_fast ship" speed="13.89" length="15.18" width="6.00" shape="83.02,111.10 91.85,123.45"/>
    </edge>
    <edge id=":cluster_75042985_8453482059_11" function="internal">
        <lane id=":cluster_75042985_8453482059_11_0" index="0" disallow="pedestrian bicycle tram rail_urban rail rail_electric rail_fast ship" speed="9.50" length="6.55" width="3.25" shape="83.02,111.10 85.16,115.87 84.93,117.17"/>
    </edge>
    <edge id=":cluster_75042985_8453482059_12" function="internal">
        <lane id=":cluster_75042985_8453482059_12_0" index="0" disallow="pedestrian bicycle tram rail_urban rail rail_electric rail_fast ship" speed="5.00" length="3.50" width="6.00" shape="83.02,111.10 83.16,113.80 82.80,114.51"/>
    </edge>
    <edge id=":cluster_75042985_8453482059_20" function="internal">
        <lane id=":cluster_75042985_8453482059_20_0" index="0" allow="bicycle" speed="5.56" length="8.29" width="1.00" shape="80.60,112.90 73.95,117.86"/>
    </edge>
    <edge id=":cluster_75042985_8453482059_21" function="internal">
        <lane id=":cluster_75042985_8453482059_21_0" index="0" disallow="pedestrian bicycle tram rail_urban rail rail_electric rail_fast ship" speed="9.50" length="16.24" width="3.25" shape="84.93,117.17 84.39,120.28 80.69,124.34 74.07,128.06"/>
    </edge>
    <edge id=":cluster_75042985_8453482059_22" function="internal">
        <lane id=":cluster_75042985_8453482059_22_0" index="0" disallow="pedestrian bicycle tram rail_urban rail rail_electric rail_fast ship" speed="5.00" length="5.27" width="6.00" shape="82.80,114.51 82.40,115.30 80.75,115.60 78.21,114.69"/>
    </edge>
    <edge id=":cluster_75042985_8453482059_13" function="internal">
        <lane id=":cluster_75042985_8453482059_13_0" index="0" allow="bicycle" speed="5.68" length="7.76" width="1.00" shape="72.32,124.05 74.18,122.89 75.08,121.47 75.00,119.79 73.95,117.86"/>
    </edge>
    <edge id=":cluster_75042985_8453482059_14" function="internal">
        <lane id=":cluster_75042985_8453482059_14_0" index="0" disallow="pedestrian tram rail_urban rail rail_electric rail_fast ship" speed="7.40" length="13.95" width="6.00" shape="72.77,125.08 76.81,122.81 79.06,120.32 79.53,117.61 78.21,114.69"/>
    </edge>
    <edge id=":cluster_75042985_8453482059_15" function="internal">