<?xml version="1.0" encoding="UTF-8"?>

<!-- generated on 2025-04-24 09:58:34 by Eclipse SUMO netedit Version v1_22_0+1697-ab9c9eee8bf
<neteditConfiguration xmlns:xsi="http://www.w3.org/2001/XMLSchema-instance" xsi:noNamespaceSchemaLocation="http://sumo.dlr.de/xsd/neteditConfiguration.xsd">

    <input>
        <sumo-net-file value="/localdata1/debug/16583/ent.net.xml"/>
    </input>

    <output>
        <output-file value="/localdata1/debug/16583/ent.net.xml"/>
    </output>

    <processing>
        <offset.disable-normalization value="true"/>
    </processing>

    <junctions>
        <no-turnarounds value="true"/>
    </junctions>

    <netedit>
        <new-network value="false"/>
    </netedit>

</neteditConfiguration>
-->

<net version="1.20" junctionCornerDetail="5" limitTurnSpeed="5.50" xmlns:xsi="http://www.w3.org/2001/XMLSchema-instance" xsi:noNamespaceSchemaLocation="http://sumo.dlr.de/xsd/net_file.xsd">

    <location netOffset="0.00,0.00" convBoundary="-100.00,0.00,200.00,0.00" origBoundary="10000000000.00,10000000000.00,-10000000000.00,-10000000000.00" projParameter="!"/>

    <edge id="E0" from="J0" to="J1" priority="-1">
        <lane id="E0_0" index="0" speed="13.89" length="100.00" shape="-100.00,-1.60 0.00,-1.60"/>
    </edge>
    <edge id="E1" from="J2" to="J3" priority="-1">
        <lane id="E1_0" index="0" speed="13.89" length="100.00" shape="100.00,-1.60 200.00,-1.60"/>
    </edge>

    <junction id="J0" type="dead_end" x="-100.00" y="0.00" incLanes="" intLanes="" shape="-100.00,0.00 -100.00,-3.20"/>
    <junction id="J1" type="dead_end" x="0.00" y="0.00" incLanes="E0_0" intLanes="" shape="0.00,-3.20 0.00,0.00"/>
    <junction id="J2" type="dead_end" x="100.00" y="0.00" incLanes="" intLanes="" shape="100.00,0.00 100.00,-3.20"/>
    <junction id="J3" type="dead_end" x="200.00" y="0.00" incLanes="E1_0" intLanes="" shape="200.00,-3.20 200.00,0.00"/>

</net>
