<?xml version="1.0"?>

<!-- generated on 04/18/08 08:44:23 by SUMO sumo Version 0.9.7
<configuration>

   <input>
      <net-file>net.net.xml</net-file>
      <route-files>input_routes.rou.xml</route-files>
   </input>

   <output>
      <dump-intervals>60 300 900</dump-intervals>
      <dump-basename>aggregated</dump-basename>
      <dump-begins>0 900</dump-begins>
      <dump-ends>119 1019</dump-ends>
   </output>

   <time>
      <begin>0</begin>
      <end>1000</end>
   </time>

   <processing>
      <no-duration-log>true</no-duration-log>
      <no-step-log>true</no-step-log>
   </processing>

</configuration>
-->

<netstats>
   <interval begin="0" end="899" id="dump_900">
      <edge id="1fi" traveltime="28.73" nSamples="5635" density="25.03" occupancy="0.13" noStops="0" speed="8.71" entered="130" emitted="80" left="187"/>
      <edge id="1o" traveltime="50.83" nSamples="6851" density="15.63" occupancy="0.08" noStops="0" speed="9.58" entered="138" emitted="0" left="130"/>
      <edge id="2fi" traveltime="29.24" nSamples="4973" density="22.09" occupancy="0.11" noStops="0" speed="8.56" entered="142" emitted="80" left="162"/>
      <edge id="2o" traveltime="53.47" nSamples="7915" density="18.06" occupancy="0.09" noStops="5" speed="9.11" entered="153" emitted="0" left="142"/>
      <edge id="3fi" traveltime="32.02" nSamples="5288" density="23.49" occupancy="0.12" noStops="1" speed="7.81" entered="104" emitted="145" left="158"/>
      <edge id="3o" traveltime="65.62" nSamples="7684" density="17.53" occupancy="0.09" noStops="6" speed="7.42" entered="120" emitted="0" left="104"/>
      <edge id="4fi" traveltime="22.87" nSamples="3616" density="16.06" occupancy="0.08" noStops="0" speed="10.94" entered="156" emitted="0" left="150"/>
      <edge id="4o" traveltime="49.40" nSamples="8099" density="18.48" occupancy="0.09" noStops="0" speed="9.86" entered="165" emitted="0" left="156"/>
      <edge id="1si" traveltime="97.35" nSamples="17068" density="79.97" occupancy="0.13" noStops="9417" speed="6.27" entered="187" emitted="0" left="140"/>
      <edge id="2si" traveltime="31.03" nSamples="5082" density="23.81" occupancy="0.04" noStops="1412" speed="7.93" entered="162" emitted="0" left="151"/>
      <edge id="3si" traveltime="37.37" nSamples="5777" density="27.07" occupancy="0.05" noStops="1895" speed="6.39" entered="158" emitted="0" left="153"/>
      <edge id="4si" traveltime="69.11" nSamples="8829" density="41.37" occupancy="0.07" noStops="4589" speed="5.82" entered="150" emitted="0" left="132"/>
   </interval>
   <interval begin="900" end="1000" id="dump_900">
      <edge id="1fi" traveltime="27.61" nSamples="802" density="31.74" occupancy="0.16" noStops="0" speed="9.06" entered="22" emitted="9" left="25"/>
      <edge id="1o" traveltime="48.77" nSamples="1210" density="24.60" occupancy="0.12" noStops="0" speed="9.99" entered="25" emitted="0" left="22"/>
      <edge id="2fi" traveltime="30.11" nSamples="594" density="23.51" occupancy="0.12" noStops="1" speed="8.31" entered="22" emitted="10" left="18"/>
      <edge id="2o" traveltime="52.22" nSamples="1198" density="24.36" occupancy="0.12" noStops="0" speed="9.33" entered="22" emitted="0" left="22"/>
      <edge id="3fi" traveltime="32.23" nSamples="691" density="27.35" occupancy="0.14" noStops="0" speed="7.76" entered="21" emitted="19" left="21"/>
      <edge id="3o" traveltime="88.35" nSamples="1691" density="34.38" occupancy="0.17" noStops="0" speed="5.51" entered="19" emitted="0" left="21"/>
      <edge id="4fi" traveltime="22.87" nSamples="594" density="23.51" occupancy="0.12" noStops="0" speed="10.94" entered="23" emitted="0" left="24"/>
      <edge id="4o" traveltime="50.04" nSamples="1107" density="22.51" occupancy="0.11" noStops="0" speed="9.73" entered="25" emitted="0" left="23"/>
      <edge id="1si" traveltime="303.98" nSamples="4475" density="186.83" occupancy="0.31" noStops="2393" speed="5.45" entered="25" emitted="0" left="26"/>
      <edge id="2si" traveltime="28.55" nSamples="601" density="25.09" occupancy="0.04" noStops="122" speed="8.79" entered="18" emitted="0" left="24"/>
      <edge id="3si" traveltime="39.26" nSamples="845" density="35.28" occupancy="0.06" noStops="306" speed="6.05" entered="21" emitted="0" left="19"/>
      <edge id="4si" traveltime="171.02" nSamples="2026" density="84.59" occupancy="0.14" noStops="1277" speed="5.63" entered="24" emitted="0" left="22"/>
   </interval>
</netstats>
