<?xml version="1.0"?>

<!-- generated on 11/28/07 13:54:43 by SUMO sumo Version 0.9.7
<configuration>

   <input>
      <net-file>net.net.xml</net-file>
      <route-files>input_routes.rou.xml</route-files>
   </input>

   <output>
      <dump-intervals>60 300 900</dump-intervals>
      <dump-basename>aggregated</dump-basename>
      <dump-begins>0 900</dump-begins>
      <dump-ends>119 1019</dump-ends>
   </output>

   <time>
      <begin>0</begin>
      <end>1000</end>
   </time>

   <processing>
      <no-duration-log>true</no-duration-log>
      <no-step-log>true</no-step-log>
   </processing>

</configuration>
-->

<netstats>
   <interval begin="0" end="59" id="dump_60">
      <edge id="1fi" traveltime="22.52" nSamples="0" density="0.00" occupancy="0.00" noStops="0" speed="11.11"/>
      <edge id="1o" traveltime="43.83" nSamples="0" density="0.00" occupancy="0.00" noStops="0" speed="11.11"/>
      <edge id="2fi" traveltime="22.52" nSamples="0" density="0.00" occupancy="0.00" noStops="0" speed="11.11"/>
      <edge id="2o" traveltime="43.83" nSamples="0" density="0.00" occupancy="0.00" noStops="0" speed="11.11"/>
      <edge id="3fi" traveltime="22.52" nSamples="0" density="0.00" occupancy="0.00" noStops="0" speed="11.11"/>
      <edge id="3o" traveltime="43.83" nSamples="0" density="0.00" occupancy="0.00" noStops="0" speed="11.11"/>
      <edge id="4fi" traveltime="22.52" nSamples="0" density="0.00" occupancy="0.00" noStops="0" speed="11.11"/>
      <edge id="4o" traveltime="43.83" nSamples="0" density="0.00" occupancy="0.00" noStops="0" speed="11.11"/>
      <edge id="1si" traveltime="17.07" nSamples="0" density="0.00" occupancy="0.00" noStops="0" speed="13.89"/>
      <edge id="2si" traveltime="17.07" nSamples="0" density="0.00" occupancy="0.00" noStops="0" speed="13.89"/>
      <edge id="3si" traveltime="17.07" nSamples="0" density="0.00" occupancy="0.00" noStops="0" speed="13.89"/>
      <edge id="4si" traveltime="17.07" nSamples="0" density="0.00" occupancy="0.00" noStops="0" speed="13.89"/>
   </interval>
   <interval begin="60" end="119" id="dump_60">
      <edge id="1fi" traveltime="50.27" nSamples="28" density="1.87" occupancy="0.01" noStops="0" speed="4.98"/>
      <edge id="1o" traveltime="43.83" nSamples="0" density="0.00" occupancy="0.00" noStops="0" speed="11.11"/>
      <edge id="2fi" traveltime="49.70" nSamples="28" density="1.87" occupancy="0.01" noStops="0" speed="5.03"/>
      <edge id="2o" traveltime="43.83" nSamples="0" density="0.00" occupancy="0.00" noStops="0" speed="11.11"/>
      <edge id="3fi" traveltime="50.90" nSamples="56" density="3.73" occupancy="0.02" noStops="0" speed="4.91"/>
      <edge id="3o" traveltime="43.83" nSamples="0" density="0.00" occupancy="0.00" noStops="0" speed="11.11"/>
      <edge id="4fi" traveltime="22.52" nSamples="0" density="0.00" occupancy="0.00" noStops="0" speed="11.11"/>
      <edge id="4o" traveltime="43.83" nSamples="0" density="0.00" occupancy="0.00" noStops="0" speed="11.11"/>
      <edge id="1si" traveltime="17.07" nSamples="0" density="0.00" occupancy="0.00" noStops="0" speed="13.89"/>
      <edge id="2si" traveltime="17.07" nSamples="0" density="0.00" occupancy="0.00" noStops="0" speed="13.89"/>
      <edge id="3si" traveltime="17.07" nSamples="0" density="0.00" occupancy="0.00" noStops="0" speed="13.89"/>
      <edge id="4si" traveltime="17.07" nSamples="0" density="0.00" occupancy="0.00" noStops="0" speed="13.89"/>
   </interval>
   <interval begin="120" end="179" id="dump_60">
   </interval>
   <interval begin="180" end="239" id="dump_60">
   </interval>
   <interval begin="240" end="299" id="dump_60">
   </interval>
   <interval begin="300" end="359" id="dump_60">
   </interval>
   <interval begin="360" end="419" id="dump_60">
   </interval>
   <interval begin="420" end="479" id="dump_60">
   </interval>
   <interval begin="480" end="539" id="dump_60">
   </interval>
   <interval begin="540" end="599" id="dump_60">
   </interval>
   <interval begin="600" end="659" id="dump_60">
   </interval>
   <interval begin="660" end="719" id="dump_60">
   </interval>
   <interval begin="720" end="779" id="dump_60">
   </interval>
   <interval begin="780" end="839" id="dump_60">
   </interval>
   <interval begin="840" end="899" id="dump_60">
   </interval>
   <interval begin="900" end="959" id="dump_60">
      <edge id="1fi" traveltime="31.72" nSamples="567" density="37.78" occupancy="0.19" noStops="0" speed="7.89"/>
      <edge id="1o" traveltime="46.77" nSamples="726" density="24.85" occupancy="0.12" noStops="0" speed="10.41"/>
      <edge id="2fi" traveltime="31.48" nSamples="411" density="27.38" occupancy="0.14" noStops="0" speed="7.95"/>
      <edge id="2o" traveltime="50.36" nSamples="702" density="24.02" occupancy="0.12" noStops="0" speed="9.67"/>
      <edge id="3fi" traveltime="36.27" nSamples="351" density="23.39" occupancy="0.12" noStops="0" speed="6.90"/>
      <edge id="3o" traveltime="49.48" nSamples="551" density="18.86" occupancy="0.09" noStops="0" speed="9.84"/>
      <edge id="4fi" traveltime="22.90" nSamples="372" density="24.79" occupancy="0.12" noStops="0" speed="10.92"/>
      <edge id="4o" traveltime="49.98" nSamples="776" density="26.56" occupancy="0.13" noStops="0" speed="9.74"/>
      <edge id="1si" traveltime="230.37" nSamples="2612" density="183.57" occupancy="0.31" noStops="1244" speed="6.21"/>
      <edge id="2si" traveltime="45.39" nSamples="508" density="35.70" occupancy="0.06" noStops="188" speed="6.69"/>
      <edge id="3si" traveltime="27.21" nSamples="431" density="30.29" occupancy="0.05" noStops="112" speed="9.53"/>
      <edge id="4si" traveltime="138.45" nSamples="1342" density="94.31" occupancy="0.16" noStops="844" speed="5.84"/>
   </interval>
   <interval begin="960" end="1001" id="dump_60">
      <edge id="1fi" traveltime="33.59" nSamples="410" density="39.02" occupancy="0.20" noStops="0" speed="7.45"/>
      <edge id="1o" traveltime="48.56" nSamples="395" density="19.31" occupancy="0.10" noStops="0" speed="10.03"/>
      <edge id="2fi" traveltime="28.70" nSamples="209" density="19.89" occupancy="0.10" noStops="0" speed="8.72"/>
      <edge id="2o" traveltime="49.66" nSamples="504" density="24.64" occupancy="0.12" noStops="0" speed="9.81"/>
      <edge id="3fi" traveltime="35.80" nSamples="285" density="27.13" occupancy="0.14" noStops="0" speed="6.99"/>
      <edge id="3o" traveltime="47.38" nSamples="541" density="26.45" occupancy="0.13" noStops="0" speed="10.28"/>
      <edge id="4fi" traveltime="22.87" nSamples="293" density="27.89" occupancy="0.14" noStops="0" speed="10.94"/>
      <edge id="4o" traveltime="50.90" nSamples="501" density="24.49" occupancy="0.12" noStops="0" speed="9.57"/>
      <edge id="1si" traveltime="229.42" nSamples="1825" density="183.23" occupancy="0.31" noStops="865" speed="5.33"/>
      <edge id="2si" traveltime="31.92" nSamples="336" density="33.73" occupancy="0.06" noStops="64" speed="8.14"/>
      <edge id="3si" traveltime="38.96" nSamples="379" density="38.05" occupancy="0.06" noStops="161" speed="7.20"/>
      <edge id="4si" traveltime="139.20" nSamples="919" density="92.27" occupancy="0.15" noStops="571" speed="5.41"/>
   </interval>
</netstats>
