<?xml version="1.0" encoding="UTF-8"?>

<!-- generated on 2021-09-16 12:54:14 by Eclipse SUMO netedit Version v1_10_0+0721-94326db740
-->

<routes xmlns:xsi="http://www.w3.org/2001/XMLSchema-instance" xsi:noNamespaceSchemaLocation="http://sumo.dlr.de/xsd/routes_file.xsd">
    <vType id="vType1" impatience="-3.00"/>
    <vType id="vType2" impatience="0.00"/>
    <vType id="vType3" impatience="12.00"/>
    <vType id="vType4" impatience="4.50"/>
</routes>
