<?xml version="1.0" encoding="UTF-8"?>

<!-- generated on Fri 02 Nov 2012 09:22:45 AM CET by Netedit Version dev-SVN-r12914
<?xml version="1.0" encoding="UTF-8"?>

<configuration xmlns:xsi="http://www.w3.org/2001/XMLSchema-instance" xsi:noNamespaceSchemaLocation="http://sumo-sim.org/xsd/netedit.exeConfiguration.xsd">

    <input>
        <sumo-net-file value="/home/erdm_ja/debug/roundabout_brett_wiesner/freshPond.net.xml"/>
    </input>

    <output>
        <output-file value="/home/erdm_ja/debug/roundabout_brett_wiesner/freshPond.net.xml"/>
        <plain-output-prefix value="/home/erdm_ja/debug/roundabout_brett_wiesner/input_edges"/>
    </output>

    <processing>
        <no-turnarounds value="true"/>
        <offset.disable-normalization value="true"/>
    </processing>

</configuration>
-->

<edges version="0.13" xmlns:xsi="http://www.w3.org/2001/XMLSchema-instance" xsi:noNamespaceSchemaLocation="http://sumo-sim.org/xsd/edges_file.xsd">
    <edge id="8616185" from="61321724" to="61322089" priority="11" numLanes="2" speed="27.78" shape="1268.42,1237.86 1274.87,1260.26 1280.26,1272.86 1285.99,1281.60 1291.95,1287.31" spreadType="center"/>
    <edge id="128366152#0" from="634899414" to="61317607" priority="11" numLanes="2" speed="27.78" shape="1062.90,1482.27 1074.32,1472.59 1080.97,1468.22 1087.70,1464.44 1098.66,1456.60 1110.20,1446.59 1121.53,1436.88 1134.33,1425.21 1189.61,1376.76 1224.57,1345.28 1251.24,1314.88 1258.52,1303.14 1262.19,1296.06" spreadType="center"/>
    <edge id="8615117" from="61317607" to="61317605" priority="11" numLanes="2" speed="27.78" spreadType="center"/>
    <edge id="8615120#0" from="61322089" to="61323097" priority="11" numLanes="2" speed="27.78" shape="1291.95,1287.31 1295.62,1291.98 1297.01,1295.22 1297.83,1299.94 1297.58,1303.80 1296.29,1308.05 1294.32,1311.45 1291.48,1314.50" spreadType="center"/>
    <edge id="8615120#1" from="61323097" to="1068730291" priority="11" numLanes="2" speed="27.78" spreadType="center"/>
    <edge id="8615120#2" from="1068730291" to="61323525" priority="11" numLanes="2" speed="27.78" shape="1288.26,1316.70 1284.34,1318.26 1279.52,1318.88" spreadType="center"/>
    <edge id="8615591" from="61323525" to="61317607" priority="11" numLanes="2" speed="27.78" shape="1279.52,1318.88 1275.80,1318.47 1272.09,1317.27 1269.24,1315.66 1266.13,1312.95 1263.28,1308.81 1262.37,1306.63 1261.59,1303.51 1261.37,1300.68 1262.19,1296.06" spreadType="center"/>
    <edge id="8615594" from="61317605" to="61322089" priority="11" numLanes="2" speed="27.78" shape="1263.52,1292.14 1267.03,1287.55 1271.55,1284.40 1275.18,1283.07 1278.51,1282.56 1281.71,1282.65 1285.47,1283.48 1288.16,1284.65 1291.95,1287.31" spreadType="center"/>
    <edge id="8615654" from="61322089" to="61322707" priority="7" numLanes="2" speed="27.78" shape="1291.95,1287.31 1298.05,1292.52 1303.04,1294.84 1310.31,1295.66 1320.67,1294.73 1328.44,1292.76" spreadType="center"/>
    <edge id="8615831" from="61322707" to="61323097" priority="7" numLanes="2" speed="27.78" spreadType="center"/>
    <edge id="8616039#0" from="61323525" to="1116467478" priority="11" numLanes="2" speed="27.78" spreadType="center"/>
    <edge id="8616039#1" from="1116467478" to="1418826592" priority="11" numLanes="2" speed="27.78" shape="1254.04,1332.71 1238.70,1342.89 1225.82,1353.56 1193.91,1382.54 1146.30,1423.84 1137.25,1432.87 1126.53,1446.13 1121.04,1455.96 1116.26,1467.97 1113.01,1477.40 1111.15,1487.44 1109.90,1502.48" spreadType="center"/>
    <edge id="8856384" from="61317605" to="61321724" priority="11" numLanes="2" speed="27.78" shape="1263.52,1292.14 1268.57,1273.82 1269.20,1256.19 1268.42,1237.86" spreadType="center"/>
    <edge id="96329516#0" from="1068730291" to="61318628" priority="4" numLanes="1" speed="13.89" shape="1288.26,1316.70 1286.94,1325.19 1285.56,1334.02 1282.78,1346.71" spreadType="center"/>
    <edge id="96329519#0" from="61318628" to="1116467478" priority="4" numLanes="1" speed="13.89" shape="1282.78,1346.71 1270.37,1334.59 1261.07,1332.08 1254.04,1332.71" spreadType="center"/>
</edges>
