<?xml version="1.0" encoding="UTF-8"?>

<!-- generated on 2022-03-07 12:42:40 by Eclipse SUMO netedit Version v1_12_0+1177-f6b46b7e4a3
-->

<routes xmlns:xsi="http://www.w3.org/2001/XMLSchema-instance" xsi:noNamespaceSchemaLocation="http://sumo.dlr.de/xsd/routes_file.xsd">
    <!-- Vehicles, persons and containers (sorted by depart) -->
    <flow id="flow_7" begin="0.00" from="gneE2" to="gneE5" end="100.00" probability="1.00"/>
    <flow id="flow_8" begin="0.00" from="gneE2" to="gneE5" end="100.00" probability="0.30"/>
</routes>
