<routes>
   <route id="0" multi_ref="x" edges="beg middle end rend"/>

   <vehicle id="0" route="0" depart="0"/>
   <vehicle id="1" route="0" depart="10"/>
   <vehicle id="2" route="0" depart="20"/>
   <vehicle id="3" route="0" depart="30"/>
   <vehicle id="4" route="0" depart="40"/>
   <vehicle id="5" route="0" depart="50"/>
   <vehicle id="6" route="0" depart="60"/>
   <vehicle id="7" route="0" depart="70"/>
   <vehicle id="8" route="0" depart="80"/>
   <vehicle id="9" route="0" depart="90"/>

</routes>
