<?xml version="1.0" encoding="UTF-8"?>

<!-- generated on 2026-01-21T01:21:23.139562+01:00 by Eclipse SUMO netconvert v1_25_0+1116-1a3cca9b2c4
This data file and the accompanying materials
are made available under the terms of the Eclipse Public License v2.0
which accompanies this distribution, and is available at
http://www.eclipse.org/legal/epl-v20.html
This file may also be made available under the following Secondary
Licenses when the conditions for such availability set forth in the Eclipse
Public License 2.0 are satisfied: GNU General Public License, version 2
or later which is available at
https://www.gnu.org/licenses/old-licenses/gpl-2.0-standalone.html
SPDX-License-Identifier: EPL-2.0 OR GPL-2.0-or-later
<netconvertConfiguration xmlns:xsi="http://www.w3.org/2001/XMLSchema-instance" xsi:noNamespaceSchemaLocation="http://sumo.dlr.de/xsd/netconvertConfiguration.xsd">

    <input>
        <osm-files value="osm.xml.gz"/>
    </input>

    <output>
        <write-license value="true"/>
        <ptstop-output value="additional.xml"/>
        <ptline-output value="ptlines.xml"/>
    </output>

    <projection>
        <proj.utm value="true"/>
    </projection>

    <processing>
        <ptstop-output.no-bidi value="true"/>
    </processing>

    <junctions>
        <no-internal-links value="true"/>
    </junctions>

    <railway>
        <railway.topology.repair value="true"/>
    </railway>

    <report>
        <xml-validation value="never"/>
    </report>

</netconvertConfiguration>
-->

<net version="1.20" junctionCornerDetail="5" limitTurnSpeed="5.50" xmlns:xsi="http://www.w3.org/2001/XMLSchema-instance" xsi:noNamespaceSchemaLocation="http://sumo.dlr.de/xsd/net_file.xsd">

    <location netOffset="-683020.26,-5645429.57" convBoundary="0.00,0.00,1066.32,315.45" origBoundary="11.604602,50.931422,11.619905,50.934180" projParameter="+proj=utm +zone=32 +ellps=WGS84 +datum=WGS84 +units=m +no_defs"/>

    <type id="highway.residential" priority="3" numLanes="1" speed="13.89" disallow="tram rail_urban rail rail_electric rail_fast ship container cable_car subway aircraft wheelchair scooter drone" oneway="0"/>
    <type id="railway.tram" priority="17" numLanes="1" speed="13.89" allow="tram" oneway="1"/>

    <edge id="-194083396" from="344852621" to="344852622" priority="17" type="railway.tram" spreadType="center" shape="84.20,127.97 68.77,94.44 57.17,69.49 52.09,59.05 46.24,49.01 39.64,39.44 32.34,30.39 26.53,24.09 20.39,18.12 13.93,12.50 0.00,0.00" bidi="194083396">
        <lane id="-194083396_0" index="0" allow="tram" speed="13.89" length="155.32" shape="84.14,127.83 68.77,94.44 57.17,69.49 52.09,59.05 46.24,49.01 39.64,39.44 32.34,30.39 26.53,24.09 20.39,18.12 13.93,12.50 0.00,0.00"/>
    </edge>
    <edge id="-239198955" from="344852619" to="1720816044" priority="17" type="railway.tram" spreadType="center" shape="422.56,289.14 364.24,298.65 322.50,305.47 305.67,308.21 268.43,314.29 238.64,315.45" bidi="239198955">
        <lane id="-239198955_0" index="0" allow="tram" speed="13.89" length="185.98" shape="422.42,289.16 364.24,298.65 322.50,305.47 305.67,308.21 268.43,314.29 238.87,315.44"/>
    </edge>
    <edge id="-47069119" from="2045933582" to="344852621" priority="17" type="railway.tram" spreadType="center" shape="168.23,283.72 167.97,283.42 145.25,257.03 129.03,223.33 91.57,143.75 84.20,127.97" bidi="47069119">
        <lane id="-47069119_0" index="0" allow="tram" speed="13.89" length="177.99" shape="168.10,283.57 167.97,283.42 145.25,257.03 129.03,223.33 91.57,143.75 84.26,128.11"/>
    </edge>
    <edge id="-47069121#0" from="271142354" to="344852619" priority="17" type="railway.tram" spreadType="center" shape="1043.83,284.69 846.28,259.20 767.12,252.08 698.92,250.56 673.97,251.45 637.15,256.03 483.85,280.71 450.70,285.17 422.56,289.14" bidi="47069121#0">
        <lane id="-47069121#0_0" index="0" allow="tram" speed="13.89" length="626.10" shape="1040.67,284.28 846.28,259.20 767.12,252.08 698.92,250.56 673.97,251.45 637.15,256.03 483.85,280.71 450.70,285.17 422.70,289.12"/>
    </edge>
    <edge id="-47069121#1" from="2621259936" to="271142354" priority="17" type="railway.tram" spreadType="center" bidi="47069121#1">
        <lane id="-47069121#1_0" index="0" allow="tram" speed="13.89" length="22.60" shape="1066.32,286.90 1046.88,284.99"/>
    </edge>
    <edge id="194083390" from="1720816044" to="2045933582" priority="17" type="railway.tram" spreadType="center" shape="238.64,315.45 220.37,314.27 206.04,311.75 199.23,309.30 192.45,306.13 180.74,297.95 168.23,283.72">
        <lane id="194083390_0" index="0" allow="tram" speed="13.89" length="80.81" shape="235.90,315.27 220.37,314.27 206.04,311.75 199.23,309.30 192.45,306.13 180.74,297.95 168.36,283.87"/>
    </edge>
    <edge id="194083396" from="344852622" to="344852621" priority="17" type="railway.tram" spreadType="center" shape="0.00,0.00 13.93,12.50 20.39,18.12 26.53,24.09 32.34,30.39 39.64,39.44 46.24,49.01 52.09,59.05 57.17,69.49 68.77,94.44 84.20,127.97" bidi="-194083396">
        <lane id="194083396_0" index="0" allow="tram" speed="13.89" length="155.32" shape="0.00,0.00 13.93,12.50 20.39,18.12 26.53,24.09 32.34,30.39 39.64,39.44 46.24,49.01 52.09,59.05 57.17,69.49 68.77,94.44 84.14,127.83"/>
    </edge>
    <edge id="239198955" from="1720816044" to="344852619" priority="17" type="railway.tram" spreadType="center" shape="238.64,315.45 268.43,314.29 305.67,308.21 322.50,305.47 364.24,298.65 422.56,289.14" bidi="-239198955">
        <lane id="239198955_0" index="0" allow="tram" speed="13.89" length="185.98" shape="238.87,315.44 268.43,314.29 305.67,308.21 322.50,305.47 364.24,298.65 422.42,289.16"/>
    </edge>
    <edge id="24906633#0" from="2478839126" to="271142354" priority="3" type="highway.residential" spreadType="center">
        <lane id="24906633#0_0" index="0" disallow="tram rail_urban rail rail_electric rail_fast ship container cable_car subway aircraft wheelchair scooter drone" speed="8.33" length="4.89" shape="1043.19,289.54 1043.42,287.77"/>
    </edge>
    <edge id="24906633#1" from="271142354" to="304346448" priority="3" type="highway.residential" spreadType="center" shape="1043.83,284.69 1044.02,282.28 1044.26,279.05 1046.99,242.56 1049.97,202.81">
        <lane id="24906633#1_0" index="0" disallow="tram rail_urban rail rail_electric rail_fast ship container cable_car subway aircraft wheelchair scooter drone" speed="8.33" length="82.11" shape="1044.08,281.52 1044.26,279.05 1046.99,242.56 1049.97,202.81"/>
    </edge>
    <edge id="47069119" from="344852621" to="2045933582" priority="17" type="railway.tram" spreadType="center" shape="84.20,127.97 91.57,143.75 129.03,223.33 145.25,257.03 167.97,283.42 168.23,283.72" bidi="-47069119">
        <lane id="47069119_0" index="0" allow="tram" speed="13.89" length="177.99" shape="84.26,128.11 91.57,143.75 129.03,223.33 145.25,257.03 167.97,283.42 168.10,283.57"/>
    </edge>
    <edge id="47069121#0" from="344852619" to="271142354" priority="17" type="railway.tram" spreadType="center" shape="422.56,289.14 450.70,285.17 483.85,280.71 637.15,256.03 673.97,251.45 698.92,250.56 767.12,252.08 846.28,259.20 1043.83,284.69" bidi="-47069121#0">
        <lane id="47069121#0_0" index="0" allow="tram" speed="13.89" length="626.10" shape="422.70,289.12 450.70,285.17 483.85,280.71 637.15,256.03 673.97,251.45 698.92,250.56 767.12,252.08 846.28,259.20 1040.67,284.28"/>
    </edge>
    <edge id="47069121#1" from="271142354" to="2621259936" priority="17" type="railway.tram" spreadType="center" bidi="-47069121#1">
        <lane id="47069121#1_0" index="0" allow="tram" speed="13.89" length="22.60" shape="1046.88,284.99 1066.32,286.90"/>
    </edge>
    <edge id="47069122" from="2045933582" to="1720816044" priority="17" type="railway.tram" spreadType="center" shape="168.23,283.72 182.99,294.16 193.29,299.55 198.05,301.66 203.21,303.65 212.15,307.61 217.94,310.16 238.64,315.45">
        <lane id="47069122_0" index="0" allow="tram" speed="13.89" length="77.91" shape="168.39,283.83 182.99,294.16 193.29,299.55 198.05,301.66 203.21,303.65 212.15,307.61 217.94,310.16 235.94,314.76"/>
    </edge>

    <junction id="1720816044" type="priority" x="238.64" y="315.45" incLanes="-239198955_0 47069122_0" intLanes="" shape="238.94,317.04 238.81,313.84 237.77,313.76 237.42,313.64 237.07,313.49 236.65,313.32 236.06,313.14 235.78,316.87 236.95,316.97 237.35,317.02 237.76,317.05 238.26,317.06">
        <request index="0" response="00" foes="00"/>
        <request index="1" response="00" foes="00"/>
    </junction>
    <junction id="2045933582" type="priority" x="168.23" y="283.72" incLanes="194083390_0 47069119_0" intLanes="" shape="167.41,285.21 169.31,282.53 166.89,284.62">
        <request index="0" response="00" foes="00"/>
        <request index="1" response="00" foes="00"/>
    </junction>
    <junction id="2478839126" type="dead_end" x="1043.19" y="289.54" incLanes="" intLanes="" shape="1044.78,289.75 1041.60,289.33"/>
    <junction id="2621259936" type="priority" x="1066.32" y="286.90" incLanes="47069121#1_0" intLanes="" shape="1066.48,285.31 1066.16,288.49 1066.48,285.31 1066.16,288.49">
        <request index="0" response="0" foes="0"/>
    </junction>
    <junction id="271142354" type="rail_crossing" x="1043.83" y="284.69" incLanes="-47069121#1_0 47069121#0_0 24906633#0_0" intLanes="" shape="1046.73,286.58 1047.04,283.40 1046.23,283.14 1045.95,282.89 1045.77,282.55 1045.68,282.14 1045.67,281.64 1042.48,281.39 1042.25,282.20 1042.03,282.47 1041.72,282.64 1041.34,282.71 1040.88,282.70 1040.47,285.87 1041.32,286.15 1041.59,286.39 1041.77,286.71 1041.85,287.10 1041.84,287.56 1045.01,287.98 1045.29,287.14 1045.54,286.86 1045.86,286.67 1046.26,286.58">
        <request index="0" response="000" foes="100"/>
        <request index="1" response="000" foes="100"/>
        <request index="2" response="011" foes="011"/>
    </junction>
    <junction id="304346448" type="dead_end" x="1049.97" y="202.81" incLanes="24906633#1_0" intLanes="" shape="1048.37,202.69 1051.57,202.93"/>
    <junction id="344852619" type="priority" x="422.56" y="289.14" incLanes="-47069121#0_0 239198955_0" intLanes="" shape="422.92,290.70 422.47,287.54 422.17,287.58 422.68,290.74">
        <request index="0" response="00" foes="00"/>
        <request index="1" response="00" foes="00"/>
    </junction>
    <junction id="344852621" type="priority" x="84.20" y="127.97" incLanes="-47069119_0 194083396_0" intLanes="" shape="82.81,128.78 85.71,127.43 85.59,127.17 82.68,128.50">
        <request index="0" response="00" foes="00"/>
        <request index="1" response="00" foes="00"/>
    </junction>
    <junction id="344852622" type="priority" x="0.00" y="0.00" incLanes="-194083396_0" intLanes="" shape="-1.07,1.19 1.07,-1.19 -1.07,1.19 1.07,-1.19">
        <request index="0" response="0" foes="0"/>
    </junction>

    <connection from="-194083396" to="194083396" fromLane="0" toLane="0" speed="0.10" dir="t" state="M"/>
    <connection from="-239198955" to="194083390" fromLane="0" toLane="0" dir="s" state="M"/>
    <connection from="-47069119" to="-194083396" fromLane="0" toLane="0" dir="s" state="M"/>
    <connection from="-47069121#0" to="-239198955" fromLane="0" toLane="0" dir="s" state="M"/>
    <connection from="-47069121#1" to="-47069121#0" fromLane="0" toLane="0" tl="271142354" linkIndex="-1" dir="s" state="M"/>
    <connection from="194083390" to="-47069119" fromLane="0" toLane="0" dir="s" state="M"/>
    <connection from="194083396" to="47069119" fromLane="0" toLane="0" dir="s" state="M"/>
    <connection from="239198955" to="47069121#0" fromLane="0" toLane="0" dir="s" state="M"/>
    <connection from="24906633#0" to="24906633#1" fromLane="0" toLane="0" tl="271142354" linkIndex="0" dir="s" state="o"/>
    <connection from="47069119" to="47069122" fromLane="0" toLane="0" dir="s" state="M"/>
    <connection from="47069121#0" to="47069121#1" fromLane="0" toLane="0" tl="271142354" linkIndex="-1" dir="s" state="M"/>
    <connection from="47069121#1" to="-47069121#1" fromLane="0" toLane="0" speed="0.10" dir="t" state="M"/>
    <connection from="47069122" to="239198955" fromLane="0" toLane="0" dir="s" state="M"/>

</net>
