<?xml version="1.0" encoding="UTF-8"?>

<!-- generated on 21.07.2017 10:58:26 by Netedit Version dev-SVN-r22743
<?xml version="1.0" encoding="UTF-8"?>

<configuration xmlns:xsi="http://www.w3.org/2001/XMLSchema-instance" xsi:noNamespaceSchemaLocation="http://sumo.dlr.de/xsd/netconvertConfiguration.xsd">

    <input>
        <node-files value="C:\Projects\SUMO_Trunk\tests\netedit\bugs\ticket3149\input_net.nod.xml"/>
        <edge-files value="C:\Projects\SUMO_Trunk\tests\netedit\bugs\ticket3149\input_net.edg.xml"/>
        <connection-files value="C:\Projects\SUMO_Trunk\tests\netedit\bugs\ticket3149\input_net.con.xml"/>
    </input>

    <output>
        <output-file value="C:\Projects\SUMO_Trunk\tests\netedit\bugs\ticket3149\input_net.net.xml"/>
        <plain-output-prefix value="C:\Projects\SUMO_Trunk\tests\netedit\bugs\ticket3149\input_net"/>
    </output>

    <processing>
        <no-internal-links value="false"/>
        <no-turnarounds value="true"/>
        <offset.disable-normalization value="true"/>
    </processing>

</configuration>
-->

<edges version="0.27" xmlns:xsi="http://www.w3.org/2001/XMLSchema-instance" xsi:noNamespaceSchemaLocation="http://sumo.dlr.de/xsd/edges_file.xsd">
    <edge id="1" from="Center" to="A" priority="-1" numLanes="3" speed="13.90">
        <lane index="0" allow="pedestrian"/>
        <lane index="1" disallow="pedestrian"/>
        <lane index="2" disallow="pedestrian"/>
    </edge>
    <edge id="2" from="Center" to="B" priority="-1" numLanes="3" speed="13.90">
        <lane index="0" allow="pedestrian"/>
        <lane index="1" disallow="pedestrian"/>
        <lane index="2" disallow="pedestrian"/>
    </edge>
    <edge id="3" from="Center" to="C" priority="-1" numLanes="3" speed="13.90">
        <lane index="0" allow="pedestrian"/>
        <lane index="1" disallow="pedestrian"/>
        <lane index="2" disallow="pedestrian"/>
    </edge>
    <edge id="4" from="Center" to="D" priority="-1" numLanes="3" speed="13.90">
        <lane index="0" allow="pedestrian"/>
        <lane index="1" disallow="pedestrian"/>
        <lane index="2" disallow="pedestrian"/>
    </edge>
    <edge id="5" from="A" to="Center" priority="-1" numLanes="3" speed="13.90">
        <lane index="0" allow="pedestrian"/>
        <lane index="1" disallow="pedestrian"/>
        <lane index="2" disallow="pedestrian"/>
    </edge>
    <edge id="6" from="B" to="Center" priority="-1" numLanes="3" speed="13.90">
        <lane index="0" allow="pedestrian"/>
        <lane index="1" disallow="pedestrian"/>
        <lane index="2" disallow="pedestrian"/>
    </edge>
    <edge id="7" from="C" to="Center" priority="-1" numLanes="3" speed="13.90">
        <lane index="0" allow="pedestrian"/>
        <lane index="1" disallow="pedestrian"/>
        <lane index="2" disallow="pedestrian"/>
    </edge>
    <edge id="8" from="D" to="Center" priority="-1" numLanes="3" speed="13.90">
        <lane index="0" allow="pedestrian"/>
        <lane index="1" disallow="pedestrian"/>
        <lane index="2" disallow="pedestrian"/>
    </edge>
</edges>
