<routes xmlns:xsi="http://www.w3.org/2001/XMLSchema-instance" xsi:noNamespaceSchemaLocation="https://sumo.dlr.de/xsd/routes_file.xsd">
    <vType id="braker" emergencyDecel="8.5"/>
    <vehicle id="brakingVeh" type="braker" depart="0" departLane="0" departSpeed="13" arrivalPos="30">
        <route edges="gneE0" />
        <stop lane="gneE0_0" endPos="20" duration="1" />
        <param key="has.ssm.device" value="true"/>
        <param key="device.ssm.measures" value="BR"/>
        <param key="device.ssm.thresholds" value="0.1"/>
        <param key="device.ssm.file" value="ssm.xml"/>
    </vehicle>
</routes>
