<?xml version="1.0" encoding="UTF-8"?>

<!-- generated on 2022-06-03 16:08:08 by Eclipse SUMO netedit Version v1_13_0+0610-e5b7f68bfcb
-->

<additional xmlns:xsi="http://www.w3.org/2001/XMLSchema-instance" xsi:noNamespaceSchemaLocation="http://sumo.dlr.de/xsd/additional_file.xsd">
    <!-- Detectors -->
    <inductionLoop id="detector1" lane="3_1" pos="30.00" period="100.00" file="E1Output.txt" friendlyPos="1"/>
    <inductionLoop id="detector2" lane="3_2" pos="5.00" period="100.00" file="E1Output.txt" friendlyPos="1"/>
    <inductionLoop id="detector3" lane="8_1" pos="35.00" period="100.00" file="E1Output.txt" friendlyPos="1"/>
    <inductionLoop id="detector4" lane="8_2" pos="10.00" period="100.00" file="E1Output.txt" friendlyPos="1"/>
    <inductionLoop id="detector5" lane="4_1" pos="30.00" period="100.00" file="E1Output.txt" friendlyPos="1"/>
    <inductionLoop id="detector6" lane="4_2" pos="5.00" period="100.00" file="E1Output.txt" friendlyPos="1"/>
    <inductionLoop id="detector7" lane="7_1" pos="35.00" period="100.00" file="E1Output.txt" friendlyPos="1"/>
    <inductionLoop id="detector8" lane="7_2" pos="10.00" period="100.00" file="E1Output.txt" friendlyPos="1"/>
    <!-- Shapes -->
    <poly id="poly_0" color="green" fill="1" layer="0.00" shape="35.000000,63.000000 29.000000,63.000000 29.000000,69.000000 35.000000,69.000000 35.000000,63.000000"/>
    <poi id="POI_0" color="red" layer="3.00" x="26.00" y="63.00" width="0.00" height="0.00"/>
    <poi id="POI_1" color="red" layer="3.00" x="26.00" y="69.00" width="0.00" height="0.00"/>
    <poi id="POI_2" color="red" layer="3.00" x="29.00" y="72.00" width="0.00" height="0.00"/>
    <poi id="POI_3" color="red" layer="3.00" x="35.00" y="72.00" width="0.00" height="0.00"/>
    <poi id="POI_4" color="red" layer="3.00" lane="6_1" pos="28.00" width="0.00" height="0.00"/>
    <poi id="POI_5" color="red" layer="3.00" lane="3_1" pos="12.90" width="0.00" height="0.00"/>
    <!-- TAZs -->
    <taz id="TAZ" shape="70.00,30.00 60.00,30.00 60.00,40.00 70.00,40.00 70.00,30.00" color="orange"/>
</additional>
