<additional xmlns:xsi="http://www.w3.org/2001/XMLSchema-instance" xsi:noNamespaceSchemaLocation="http://sumo.dlr.de/xsd/additional_file.xsd">
    <timedEvent dest="tls_state_switch.xml" source="0" type="SaveTLSSwitchStates"/>
</additional>
