<?xml version="1.0" encoding="UTF-8"?>

<!-- generated on 23.01.2019 15:59:47 by Eclipse SUMO netedit Version v1_1_0+0076-a16c2aae75
<configuration xmlns:xsi="http://www.w3.org/2001/XMLSchema-instance" xsi:noNamespaceSchemaLocation="http://sumo.dlr.de/xsd/netconvertConfiguration.xsd">

    <input>
        <sumo-net-file value="C:/Users/SUMO-Test/.texttest/tmp/netedit.gui.1_from_23Jan154612.2796/netedit.gui/shapeElements/poly/load/shape\input_net.net.xml"/>
    </input>

    <output>
        <output-file value="C:/Users/SUMO-Test/.texttest/tmp/netedit.gui.1_from_23Jan154612.2796/netedit.gui/shapeElements/poly/load/shape\net.net.xml"/>
    </output>

    <processing>
        <geometry.max-grade.fix value="false"/>
        <offset.disable-normalization value="true"/>
        <lefthand value="false"/>
    </processing>

    <junctions>
        <no-turnarounds value="true"/>
        <junctions.corner-detail value="5"/>
        <junctions.limit-turn-speed value="5.5"/>
        <rectangular-lane-cut value="false"/>
    </junctions>

    <pedestrian>
        <walkingareas value="false"/>
    </pedestrian>

    <netedit>
        <additional-files value="C:/Users/SUMO-Test/.texttest/tmp/netedit.gui.1_from_23Jan154612.2796/netedit.gui/shapeElements/poly/load/shape\input_additionals.add.xml"/>
        <additionals-output value="C:/Users/SUMO-Test/.texttest/tmp/netedit.gui.1_from_23Jan154612.2796/netedit.gui/shapeElements/poly/load/shape\additionals.xml"/>
        <demandelements-output value="C:/Users/SUMO-Test/.texttest/tmp/netedit.gui.1_from_23Jan154612.2796/netedit.gui/shapeElements/poly/load/shape\routes.xml"/>
    </netedit>

    <visualisation>
        <gui-settings-file value="C:/Users/SUMO-Test/.texttest/tmp/netedit.gui.1_from_23Jan154612.2796/netedit.gui/shapeElements/poly/load/shape\gui-settings.xml"/>
        <window-size value="700,500"/>
        <window-pos value="50,50"/>
        <gui-testing value="true"/>
        <gui-testing-debug value="true"/>
        <gui-testing-debug-gl value="true"/>
    </visualisation>

    <report>
        <no-warnings value="true"/>
        <error-log value="C:/Users/SUMO-Test/.texttest/tmp/netedit.gui.1_from_23Jan154612.2796/netedit.gui/shapeElements/poly/load/shape\log.txt"/>
    </report>

</configuration>
-->

<additional xmlns:xsi="http://www.w3.org/2001/XMLSchema-instance" xsi:noNamespaceSchemaLocation="http://sumo.dlr.de/xsd/additional_file.xsd">
    <poly id="poly_03" color="green" fill="1" layer="0.00" shape="10.000000,-40.000000 20.000000,-40.000000 20.000000,-50.000000 20.000000,-50.000000 10.000000,-50.000000 10.000000,-50.000000 10.000000,-40.000000"/>
    <poly id="poly_04" color="green" fill="1" layer="0.00" shape="40.000000,-40.000000"/>
    <poly id="poly_05" color="green" fill="1" layer="0.00" shape="-70.000000,40.000000 -60.000000,40.000000 -70.000000,40.000000 -60.000000,40.000000"/>
    <poly id="poly_06" color="green" fill="1" layer="0.00" shape="-70.000000,20.000000 -60.000000,20.000000"/>
    <poly id="poly_07" color="green" fill="1" layer="0.00" shape="-50.000000,40.000000 -40.000000,40.000000 -40.000000,30.000000 -50.000000,30.000000 -50.000000,40.000000"/>
</additional>
