<?xml version="1.0" encoding="UTF-8"?>

<!-- generated on 2023-06-06 07:38:35 by Eclipse SUMO sumo Version v1_17_0+0729-0f1b512
<configuration xmlns:xsi="http://www.w3.org/2001/XMLSchema-instance" xsi:noNamespaceSchemaLocation="http://sumo.dlr.de/xsd/sumoConfiguration.xsd">

    <input>
        <net-file value="net.net.xml"/>
        <route-files value="input_routes.rou.xml"/>
    </input>

    <output>
        <output-prefix value="3."/>
        <statistic-output value="stats.xml"/>
    </output>

    <report>
        <duration-log.statistics value="true"/>
        <no-step-log value="true"/>
    </report>

    <random_number>
        <seed value="3"/>
    </random_number>

</configuration>
-->

<statistics xmlns:xsi="http://www.w3.org/2001/XMLSchema-instance" xsi:noNamespaceSchemaLocation="http://sumo.dlr.de/xsd/statistic_file.xsd">
    <performance clockBegin="1686029915.00" clockEnd="1686029915.01" clockDuration="0.01" traciDuration="0.00" realTimeFactor="8000.00" vehicleUpdatesPerSecond="7800.00" personUpdatesPerSecond="0.00" begin="0.00" end="40.00" duration="40.00"/>
    <vehicles loaded="1" inserted="1" running="0" waiting="0"/>
    <teleports total="0" jam="0" yield="0" wrongLane="0"/>
    <safety collisions="0" emergencyStops="0" emergencyBraking="0"/>
    <persons loaded="0" running="0" jammed="0"/>
    <personTeleports total="0" abortWait="0" wrongDest="0"/>
    <vehicleTripStatistics count="1" routeLength="323.30" speed="8.29" duration="39.00" waitingTime="0.00" timeLoss="6.67" departDelay="0.00" departDelayWaiting="-1.00" totalTravelTime="39.00" totalDepartDelay="0.00"/>
    <pedestrianStatistics number="0" routeLength="0.00" duration="0.00" timeLoss="0.00"/>
    <rideStatistics number="0"/>
    <transportStatistics number="0"/>
</statistics>
