<?xml version="1.0" encoding="UTF-8"?>

<!-- generated on 2022-11-17 11:11:13.477920 by tlsCycleAdaptation.py v1_15_0+0348-e6bf7d1
<configuration>
    <begin value="25200"/>
    <net-file value="net.net.xml"/>
    <output-file value="out.add.xml"/>
    <program value="newProg"/>
    <route-files value="input_routes.rou.xml"/>
    <sorted value="True"/>
    <unified-cycle value="True"/>
</configuration>
-->

<additional xmlns:xsi="http://www.w3.org/2001/XMLSchema-instance" xsi:noNamespaceSchemaLocation="http://sumo.dlr.de/xsd/additional_file.xsd">
    <tlLogic id="cluster_1037005497_2683362682" type="static" programID="newProg" offset="0">
        <phase duration="52" state="GGGGGGrrrrrrrrrrrrGGGGGGrrrrrrrrrrrr"/>
        <phase duration="6" state="yyyyyyrrrrrrrrrrrryyyyyyrrrrrrrrrrrr"/>
        <phase duration="42" state="rrrrrrGGrrrrrrrrrrrrrrrrGGrrrrrrrrrr"/>
        <phase duration="6" state="rrrrrryyrrrrrrrrrrrrrrrryyrrrrrrrrrr"/>
        <phase duration="14" state="rrrrrrrrGGGGGGggggrrrrrrrrGGGGGGgggg"/>
        <phase duration="6" state="rrrrrrrryyyyyyyyyyrrrrrrrryyyyyyyyyy"/>
    </tlLogic>
</additional>
