<?xml version="1.0" encoding="UTF-8"?>

<!-- generated on 19.02.2021 08:50:55 by Eclipse SUMO netedit Version v1_8_0+1277-97d89271e5
<configuration xmlns:xsi="http://www.w3.org/2001/XMLSchema-instance" xsi:noNamespaceSchemaLocation="http://sumo.dlr.de/xsd/netconvertConfiguration.xsd">

    <input>
        <sumo-net-file value="C:\Users\alva_pa\.texttest\tmp\netedit.gui.19Feb084702.23160\netedit.gui\additionalElements\e1InstantDetector\create\vtypes\input_net.net.xml"/>
    </input>

    <output>
        <output-file value="C:\Users\alva_pa\.texttest\tmp\netedit.gui.19Feb084702.23160\netedit.gui\additionalElements\e1InstantDetector\create\vtypes\net.net.xml"/>
    </output>

    <processing>
        <geometry.min-radius.fix.railways value="false"/>
        <geometry.max-grade.fix value="false"/>
        <offset.disable-normalization value="true"/>
        <lefthand value="false"/>
    </processing>

    <junctions>
        <no-turnarounds value="true"/>
        <junctions.corner-detail value="5"/>
        <junctions.limit-turn-speed value="5.5"/>
        <rectangular-lane-cut value="false"/>
    </junctions>

    <pedestrian>
        <walkingareas value="false"/>
    </pedestrian>

    <netedit>
        <additional-files value="C:\Users\alva_pa\.texttest\tmp\netedit.gui.19Feb084702.23160\netedit.gui\additionalElements\e1InstantDetector\create\vtypes\additionals.xml"/>
        <additionals-output value="C:\Users\alva_pa\.texttest\tmp\netedit.gui.19Feb084702.23160\netedit.gui\additionalElements\e1InstantDetector\create\vtypes\additionals.xml"/>
        <route-files value="C:\Users\alva_pa\.texttest\tmp\netedit.gui.19Feb084702.23160\netedit.gui\additionalElements\e1InstantDetector\create\vtypes\routes.xml"/>
        <demandelements-output value="C:\Users\alva_pa\.texttest\tmp\netedit.gui.19Feb084702.23160\netedit.gui\additionalElements\e1InstantDetector\create\vtypes\routes.xml"/>
        <data-files value="C:\Users\alva_pa\.texttest\tmp\netedit.gui.19Feb084702.23160\netedit.gui\additionalElements\e1InstantDetector\create\vtypes\datas.xml"/>
        <dataelements-output value="C:\Users\alva_pa\.texttest\tmp\netedit.gui.19Feb084702.23160\netedit.gui\additionalElements\e1InstantDetector\create\vtypes\datas.xml"/>
    </netedit>

    <visualisation>
        <gui-settings-file value="C:\Users\alva_pa\.texttest\tmp\netedit.gui.19Feb084702.23160\netedit.gui\additionalElements\e1InstantDetector\create\vtypes\gui-settings.xml"/>
        <window-size value="936,697"/>
        <window-pos value="50,50"/>
        <gui-testing value="true"/>
        <gui-testing-debug value="true"/>
        <gui-testing.setting-output value="C:\Users\alva_pa\.texttest\tmp\netedit.gui.19Feb084702.23160\netedit.gui\additionalElements\e1InstantDetector\create\vtypes\guisettingsoutput.xml"/>
    </visualisation>

    <report>
        <no-warnings value="true"/>
        <aggregate-warnings value="5"/>
        <error-log value="C:\Users\alva_pa\.texttest\tmp\netedit.gui.19Feb084702.23160\netedit.gui\additionalElements\e1InstantDetector\create\vtypes\log.txt"/>
    </report>

</configuration>
-->

<additional xmlns:xsi="http://www.w3.org/2001/XMLSchema-instance" xsi:noNamespaceSchemaLocation="http://sumo.dlr.de/xsd/additional_file.xsd">
    <instantInductionLoop id="instantInductionLoop_gneE1_0_0" lane="gneE1_0" pos="17.00" file="instantInductionLoop_gneE1_0_0.xml" vTypes="type1 type2 type3"/>
</additional>
