<?xml version="1.0" encoding="UTF-8"?>
<!-- generated on 2017-10-18 14:07:13.789000 by $Id: randomTrips.py 26301 2017-10-02 20:48:38Z behrisch $
  options: -n net.net.xml -e 10 -s 42 <doubleminus>vclass passenger <doubleminus>vehicle-class passenger <doubleminus>trip-attributes color="blue" departPos="last" speedDev="0.2"
-->
<routes xmlns:xsi="http://www.w3.org/2001/XMLSchema-instance" xsi:noNamespaceSchemaLocation="http://sumo.dlr.de/xsd/routes_file.xsd">
    <vType id="passenger" vClass="passenger" color="blue" speedDev="0.2"/>
    <trip id="0" depart="0.00" from="3fi" to="2o" departPos="last" type="passenger"/>
    <trip id="1" depart="1.00" from="2si" to="2o" departPos="last" type="passenger"/>
    <trip id="2" depart="2.00" from="3fi" to="3o" departPos="last" type="passenger"/>
    <trip id="3" depart="3.00" from="3si" to="2o" departPos="last" type="passenger"/>
    <trip id="4" depart="4.00" from="2si" to="2o" departPos="last" type="passenger"/>
    <trip id="5" depart="5.00" from="2fi" to="3o" departPos="last" type="passenger"/>
    <trip id="6" depart="6.00" from="2fi" to="2o" departPos="last" type="passenger"/>
    <trip id="7" depart="7.00" from="3fi" to="3o" departPos="last" type="passenger"/>
    <trip id="8" depart="8.00" from="2fi" to="3o" departPos="last" type="passenger"/>
    <trip id="9" depart="9.00" from="3si" to="2o" departPos="last" type="passenger"/>
</routes>
