<?xml version="1.0" encoding="UTF-8"?>

<!-- generated on 16.10.2018 13:08:16 by Eclipse SUMO netedit Version v1_0_1+0269-07f0f88abc
<configuration xmlns:xsi="http://www.w3.org/2001/XMLSchema-instance" xsi:noNamespaceSchemaLocation="http://sumo.dlr.de/xsd/netconvertConfiguration.xsd">

    <input>
        <sumo-net-file value="C:/Users/SUMO-Test/.texttest/tmp/netedit.gui.1_from_16Oct125820.1772/netedit.gui/additionalElements/containerStop/lock_unlock\input_net.net.xml"/>
    </input>

    <output>
        <output-file value="C:/Users/SUMO-Test/.texttest/tmp/netedit.gui.1_from_16Oct125820.1772/netedit.gui/additionalElements/containerStop/lock_unlock\net.net.xml"/>
    </output>

    <processing>
        <offset.disable-normalization value="true"/>
        <lefthand value="false"/>
    </processing>

    <junctions>
        <no-turnarounds value="true"/>
        <junctions.corner-detail value="5"/>
        <junctions.limit-turn-speed value="5.5"/>
        <rectangular-lane-cut value="false"/>
    </junctions>

    <pedestrian>
        <walkingareas value="false"/>
    </pedestrian>

    <netedit>
        <additionals-output value="C:/Users/SUMO-Test/.texttest/tmp/netedit.gui.1_from_16Oct125820.1772/netedit.gui/additionalElements/containerStop/lock_unlock\additionals.xml"/>
        <shapes-output value="C:/Users/SUMO-Test/.texttest/tmp/netedit.gui.1_from_16Oct125820.1772/netedit.gui/additionalElements/containerStop/lock_unlock\shapes.xml"/>
    </netedit>

    <visualisation>
        <gui-settings-file value="C:/Users/SUMO-Test/.texttest/tmp/netedit.gui.1_from_16Oct125820.1772/netedit.gui/additionalElements/containerStop/lock_unlock\gui-settings.xml"/>
        <window-size value="700,500"/>
        <window-pos value="50,50"/>
        <gui-testing value="true"/>
        <gui-testing-debug value="true"/>
    </visualisation>

    <report>
        <no-warnings value="true"/>
        <error-log value="C:/Users/SUMO-Test/.texttest/tmp/netedit.gui.1_from_16Oct125820.1772/netedit.gui/additionalElements/containerStop/lock_unlock\log.txt"/>
    </report>

</configuration>
-->

<additional xmlns:xsi="http://www.w3.org/2001/XMLSchema-instance" xsi:noNamespaceSchemaLocation="http://sumo.dlr.de/xsd/additional_file.xsd">
    <containerStop id="containerStop_gneE0_0_0" lane="gneE0_0" startPos="28.00" endPos="38.00"/>
</additional>
