<routes xmlns:xsi="http://www.w3.org/2001/XMLSchema-instance" xsi:noNamespaceSchemaLocation="http://sumo.dlr.de/xsd/routes_file.xsd">
    <vTypeDistribution id="pd">
        <vType id="1" speedDev="0"/>
        <vType id="2" speedDev="0"/>
    </vTypeDistribution>
    <personFlow id="p1" begin="0" end="36" type="pd" personsPerHour="1000">
        <walk edges="beg end"/>
    </personFlow>
</routes>
