<?xml version="1.0" encoding="UTF-8"?>

<!-- generated on 2022-03-07 09:41:16 by Eclipse SUMO netedit Version v1_12_0+1177-f6b46b7e4a3
-->

<routes xmlns:xsi="http://www.w3.org/2001/XMLSchema-instance" xsi:noNamespaceSchemaLocation="http://sumo.dlr.de/xsd/routes_file.xsd">
    <!-- Vehicles, persons and containers (sorted by depart) -->
    <flow id="f_0" begin="0.00" end="3600.00" number="1800">
        <route edges="gneE2 gneE4 gneE5"/>
    </flow>
    <flow id="f_1" begin="0.00" end="19.80" number="1800">
        <route edges="gneE2 gneE4 gneE5"/>
    </flow>
    <flow id="f_2" begin="0.00" end="21.98" number="51">
        <route edges="gneE2 gneE4 gneE5"/>
    </flow>
</routes>
