<?xml version="1.0" encoding="UTF-8"?>

<!-- generated on Mon Feb 17 15:30:48 2020 by Eclipse SUMO netconvert Version v1_5_0+0130-ceb0a01
This data file and the accompanying materials
are made available under the terms of the Eclipse Public License v2.0
which accompanies this distribution, and is available at
http://www.eclipse.org/legal/epl-v20.html
SPDX-License-Identifier: EPL-2.0
<configuration xmlns:xsi="http://www.w3.org/2001/XMLSchema-instance" xsi:noNamespaceSchemaLocation="http://sumo.dlr.de/xsd/netconvertConfiguration.xsd">

    <input>
        <node-files value="input_nodes.nod.xml"/>
        <edge-files value="input_edges.edg.xml"/>
    </input>

    <output>
        <write-license value="true"/>
        <output-file value="net.net.xml"/>
    </output>

    <report>
        <xml-validation value="never"/>
        <aggregate-warnings value="5"/>
    </report>

</configuration>
-->

<net version="1.6" junctionCornerDetail="5" limitTurnSpeed="5.50" xmlns:xsi="http://www.w3.org/2001/XMLSchema-instance" xsi:noNamespaceSchemaLocation="http://sumo.dlr.de/xsd/net_file.xsd">

    <location netOffset="0.00,6.40" convBoundary="0.00,0.00,100.00,6.40" origBoundary="0.00,0.00,100.00,0.00" projParameter="!"/>

    <edge id=":1.50_0" function="internal">
        <lane id=":1.50_0_0" index="0" speed="28.00" length="8.00" shape="46.00,-1.60 54.00,-1.60"/>
    </edge>

    <edge id="1" from="0" to="1.50" priority="-1">
        <lane id="1_0" index="0" speed="28.00" length="46.00" shape="0.00,-1.60 46.00,-1.60"/>
        <lane id="1_1" index="1" speed="28.00" length="46.00" shape="0.00,1.60 46.00,1.60"/>
        <lane id="1_2" index="2" speed="28.00" length="46.00" shape="0.00,4.80 46.00,4.80"/>
    </edge>
    <edge id="1.50" from="1.50" to="1" priority="-1" shape="50.00,0.00 100.00,0.00">
        <lane id="1.50_0" index="0" speed="28.00" length="46.00" shape="54.00,-1.60 100.00,-1.60"/>
    </edge>

    <junction id="0" type="dead_end" x="0.00" y="6.40" incLanes="" intLanes="" shape="0.00,6.40 0.00,-3.20"/>
    <junction id="1" type="dead_end" x="100.00" y="6.40" incLanes="1.50_0" intLanes="" shape="100.00,-3.20 100.00,0.00"/>
    <junction id="1.50" type="priority" x="50.00" y="6.40" incLanes="1_0 1_1 1_2" intLanes=":1.50_0_0" shape="54.00,0.00 54.00,-3.20 46.00,-3.20 46.00,6.40 48.02,5.93 49.21,4.74 50.79,1.66 51.98,0.47">
        <request index="0" response="0" foes="0" cont="0"/>
    </junction>

    <connection from="1" to="1.50" fromLane="0" toLane="0" via=":1.50_0_0" dir="s" state="M"/>

    <connection from=":1.50_0" to="1.50" fromLane="0" toLane="0" dir="s" state="M"/>

</net>
