<?xml version="1.0" encoding="UTF-8"?>

<!-- generated on 2024-04-02 14:11:35 by Eclipse SUMO netconvert Version v1_19_0+1620-8aaf8f08ffd
This data file and the accompanying materials
are made available under the terms of the Eclipse Public License v2.0
which accompanies this distribution, and is available at
http://www.eclipse.org/legal/epl-v20.html
This file may also be made available under the following Secondary
Licenses when the conditions for such availability set forth in the Eclipse
Public License 2.0 are satisfied: GNU General Public License, version 2
or later which is available at
https://www.gnu.org/licenses/old-licenses/gpl-2.0-standalone.html
SPDX-License-Identifier: EPL-2.0 OR GPL-2.0-or-later
<configuration xmlns:xsi="http://www.w3.org/2001/XMLSchema-instance" xsi:noNamespaceSchemaLocation="http://sumo.dlr.de/xsd/netconvertConfiguration.xsd">

    <input>
        <osm-files value="osm.xml"/>
    </input>

    <output>
        <write-license value="true"/>
    </output>

    <projection>
        <proj.utm value="true"/>
    </projection>

    <formats>
        <osm.turn-lanes value="true"/>
    </formats>

    <report>
        <xml-validation value="never"/>
    </report>

</configuration>
-->

<net version="1.20" junctionCornerDetail="5" limitTurnSpeed="5.50" xmlns:xsi="http://www.w3.org/2001/XMLSchema-instance" xsi:noNamespaceSchemaLocation="http://sumo.dlr.de/xsd/net_file.xsd">

    <location netOffset="-465486.97,-5247130.07" convBoundary="0.00,0.00,38.55,14.20" origBoundary="8.542809,47.376720,8.543321,47.376845" projParameter="+proj=utm +zone=32 +ellps=WGS84 +datum=WGS84 +units=m +no_defs"/>

    <type id="highway.tertiary" priority="10" numLanes="1" speed="22.22" disallow="tram rail_urban rail rail_electric rail_fast ship container cable_car subway aircraft wheelchair scooter drone" oneway="0"/>

    <edge id=":674098902_0" function="internal">
        <lane id=":674098902_0_0" index="0" disallow="tram rail_urban rail rail_electric rail_fast ship container cable_car subway aircraft wheelchair scooter drone" speed="13.89" length="8.71" width="4.30" shape="23.52,7.69 26.06,7.21 27.82,6.83 29.45,6.16 31.62,4.80"/>
    </edge>

    <edge id="53275982" from="674098902" to="300901455" priority="10" type="highway.tertiary" spreadType="center">
        <lane id="53275982_0" index="0" disallow="tram rail_urban rail rail_electric rail_fast ship container cable_car subway aircraft wheelchair scooter drone" speed="13.89" length="8.42" width="4.30" shape="31.62,4.80 38.55,-0.00"/>
    </edge>
    <edge id="8143580" from="300900428" to="674098902" priority="10" type="highway.tertiary" spreadType="center">
        <lane id="8143580_0" index="0" disallow="tram rail_urban rail rail_electric rail_fast ship container cable_car subway aircraft wheelchair scooter drone" speed="13.89" length="24.35" shape="-0.32,12.63 23.52,7.69"/>
        <lane id="8143580_1" index="1" disallow="tram rail_urban rail rail_electric rail_fast ship container cable_car subway aircraft wheelchair scooter drone" speed="13.89" length="24.35" shape="0.32,15.76 24.17,10.82"/>
    </edge>

    <junction id="300900428" type="dead_end" x="0.00" y="14.20" incLanes="" intLanes="" shape="0.65,17.33 -0.65,11.06"/>
    <junction id="300901455" type="dead_end" x="38.55" y="0.00" incLanes="53275982_0" intLanes="" shape="37.32,-1.77 39.77,1.77"/>
    <junction id="674098902" type="priority" x="25.76" y="8.85" incLanes="8143580_0 8143580_1" intLanes=":674098902_0_0" shape="32.85,6.56 30.40,3.03 27.95,4.65 27.03,5.11 26.05,5.46 24.83,5.77 23.19,6.12 24.49,12.39 26.55,11.80 27.94,11.06 28.97,10.18 29.93,9.13 31.12,7.93">
        <request index="0" response="0" foes="0" cont="0"/>
    </junction>

    <connection from="8143580" to="53275982" fromLane="0" toLane="0" via=":674098902_0_0" dir="s" state="M"/>

    <connection from=":674098902_0" to="53275982" fromLane="0" toLane="0" dir="s" state="M"/>

</net>
