<?xml version="1.0" encoding="UTF-8"?>

<!-- generated on 2025-08-01 13:22:22 by Eclipse SUMO netconvert Version v1_24_0+0105-e209ab84cb0
This data file and the accompanying materials
are made available under the terms of the Eclipse Public License v2.0
which accompanies this distribution, and is available at
http://www.eclipse.org/legal/epl-v20.html
This file may also be made available under the following Secondary
Licenses when the conditions for such availability set forth in the Eclipse
Public License 2.0 are satisfied: GNU General Public License, version 2
or later which is available at
https://www.gnu.org/licenses/old-licenses/gpl-2.0-standalone.html
SPDX-License-Identifier: EPL-2.0 OR GPL-2.0-or-later
<netconvertConfiguration xmlns:xsi="http://www.w3.org/2001/XMLSchema-instance" xsi:noNamespaceSchemaLocation="http://sumo.dlr.de/xsd/netconvertConfiguration.xsd">

    <input>
        <osm-files value="osm.xml"/>
    </input>

    <output>
        <write-license value="true"/>
    </output>

    <projection>
        <proj.utm value="true"/>
    </projection>

    <edge_removal>
        <remove-edges.by-vclass value="pedestrian"/>
    </edge_removal>

    <formats>
        <osm.lane-access value="true"/>
    </formats>

    <report>
        <xml-validation value="never"/>
    </report>

</netconvertConfiguration>
-->

<net version="1.20" junctionCornerDetail="5" limitTurnSpeed="5.50" xmlns:xsi="http://www.w3.org/2001/XMLSchema-instance" xsi:noNamespaceSchemaLocation="http://sumo.dlr.de/xsd/net_file.xsd">

    <location netOffset="-464068.62,-5246870.82" convBoundary="0.00,0.00,312.29,289.30" origBoundary="8.524031,47.374320,8.528356,47.376951" projParameter="+proj=utm +zone=32 +ellps=WGS84 +datum=WGS84 +units=m +no_defs"/>

    <type id="highway.residential" priority="3" numLanes="1" speed="13.89" disallow="tram rail_urban rail rail_electric rail_fast ship container cable_car subway aircraft wheelchair scooter drone" oneway="0"/>
    <type id="highway.service" priority="1" numLanes="1" speed="5.56" allow="pedestrian delivery bicycle" oneway="0"/>
    <type id="highway.tertiary" priority="10" numLanes="1" speed="22.22" disallow="tram rail_urban rail rail_electric rail_fast ship container cable_car subway aircraft wheelchair scooter drone" oneway="0"/>
    <type id="railway.tram" priority="17" numLanes="1" speed="13.89" allow="tram" oneway="1"/>

    <edge id=":1584034520_0" function="internal">
        <lane id=":1584034520_0_0" index="0" disallow="tram rail_urban rail rail_electric rail_fast ship container cable_car subway aircraft wheelchair scooter drone" speed="13.89" length="0.33" shape="222.92,129.72 222.72,130.00"/>
        <lane id=":1584034520_0_1" index="1" disallow="private passenger tram rail_urban rail rail_electric rail_fast ship container cable_car subway aircraft wheelchair scooter drone" speed="13.89" length="0.33" shape="220.32,127.86 220.14,128.11"/>
    </edge>
    <edge id=":1584034520_2" function="internal">
        <lane id=":1584034520_2_0" index="0" disallow="tram rail_urban rail rail_electric rail_fast ship container cable_car subway aircraft wheelchair scooter drone" speed="13.89" length="0.26" shape="214.97,124.34 215.11,124.14"/>
        <lane id=":1584034520_2_1" index="1" disallow="private passenger tram rail_urban rail rail_electric rail_fast ship container cable_car subway aircraft wheelchair scooter drone" speed="13.89" length="0.26" shape="217.55,126.23 217.71,126.00"/>
    </edge>
    <edge id=":1584034532_0" function="internal">
        <lane id=":1584034532_0_0" index="0" disallow="tram rail_urban rail rail_electric rail_fast ship container cable_car subway aircraft wheelchair scooter drone" speed="8.33" length="0.23" shape="201.45,128.78 201.31,128.60"/>
    </edge>
    <edge id=":1584034532_1" function="internal">
        <lane id=":1584034532_1_0" index="0" disallow="tram rail_urban rail rail_electric rail_fast ship container cable_car subway aircraft wheelchair scooter drone" speed="8.33" length="0.31" shape="203.81,126.60 204.00,126.84"/>
    </edge>
    <edge id=":1584034534_0" function="internal">
        <lane id=":1584034534_0_0" index="0" disallow="tram rail_urban rail rail_electric rail_fast ship container cable_car subway aircraft wheelchair scooter drone" speed="13.89" length="0.31" shape="205.90,153.05 205.71,153.31"/>
        <lane id=":1584034534_0_1" index="1" disallow="private passenger tram rail_urban rail rail_electric rail_fast ship container cable_car subway aircraft wheelchair scooter drone" speed="13.89" length="0.31" shape="203.31,151.17 203.13,151.42"/>
    </edge>
    <edge id=":1584034534_2" function="internal">
        <lane id=":1584034534_2_0" index="0" disallow="tram rail_urban rail rail_electric rail_fast ship container cable_car subway aircraft wheelchair scooter drone" speed="13.89" length="0.29" shape="195.39,145.74 195.55,145.52"/>
        <lane id=":1584034534_2_1" index="1" disallow="tram rail_urban rail rail_electric rail_fast ship container cable_car subway aircraft wheelchair scooter drone" speed="13.89" length="0.29" shape="197.97,147.63 198.14,147.40"/>
        <lane id=":1584034534_2_2" index="2" disallow="private passenger tram rail_urban rail rail_electric rail_fast ship container cable_car subway aircraft wheelchair scooter drone" speed="13.89" length="0.29" shape="200.55,149.53 200.73,149.28"/>
    </edge>
    <edge id=":1584034537_0" function="internal">
        <lane id=":1584034537_0_0" index="0" disallow="tram rail_urban rail rail_electric rail_fast ship container cable_car subway aircraft wheelchair scooter drone" speed="13.89" length="0.90" shape="217.31,152.91 217.06,152.69 216.89,152.53 216.73,152.36 216.51,152.11"/>
        <lane id=":1584034537_0_1" index="1" disallow="tram rail_urban rail rail_electric rail_fast ship container cable_car subway aircraft wheelchair scooter drone" speed="13.89" length="0.90" shape="219.40,150.49 219.25,150.36 219.15,150.26 219.06,150.16 218.93,150.01"/>
    </edge>
    <edge id=":1584034537_2" function="internal">
        <lane id=":1584034537_2_0" index="0" disallow="tram rail_urban rail rail_electric rail_fast ship container cable_car subway aircraft wheelchair scooter drone" speed="13.89" length="0.22" shape="221.34,147.91 221.38,147.96 221.41,147.99 221.45,148.02 221.50,148.07"/>
    </edge>
    <edge id=":1584034539_0" function="internal">
        <lane id=":1584034539_0_0" index="0" allow="bus bicycle" speed="13.89" length="0.21" shape="172.99,191.67 172.86,191.84"/>
    </edge>
    <edge id=":1584034539_1" function="internal">
        <lane id=":1584034539_1_0" index="0" allow="bus bicycle" speed="13.89" length="0.30" shape="170.34,189.87 170.53,189.63"/>
    </edge>
    <edge id=":1584034542_0" function="internal">
        <lane id=":1584034542_0_0" index="0" allow="bus bicycle" speed="13.89" length="0.31" shape="139.09,226.49 138.86,226.70"/>
    </edge>
    <edge id=":1584034542_1" function="internal">
        <lane id=":1584034542_1_0" index="0" allow="bus bicycle" speed="13.89" length="0.27" shape="136.72,224.32 136.92,224.14"/>
    </edge>
    <edge id=":1584034560_0" function="internal">
        <lane id=":1584034560_0_0" index="0" disallow="tram rail_urban rail rail_electric rail_fast ship container cable_car subway aircraft wheelchair scooter drone" speed="13.89" length="0.99" shape="119.94,245.34 119.65,245.52 119.45,245.64 119.25,245.75 118.94,245.90"/>
        <lane id=":1584034560_0_1" index="1" allow="bus" prefer="bus" speed="13.89" length="0.99" shape="118.24,242.63 118.03,242.76 117.89,242.84 117.74,242.92 117.52,243.03"/>
    </edge>
    <edge id=":1584034560_2" function="internal">
        <lane id=":1584034560_2_0" index="0" disallow="tram rail_urban rail rail_electric rail_fast ship container cable_car subway aircraft wheelchair scooter drone" speed="13.89" length="0.33" shape="114.69,237.29 114.73,237.27 114.76,237.25 114.79,237.24 114.83,237.21"/>
        <lane id=":1584034560_2_1" index="1" disallow="private passenger tram rail_urban rail rail_electric rail_fast ship container cable_car subway aircraft wheelchair scooter drone" speed="13.89" length="0.33" shape="116.11,240.16 116.24,240.10 116.33,240.05 116.41,240.00 116.54,239.92"/>
    </edge>
    <edge id=":1584034574_0" function="internal">
        <lane id=":1584034574_0_0" index="0" disallow="tram rail_urban rail rail_electric rail_fast ship container cable_car subway aircraft wheelchair scooter drone" speed="13.89" length="0.47" shape="131.22,248.87 131.01,248.45"/>
    </edge>
    <edge id=":1584034574_1" function="internal">
        <lane id=":1584034574_1_0" index="0" disallow="tram rail_urban rail rail_electric rail_fast ship container cable_car subway aircraft wheelchair scooter drone" speed="13.89" length="0.19" shape="136.85,245.82 136.89,245.90"/>
        <lane id=":1584034574_1_1" index="1" allow="bus" prefer="bus" speed="13.89" length="0.19" shape="133.93,247.13 134.05,247.39"/>
    </edge>
    <edge id=":2015772140_0" function="internal">
        <lane id=":2015772140_0_0" index="0" disallow="tram rail_urban rail rail_electric rail_fast ship container cable_car subway aircraft wheelchair scooter drone" speed="13.89" length="0.29" shape="259.50,186.44 259.29,186.24"/>
    </edge>
    <edge id=":2015772140_1" function="internal">
        <lane id=":2015772140_1_0" index="0" disallow="tram rail_urban rail rail_electric rail_fast ship container cable_car subway aircraft wheelchair scooter drone" speed="13.89" length="0.18" shape="261.54,183.97 261.68,184.10"/>
    </edge>
    <edge id=":2261078765_0" function="internal">
        <lane id=":2261078765_0_0" index="0" disallow="tram rail_urban rail rail_electric rail_fast ship container cable_car subway aircraft wheelchair scooter drone" speed="8.33" length="0.30" shape="70.80,127.66 70.66,127.39"/>
    </edge>
    <edge id=":2261078765_1" function="internal">
        <lane id=":2261078765_1_0" index="0" disallow="tram rail_urban rail rail_electric rail_fast ship container cable_car subway aircraft wheelchair scooter drone" speed="8.33" length="0.30" shape="73.50,125.92 73.64,126.19"/>
    </edge>
    <edge id=":2261078797_0" function="internal">
        <lane id=":2261078797_0_0" index="0" disallow="tram rail_urban rail rail_electric rail_fast ship container cable_car subway aircraft wheelchair scooter drone" speed="8.33" length="0.10" shape="118.75,220.28 118.77,220.34"/>
    </edge>
    <edge id=":2261078797_1" function="internal">
        <lane id=":2261078797_1_0" index="0" allow="bus bicycle" prefer="bus" speed="8.33" length="0.11" shape="124.57,217.63 124.64,217.79"/>
        <lane id=":2261078797_1_1" index="1" disallow="tram rail_urban rail rail_electric rail_fast ship container cable_car subway aircraft wheelchair scooter drone" speed="8.33" length="0.11" shape="121.67,218.98 121.69,219.04"/>
    </edge>
    <edge id=":2472125583_0" function="internal">
        <lane id=":2472125583_0_0" index="0" allow="bicycle" speed="5.56" length="14.48" shape="174.53,46.83 172.03,50.11 171.07,53.34 171.65,56.51 173.75,59.64"/>
    </edge>
    <edge id=":2472125583_1" function="internal">
        <lane id=":2472125583_1_0" index="0" allow="bicycle" speed="5.56" length="14.36" shape="174.53,46.83 164.36,56.97"/>
    </edge>
    <edge id=":2472125583_2" function="internal">
        <lane id=":2472125583_2_0" index="0" allow="bicycle" speed="5.56" length="10.20" shape="174.53,46.83 172.35,48.47 170.12,49.02 167.84,48.49 165.51,46.86"/>
    </edge>
    <edge id=":2472125583_3" function="internal">
        <lane id=":2472125583_3_0" index="0" allow="bicycle" speed="3.65" length="4.67" shape="174.53,46.83 173.12,47.13 172.27,46.85 171.98,46.00 172.25,44.59"/>
    </edge>
    <edge id=":2472125583_4" function="internal">
        <lane id=":2472125583_4_0" index="0" allow="bicycle" speed="5.18" length="5.18" shape="167.67,44.51 168.88,45.35 170.04,45.65 171.17,45.39 172.25,44.59"/>
    </edge>
    <edge id=":2472125583_5" function="internal">
        <lane id=":2472125583_5_0" index="0" allow="bicycle" speed="5.56" length="16.46" shape="167.67,44.51 169.70,47.78 170.82,51.97 171.89,56.20 173.75,59.64"/>
    </edge>
    <edge id=":2472125583_6" function="internal">
        <lane id=":2472125583_6_0" index="0" allow="bicycle" speed="5.56" length="14.52" shape="167.67,44.51 169.27,46.94 169.25,49.83 167.62,53.17 164.36,56.97"/>
    </edge>
    <edge id=":2472125583_7" function="internal">
        <lane id=":2472125583_7_0" index="0" allow="bicycle" speed="3.65" length="4.67" shape="167.67,44.51 168.02,45.91 167.77,46.77 166.93,47.09 165.51,46.86"/>
    </edge>
    <edge id=":2472125583_8" function="internal">
        <lane id=":2472125583_8_0" index="0" allow="bicycle" speed="5.56" length="9.32" shape="162.11,54.69 164.48,52.07 165.83,49.90 166.18,48.16 165.51,46.86"/>
    </edge>
    <edge id=":2472125583_9" function="internal">
        <lane id=":2472125583_9_0" index="0" allow="bicycle" speed="5.56" length="14.32" shape="162.11,54.69 172.25,44.59"/>
    </edge>
    <edge id=":2472125583_10" function="internal">
        <lane id=":2472125583_10_0" index="0" allow="bicycle" speed="5.56" length="13.92" shape="162.11,54.69 164.22,53.64 166.86,54.11 170.04,56.11 173.75,59.64"/>
    </edge>
    <edge id=":2472125583_11" function="internal">
        <lane id=":2472125583_11_0" index="0" allow="bicycle" speed="3.65" length="4.67" shape="162.11,54.69 163.53,54.42 164.37,54.71 164.65,55.56 164.36,56.97"/>
    </edge>
    <edge id=":2472125583_12" function="internal">
        <lane id=":2472125583_12_0" index="0" allow="bicycle" speed="5.19" length="5.49" shape="168.91,59.12 167.42,57.69 166.16,56.85 165.14,56.61 164.36,56.97"/>
    </edge>
    <edge id=":2472125583_13" function="internal">
        <lane id=":2472125583_13_0" index="0" allow="bicycle" speed="5.56" length="13.03" shape="168.91,59.12 167.46,56.14 167.32,52.89 167.12,49.69 165.51,46.86"/>
    </edge>
    <edge id=":2472125583_14" function="internal">
        <lane id=":2472125583_14_0" index="0" allow="bicycle" speed="5.56" length="16.64" shape="168.91,59.12 167.12,56.06 167.08,52.61 168.79,48.79 172.25,44.59"/>
    </edge>
    <edge id=":2472125583_15" function="internal">
        <lane id=":2472125583_15_0" index="0" allow="bicycle" speed="4.24" length="7.11" shape="168.91,59.12 170.32,57.44 171.59,56.96 172.74,57.69 173.75,59.64"/>
    </edge>
    <edge id=":2472125656_0" function="internal">
        <lane id=":2472125656_0_0" index="0" allow="bicycle" speed="3.65" length="4.67" shape="147.43,30.27 147.08,28.87 147.33,28.01 148.17,27.69 149.59,27.91"/>
    </edge>
    <edge id=":2567818134_0" function="internal">
        <lane id=":2567818134_0_0" index="0" allow="pedestrian delivery bicycle" speed="3.65" length="4.67" shape="198.78,229.83 199.49,228.57 200.26,228.11 201.09,228.45 201.98,229.59"/>
    </edge>
    <edge id=":2567854590_0" function="internal">
        <lane id=":2567854590_0_0" index="0" disallow="tram rail_urban rail rail_electric rail_fast ship container cable_car subway aircraft wheelchair scooter drone" speed="13.89" length="0.30" shape="271.36,61.93 271.19,62.17"/>
        <lane id=":2567854590_0_1" index="1" disallow="private passenger tram rail_urban rail rail_electric rail_fast ship container cable_car subway aircraft wheelchair scooter drone" speed="13.89" length="0.30" shape="268.76,60.07 268.58,60.31"/>
    </edge>
    <edge id=":2567854590_2" function="internal">
        <lane id=":2567854590_2_0" index="0" disallow="tram rail_urban rail rail_electric rail_fast ship container cable_car subway aircraft wheelchair scooter drone" speed="13.89" length="0.30" shape="263.38,56.59 263.55,56.35"/>
        <lane id=":2567854590_2_1" index="1" disallow="private passenger tram rail_urban rail rail_electric rail_fast ship container cable_car subway aircraft wheelchair scooter drone" speed="13.89" length="0.30" shape="265.98,58.45 266.16,58.21"/>
    </edge>
    <edge id=":2632087167_0" function="internal">
        <lane id=":2632087167_0_0" index="0" disallow="tram rail_urban rail rail_electric rail_fast ship container cable_car subway aircraft wheelchair scooter drone" speed="8.33" length="0.22" shape="249.41,236.54 249.59,236.42"/>
    </edge>
    <edge id=":27256989_0" function="internal">
        <lane id=":27256989_0_0" index="0" disallow="tram rail_urban rail rail_electric rail_fast ship container cable_car subway aircraft wheelchair scooter drone" speed="6.02" length="8.42" shape="279.41,59.21 277.61,57.98 275.84,57.79 274.10,58.63 272.39,60.49"/>
        <lane id=":27256989_0_1" index="1" disallow="private passenger tram rail_urban rail rail_electric rail_fast ship container cable_car subway aircraft wheelchair scooter drone" speed="6.87" length="11.32" shape="279.41,59.21 276.57,57.03 274.03,56.21 271.76,56.74 269.78,58.63"/>
    </edge>
    <edge id=":27256989_2" function="internal">
        <lane id=":27256989_2_0" index="0" disallow="tram rail_urban rail rail_electric rail_fast ship container cable_car subway aircraft wheelchair scooter drone" speed="11.11" length="20.10" shape="279.41,59.21 264.94,45.25"/>
    </edge>
    <edge id=":27256989_3" function="internal">
        <lane id=":27256989_3_0" index="0" disallow="tram rail_urban rail rail_electric rail_fast ship container cable_car subway aircraft wheelchair scooter drone" speed="7.41" length="10.65" shape="264.57,54.91 266.18,52.09 266.78,49.54 266.37,47.26 264.94,45.25"/>
    </edge>
    <edge id=":27256989_4" function="internal">
        <lane id=":27256989_4_0" index="0" disallow="private passenger tram rail_urban rail rail_electric rail_fast ship container cable_car subway aircraft wheelchair scooter drone" speed="3.65" length="4.67" shape="267.18,56.77 268.53,56.26 269.41,56.40 269.83,57.19 269.78,58.63"/>
    </edge>
    <edge id=":279262777_0" function="internal">
        <lane id=":279262777_0_0" index="0" disallow="tram rail_urban rail rail_electric rail_fast ship container cable_car subway aircraft wheelchair scooter drone" speed="6.64" length="9.11" shape="99.85,183.57 98.39,181.60 96.61,180.54 94.54,180.39 92.15,181.15"/>
    </edge>
    <edge id=":279262777_1" function="internal">
        <lane id=":279262777_1_0" index="0" disallow="tram rail_urban rail rail_electric rail_fast ship container cable_car subway aircraft wheelchair scooter drone" speed="8.33" length="14.37" shape="99.85,183.57 93.13,170.87"/>
    </edge>
    <edge id=":279262777_2" function="internal">
        <lane id=":279262777_2_0" index="0" disallow="tram rail_urban rail rail_electric rail_fast ship container cable_car subway aircraft wheelchair scooter drone" speed="3.65" length="1.44" shape="99.85,183.57 99.99,182.13"/>
    </edge>
    <edge id=":279262777_10" function="internal">
        <lane id=":279262777_10_0" index="0" disallow="tram rail_urban rail rail_electric rail_fast ship container cable_car subway aircraft wheelchair scooter drone" speed="3.65" length="3.23" shape="99.99,182.13 100.50,181.40 101.39,181.37 102.67,182.04"/>
    </edge>
    <edge id=":279262777_3" function="internal">
        <lane id=":279262777_3_0" index="0" allow="bus bicycle" prefer="bus" speed="8.33" length="14.28" shape="98.82,167.93 105.48,180.52"/>
        <lane id=":279262777_3_1" index="1" disallow="tram rail_urban rail rail_electric rail_fast ship container cable_car subway aircraft wheelchair scooter drone" speed="8.33" length="14.28" shape="95.97,169.40 102.67,182.04"/>
    </edge>
    <edge id=":279262777_5" function="internal">
        <lane id=":279262777_5_0" index="0" disallow="tram rail_urban rail rail_electric rail_fast ship container cable_car subway aircraft wheelchair scooter drone" speed="7.92" length="4.04" shape="95.97,169.40 97.27,173.11 97.27,173.21"/>
    </edge>
    <edge id=":279262777_6" function="internal">
        <lane id=":279262777_6_0" index="0" disallow="tram rail_urban rail rail_electric rail_fast ship container cable_car subway aircraft wheelchair scooter drone" speed="3.65" length="1.44" shape="95.97,169.40 95.81,170.83"/>
    </edge>
    <edge id=":279262777_11" function="internal">
        <lane id=":279262777_11_0" index="0" disallow="tram rail_urban rail rail_electric rail_fast ship container cable_car subway aircraft wheelchair scooter drone" speed="7.92" length="10.15" shape="97.27,173.21 97.07,176.31 95.36,178.99 92.15,181.15"/>
    </edge>
    <edge id=":279262777_12" function="internal">
        <lane id=":279262777_12_0" index="0" disallow="tram rail_urban rail rail_electric rail_fast ship container cable_car subway aircraft wheelchair scooter drone" speed="3.65" length="3.23" shape="95.81,170.83 95.29,171.55 94.39,171.57 93.13,170.87"/>
    </edge>
    <edge id=":279262777_7" function="internal">
        <lane id=":279262777_7_0" index="0" disallow="tram rail_urban rail rail_electric rail_fast ship container cable_car subway aircraft wheelchair scooter drone" speed="6.41" length="8.92" shape="90.77,178.27 92.77,176.91 93.84,175.22 93.95,173.21 93.13,170.87"/>
    </edge>
    <edge id=":279262777_8" function="internal">
        <lane id=":279262777_8_0" index="0" disallow="tram rail_urban rail rail_electric rail_fast ship container cable_car subway aircraft wheelchair scooter drone" speed="8.12" length="14.09" shape="90.77,178.27 94.44,177.09 97.65,177.33 100.39,178.98 102.67,182.04"/>
    </edge>
    <edge id=":279262777_9" function="internal">
        <lane id=":279262777_9_0" index="0" disallow="tram rail_urban rail rail_electric rail_fast ship container cable_car subway aircraft wheelchair scooter drone" speed="3.65" length="4.67" shape="90.77,178.27 92.19,178.47 92.90,179.02 92.89,179.91 92.15,181.15"/>
    </edge>
    <edge id=":28137435_0" function="internal">
        <lane id=":28137435_0_0" index="0" disallow="tram rail_urban rail rail_electric rail_fast ship container cable_car subway aircraft wheelchair scooter drone" speed="13.89" length="11.39" shape="290.52,212.96 281.63,205.85"/>
    </edge>
    <edge id=":28137435_1" function="internal">
        <lane id=":28137435_1_0" index="0" disallow="tram rail_urban rail rail_electric rail_fast ship container cable_car subway aircraft wheelchair scooter drone" speed="3.65" length="1.44" shape="290.52,212.96 290.13,211.57"/>
    </edge>
    <edge id=":28137435_6" function="internal">
        <lane id=":28137435_6_0" index="0" disallow="tram rail_urban rail rail_electric rail_fast ship container cable_car subway aircraft wheelchair scooter drone" speed="3.65" length="3.23" shape="290.13,211.57 290.35,210.70 291.17,210.36 292.61,210.53"/>
    </edge>
    <edge id=":28137435_2" function="internal">
        <lane id=":28137435_2_0" index="0" disallow="tram rail_urban rail rail_electric rail_fast ship container cable_car subway aircraft wheelchair scooter drone" speed="13.89" length="11.58" shape="283.56,203.30 292.61,210.53"/>
    </edge>
    <edge id=":28137435_3" function="internal">
        <lane id=":28137435_3_0" index="0" disallow="tram rail_urban rail rail_electric rail_fast ship container cable_car subway aircraft wheelchair scooter drone" speed="3.65" length="1.44" shape="283.56,203.30 284.03,204.66"/>
    </edge>
    <edge id=":28137435_7" function="internal">
        <lane id=":28137435_7_0" index="0" disallow="tram rail_urban rail rail_electric rail_fast ship container cable_car subway aircraft wheelchair scooter drone" speed="3.65" length="3.23" shape="284.03,204.66 283.87,205.54 283.07,205.94 281.63,205.85"/>
    </edge>
    <edge id=":28137435_4" function="internal">
        <lane id=":28137435_4_0" index="0" disallow="tram rail_urban rail rail_electric rail_fast ship container cable_car subway aircraft wheelchair scooter drone" speed="5.81" length="8.35" shape="282.50,212.66 283.93,211.05 284.26,209.38 283.50,207.65 281.63,205.85"/>
    </edge>
    <edge id=":28137435_5" function="internal">
        <lane id=":28137435_5_0" index="0" disallow="tram rail_urban rail rail_electric rail_fast ship container cable_car subway aircraft wheelchair scooter drone" speed="7.71" length="11.19" shape="282.50,212.66 285.58,210.58 288.29,209.53 290.64,209.51 292.61,210.53"/>
    </edge>
    <edge id=":28137436_0" function="internal">
        <lane id=":28137436_0_0" index="0" disallow="tram rail_urban rail rail_electric rail_fast ship container cable_car subway aircraft wheelchair scooter drone" speed="6.08" length="9.07" shape="215.05,150.44 213.10,148.76 211.21,148.25 209.36,148.92 207.57,150.76"/>
    </edge>
    <edge id=":28137436_1" function="internal">
        <lane id=":28137436_1_0" index="0" disallow="tram rail_urban rail rail_electric rail_fast ship container cable_car subway aircraft wheelchair scooter drone" speed="11.11" length="25.51" shape="215.05,150.44 210.59,144.44 206.97,138.30 204.00,132.84 201.51,128.86"/>
    </edge>
    <edge id=":28137436_2" function="internal">
        <lane id=":28137436_2_0" index="0" disallow="tram rail_urban rail rail_electric rail_fast ship container cable_car subway aircraft wheelchair scooter drone" speed="3.65" length="4.67" shape="217.46,148.33 217.28,146.90 217.62,146.08 218.48,145.85 219.88,146.23"/>
    </edge>
    <edge id=":28137436_3" function="internal">
        <lane id=":28137436_3_0" index="0" disallow="tram rail_urban rail rail_electric rail_fast ship container cable_car subway aircraft wheelchair scooter drone" speed="8.61" length="13.75" shape="220.06,133.63 218.14,137.04 217.47,140.27 218.05,143.33 219.88,146.23"/>
    </edge>
    <edge id=":28137436_4" function="internal">
        <lane id=":28137436_4_0" index="0" disallow="tram rail_urban rail rail_electric rail_fast ship container cable_car subway aircraft wheelchair scooter drone" speed="13.89" length="21.21" shape="220.06,133.63 207.57,150.76"/>
        <lane id=":28137436_4_1" index="1" disallow="private passenger tram rail_urban rail rail_electric rail_fast ship container cable_car subway aircraft wheelchair scooter drone" speed="13.89" length="21.21" shape="217.48,131.75 204.98,148.88"/>
    </edge>
    <edge id=":28137436_6" function="internal">
        <lane id=":28137436_6_0" index="0" disallow="private passenger tram rail_urban rail rail_electric rail_fast ship container cable_car subway aircraft wheelchair scooter drone" speed="3.65" length="1.44" shape="217.48,131.75 216.13,132.24"/>
    </edge>
    <edge id=":28137436_15" function="internal">
        <lane id=":28137436_15_0" index="0" disallow="private passenger tram rail_urban rail rail_electric rail_fast ship container cable_car subway aircraft wheelchair scooter drone" speed="3.65" length="3.23" shape="216.13,132.24 215.25,132.09 214.84,131.30 214.90,129.86"/>
    </edge>
    <edge id=":28137436_7" function="internal">
        <lane id=":28137436_7_0" index="0" disallow="tram rail_urban rail rail_electric rail_fast ship container cable_car subway aircraft wheelchair scooter drone" speed="6.29" length="10.19" shape="204.06,126.92 206.32,129.24 208.44,130.18 210.44,129.76 212.31,127.97"/>
    </edge>
    <edge id=":28137436_8" function="internal">
        <lane id=":28137436_8_0" index="0" disallow="tram rail_urban rail rail_electric rail_fast ship container cable_car subway aircraft wheelchair scooter drone" speed="11.11" length="24.96" shape="204.06,126.92 219.88,146.23"/>
    </edge>
    <edge id=":28137436_9" function="internal">
        <lane id=":28137436_9_0" index="0" disallow="tram rail_urban rail rail_electric rail_fast ship container cable_car subway aircraft wheelchair scooter drone" speed="3.65" length="4.67" shape="204.06,126.92 204.15,128.36 203.76,129.17 202.88,129.33 201.51,128.86"/>
    </edge>
    <edge id=":28137436_10" function="internal">
        <lane id=":28137436_10_0" index="0" disallow="tram rail_urban rail rail_electric rail_fast ship container cable_car subway aircraft wheelchair scooter drone" speed="9.45" length="15.83" shape="197.22,143.22 200.29,138.48 202.03,134.51 202.44,131.30 201.51,128.86"/>
    </edge>
    <edge id=":28137436_11" function="internal">
        <lane id=":28137436_11_0" index="0" disallow="tram rail_urban rail rail_electric rail_fast ship container cable_car subway aircraft wheelchair scooter drone" speed="13.89" length="21.53" shape="197.22,143.22 201.42,138.32 204.93,135.37 208.36,132.54 212.31,127.97"/>
        <lane id=":28137436_11_1" index="1" disallow="private passenger tram rail_urban rail rail_electric rail_fast ship container cable_car subway aircraft wheelchair scooter drone" speed="13.89" length="21.53" shape="199.81,145.11 204.00,140.20 207.51,137.26 210.94,134.43 214.90,129.86"/>
    </edge>
    <edge id=":28137436_13" function="internal">
        <lane id=":28137436_13_0" index="0" disallow="tram rail_urban rail rail_electric rail_fast ship container cable_car subway aircraft wheelchair scooter drone" speed="9.56" length="10.63" shape="199.81,145.11 204.32,140.71 208.51,139.60"/>
    </edge>
    <edge id=":28137436_14" function="internal">
        <lane id=":28137436_14_0" index="0" disallow="private passenger tram rail_urban rail rail_electric rail_fast ship container cable_car subway aircraft wheelchair scooter drone" speed="3.65" length="1.44" shape="202.40,146.99 203.75,146.50"/>
    </edge>
    <edge id=":28137436_16" function="internal">
        <lane id=":28137436_16_0" index="0" disallow="tram rail_urban rail rail_electric rail_fast ship container cable_car subway aircraft wheelchair scooter drone" speed="9.56" length="13.61" shape="208.51,139.60 209.17,139.43 214.36,141.27 219.88,146.23"/>
    </edge>
    <edge id=":28137436_17" function="internal">
        <lane id=":28137436_17_0" index="0" disallow="private passenger tram rail_urban rail rail_electric rail_fast ship container cable_car subway aircraft wheelchair scooter drone" speed="3.65" length="3.23" shape="203.75,146.50 204.63,146.64 205.04,147.44 204.98,148.88"/>
    </edge>
    <edge id=":28581587_0" function="internal">