<?xml version="1.0" encoding="UTF-8"?>

<!-- generated on 05.12.2018 09:47:23 by Eclipse SUMO netedit Version v1_0_0+1208-d42a3cd999
<configuration xmlns:xsi="http://www.w3.org/2001/XMLSchema-instance" xsi:noNamespaceSchemaLocation="http://sumo.dlr.de/xsd/netconvertConfiguration.xsd">

    <input>
        <sumo-net-file value="C:/Users/SUMO-Test/.texttest/tmp/netedit.gui.05Dec094654.1312/netedit.gui/shapeElements/poly/load/fill\input_net.net.xml"/>
    </input>

    <output>
        <output-file value="C:/Users/SUMO-Test/.texttest/tmp/netedit.gui.05Dec094654.1312/netedit.gui/shapeElements/poly/load/fill\net.net.xml"/>
    </output>

    <processing>
        <offset.disable-normalization value="true"/>
        <lefthand value="false"/>
    </processing>

    <junctions>
        <no-turnarounds value="true"/>
        <junctions.corner-detail value="5"/>
        <junctions.limit-turn-speed value="5.5"/>
        <rectangular-lane-cut value="false"/>
    </junctions>

    <pedestrian>
        <walkingareas value="false"/>
    </pedestrian>

    <netedit>
        <additionals-output value="C:/Users/SUMO-Test/.texttest/tmp/netedit.gui.05Dec094654.1312/netedit.gui/shapeElements/poly/load/fill\additionals.xml"/>
        <sumo-shapes-file value="C:/Users/SUMO-Test/.texttest/tmp/netedit.gui.05Dec094654.1312/netedit.gui/shapeElements/poly/load/fill\input_shapes.add.xml"/>
        <shapes-output value="C:/Users/SUMO-Test/.texttest/tmp/netedit.gui.05Dec094654.1312/netedit.gui/shapeElements/poly/load/fill\shapes.xml"/>
    </netedit>

    <visualisation>
        <gui-settings-file value="C:/Users/SUMO-Test/.texttest/tmp/netedit.gui.05Dec094654.1312/netedit.gui/shapeElements/poly/load/fill\gui-settings.xml"/>
        <window-size value="700,500"/>
        <window-pos value="50,50"/>
        <gui-testing value="true"/>
        <gui-testing-debug value="true"/>
        <gui-testing-debug-gl value="true"/>
    </visualisation>

    <report>
        <no-warnings value="true"/>
        <error-log value="C:/Users/SUMO-Test/.texttest/tmp/netedit.gui.05Dec094654.1312/netedit.gui/shapeElements/poly/load/fill\log.txt"/>
    </report>

</configuration>
-->

<additional xmlns:xsi="http://www.w3.org/2001/XMLSchema-instance" xsi:noNamespaceSchemaLocation="http://sumo.dlr.de/xsd/additional_file.xsd">
    <poly id="poly_0" color="green" fill="0" layer="0.00" shape="30.000000,20.000000 40.000000,20.000000 40.000000,10.000000 30.000000,10.000000 30.000000,20.000000"/>
    <poly id="poly_1" color="green" fill="0" layer="0.00" shape="30.000000,-20.000000 40.000000,-20.000000 40.000000,-30.000000 30.000000,-30.000000 30.000000,-20.000000"/>
    <poly id="poly_2" color="green" fill="1" layer="0.00" shape="30.000000,0.000000 40.000000,0.000000 40.000000,-10.000000 30.000000,-10.000000 30.000000,0.000000"/>
</additional>
