<routes xmlns:xsi="http://www.w3.org/2001/XMLSchema-instance" xsi:noNamespaceSchemaLocation="http://sumo.dlr.de/xsd/routes_file.xsd">
   <vType id="DEFAULT_VEHTYPE" sigma="0"/>
   <vehicle id="0" depart="0">
       <route edges="SC CN"/>
       <stop edge="SC" index="-1" duration="5" endPos="-10"/>
   </vehicle>

</routes>
