<?xml version="1.0" encoding="UTF-8"?>

<!-- generated on 2022-06-10 10:42:00 by Eclipse SUMO netconvert Version v1_13_0+0734-4d9b53714aa
<configuration xmlns:xsi="http://www.w3.org/2001/XMLSchema-instance" xsi:noNamespaceSchemaLocation="http://sumo.dlr.de/xsd/netconvertConfiguration.xsd">

    <input>
        <sumo-net-file value="D:/SUMO/tests/netedit\netelements\crossings\with_tls\load\custom_shape/input_net.net.xml"/>
    </input>

    <output>
        <plain-output-prefix value="D:/SUMO/tests/netedit\netelements\crossings\with_tls\load\custom_shape/input_net"/>
    </output>

    <processing>
        <geometry.min-radius.fix.railways value="false"/>
        <geometry.max-grade.fix value="false"/>
        <offset.disable-normalization value="true"/>
        <lefthand value="false"/>
    </processing>

    <junctions>
        <no-turnarounds value="true"/>
        <junctions.corner-detail value="5"/>
        <junctions.limit-turn-speed value="5.5"/>
        <rectangular-lane-cut value="false"/>
    </junctions>

    <pedestrian>
        <walkingareas value="false"/>
    </pedestrian>

</configuration>
-->

<connections version="1.9" xmlns:xsi="http://www.w3.org/2001/XMLSchema-instance" xsi:noNamespaceSchemaLocation="http://sumo.dlr.de/xsd/connections_file.xsd">
    <connection from="CE" to="EC" fromLane="1" toLane="1"/>

    <connection from="CN" to="NC" fromLane="1" toLane="1"/>

    <connection from="CS" to="SC" fromLane="1" toLane="1"/>

    <connection from="CW" to="WC" fromLane="1" toLane="1"/>

    <connection from="EC" to="CN" fromLane="0" toLane="0"/>
    <connection from="EC" to="CW" fromLane="0" toLane="0"/>
    <connection from="EC" to="CW" fromLane="1" toLane="1"/>
    <connection from="EC" to="CS" fromLane="1" toLane="1"/>

    <connection from="NC" to="CW" fromLane="0" toLane="0"/>
    <connection from="NC" to="CS" fromLane="0" toLane="0"/>
    <connection from="NC" to="CS" fromLane="1" toLane="1"/>
    <connection from="NC" to="CE" fromLane="1" toLane="1"/>

    <connection from="SC" to="CE" fromLane="0" toLane="0"/>
    <connection from="SC" to="CN" fromLane="0" toLane="0"/>
    <connection from="SC" to="CN" fromLane="1" toLane="1"/>
    <connection from="SC" to="CW" fromLane="1" toLane="1"/>

    <connection from="WC" to="CS" fromLane="0" toLane="0"/>
    <connection from="WC" to="CE" fromLane="0" toLane="0"/>
    <connection from="WC" to="CE" fromLane="1" toLane="1"/>
    <connection from="WC" to="CN" fromLane="1" toLane="1"/>

</connections>
