<additional xmlns:xsi="http://www.w3.org/2001/XMLSchema-instance" xsi:noNamespaceSchemaLocation="http://sumo.dlr.de/xsd/additional_file.xsd">

    <!-- missing parkingLength -->
    <containerStop id="containerStop_01" lane="gneE0_0" startPos="25" endPos="30" name="containerStop" friendlyPos="false"/>

    <!-- non valid format parkingLength (dummy) -->
    <containerStop id="containerStop_02" lane="gneE0_0" startPos="35" endPos="40" color="dummyparkingLength" name="containerStop" friendlyPos="false"/>

    <!-- non valid format parkingLength (negative) -->
    <containerStop id="containerStop_03" lane="gneE0_0" startPos="35" endPos="40" color="-7" name="containerStop" friendlyPos="false"/>

    <!-- non valid format parkingLength (double) -->
    <containerStop id="containerStop_04" lane="gneE0_0" startPos="35" endPos="40" color="255,120,240" name="containerStop" friendlyPos="false"/>

    <!-- valid format parkingLength -->
    <containerStop id="containerStop_05" lane="gneE0_0" startPos="45" endPos="50" color="red" name="containerStop" friendlyPos="false"/>

</additional>
