<?xml version="1.0" encoding="UTF-8"?>

<!-- generated on 08/05/21 08:34:58 by Eclipse SUMO netedit Version v1_8_0+1925-6bf04e0fef
<configuration xmlns:xsi="http://www.w3.org/2001/XMLSchema-instance" xsi:noNamespaceSchemaLocation="http://sumo.dlr.de/xsd/netconvertConfiguration.xsd">

    <input>
        <sumo-net-file value="osm.net.xml"/>
    </input>

    <output>
        <output-file value="osm.net.xml"/>
        <output.street-names value="true"/>
    </output>

    <processing>
        <geometry.min-radius.fix.railways value="false"/>
        <geometry.max-grade.fix value="false"/>
        <offset.disable-normalization value="true"/>
        <lefthand value="false"/>
    </processing>

    <junctions>
        <no-turnarounds value="true"/>
        <junctions.corner-detail value="5"/>
        <junctions.limit-turn-speed value="5.5"/>
        <rectangular-lane-cut value="false"/>
    </junctions>

    <pedestrian>
        <walkingareas value="true"/>
    </pedestrian>

    <netedit>
        <additional-files value="C:\Users\knoc_me\Desktop\Tutorial_SUMOport\stops.add.xml"/>
    </netedit>

    <report>
        <aggregate-warnings value="5"/>
    </report>

</configuration>
-->

<additional xmlns:xsi="http://www.w3.org/2001/XMLSchema-instance" xsi:noNamespaceSchemaLocation="http://sumo.dlr.de/xsd/additional_file.xsd">
    <busStop id="busStop_pier" lane="-128042010_1" startPos="37.63" endPos="57.63" name="busstation_pier">
		<access lane="127071510_0" pos="10"/>
	</busStop>
    <busStop id="busStop_busstation_terminal" lane="-197841302_1" startPos="19.11" endPos="39.11" name="busstation_terminal"/>
    <busStop id="busStop_passenger_terminal" lane="-596327078#2_0" startPos="1.26" endPos="21.26" name="passenger_terminal"/>
    <busStop id="busStop_waterway" lane="127071510_0" startPos="0" endPos="20" name="busstation_waterway">
		<access lane="-128042010_1" pos="50"/>
	</busStop>
    <containerStop id="containerStop_pier" lane="-277007500#0_1" startPos="62.73" endPos="82.73" name="containerstop_pier"/>
    <containerStop id="containerStop_truck_terminal" lane="149185411#2_0" startPos="54.73" endPos="74.73" name="truck_terminal"/>
    <containerStop id="containerStop_truck_trainstation" lane="276781727#9_0" startPos="10" endPos="30" name="truck_trainstation"/>
    <containerStop id="containerStop_trainstation" lane="29497609_0" startPos="523.06" endPos="623.06" name="trainstation"/>
    <containerStop id="containerStop_waterway" lane="gneE2_0" startPos="0" endPos="20" name="containerstop_waterway"/>
</additional>
