<?xml version="1.0" encoding="UTF-8"?>

<!-- generated on 2025-11-19T08:36:56.528177+01:00 by Eclipse SUMO netgenerate v1_25_0+0089-76e7e565b9d
<netgenerateConfiguration xmlns:xsi="http://www.w3.org/2001/XMLSchema-instance" xsi:noNamespaceSchemaLocation="http://sumo.dlr.de/xsd/netgenerateConfiguration.xsd">

    <random_network>
        <rand value="true"/>
        <rand.iterations value="30"/>
        <rand.grid value="true"/>
    </random_network>

    <output>
        <prefix.junction value="J"/>
        <prefix.edge value="E"/>
    </output>

    <processing>
        <numerical-ids value="true"/>
        <numerical-ids.node-start value="0"/>
        <numerical-ids.edge-start value="0"/>
    </processing>

    <junctions>
        <no-internal-links value="true"/>
    </junctions>

</netgenerateConfiguration>
-->

<net version="1.20" junctionCornerDetail="5" limitTurnSpeed="5.50" xmlns:xsi="http://www.w3.org/2001/XMLSchema-instance" xsi:noNamespaceSchemaLocation="http://sumo.dlr.de/xsd/net_file.xsd">

    <location netOffset="500.00,400.00" convBoundary="0.00,0.00,900.00,1100.00" origBoundary="-500.00,-400.00,400.00,700.00" projParameter="!"/>

    <edge id="E0" from="J2" to="J1" priority="-1">
        <lane id="E0_0" index="0" speed="13.89" length="100.00" shape="398.40,492.80 398.40,407.20"/>
    </edge>
    <edge id="E1" from="J1" to="J0" priority="-1">
        <lane id="E1_0" index="0" speed="13.89" length="100.00" shape="407.20,398.40 492.80,398.40"/>
    </edge>
    <edge id="E10" from="J6" to="J5" priority="-1">
        <lane id="E10_0" index="0" speed="13.89" length="141.42" shape="309.42,707.16 392.84,790.58"/>
    </edge>
    <edge id="E11" from="J7" to="J5" priority="-1">
        <lane id="E11_0" index="0" speed="13.89" length="100.00" shape="398.40,892.80 398.40,805.33"/>
    </edge>
    <edge id="E12" from="J8" to="J7" priority="-1">
        <lane id="E12_0" index="0" speed="13.89" length="100.00" shape="500.00,901.60 407.20,901.60"/>
    </edge>
    <edge id="E13" from="J9" to="J7" priority="-1">
        <lane id="E13_0" index="0" speed="13.89" length="200.00" shape="207.20,898.40 392.80,898.40"/>
    </edge>
    <edge id="E14" from="J10" to="J7" priority="-1">
        <lane id="E14_0" index="0" speed="13.89" length="200.00" shape="398.40,1100.00 398.40,907.20"/>
    </edge>
    <edge id="E15" from="J11" to="J23" priority="-1">
        <lane id="E15_0" index="0" speed="13.89" length="200.00" shape="688.27,1.60 507.20,1.60"/>
    </edge>
    <edge id="E16" from="J11" to="J25" priority="-1">
        <lane id="E16_0" index="0" speed="13.89" length="141.42" shape="692.84,9.42 604.90,97.37"/>
    </edge>
    <edge id="E17" from="J13" to="J22" priority="-1">
        <lane id="E17_0" index="0" speed="13.89" length="200.00" shape="598.40,600.00 598.40,403.20"/>
    </edge>
    <edge id="E18" from="J14" to="J29" priority="-1">
        <lane id="E18_0" index="0" speed="13.89" length="200.00" shape="98.40,798.67 98.40,600.00"/>
    </edge>
    <edge id="E19" from="J14" to="J9" priority="-1">
        <lane id="E19_0" index="0" speed="13.89" length="141.42" shape="102.07,799.81 197.37,895.10"/>
    </edge>
    <edge id="E2" from="J2" to="J27" priority="-1">
        <lane id="E2_0" index="0" speed="13.89" length="200.00" shape="392.80,501.60 209.18,501.60"/>
    </edge>
    <edge id="E20" from="J16" to="J9" priority="-1">
        <lane id="E20_0" index="0" speed="13.89" length="100.00" shape="198.40,1000.00 198.40,907.20"/>
    </edge>
    <edge id="E21" from="J15" to="J1" priority="-1">
        <lane id="E21_0" index="0" speed="13.89" length="100.00" shape="307.20,398.40 392.80,398.40"/>
    </edge>
    <edge id="E22" from="J17" to="J12" priority="-1">
        <lane id="E22_0" index="0" speed="13.89" length="100.00" shape="501.60,107.20 501.60,188.27"/>
    </edge>
    <edge id="E23" from="J12" to="J0" priority="-1">
        <lane id="E23_0" index="0" speed="13.89" length="200.00" shape="501.60,205.33 501.60,392.80"/>
    </edge>
    <edge id="E24" from="J18" to="J15" priority="-1">
        <lane id="E24_0" index="0" speed="13.89" length="100.00" shape="211.73,398.40 292.80,398.40"/>
    </edge>
    <edge id="E25" from="J19" to="J11" priority="-1">
        <lane id="E25_0" index="0" speed="13.89" length="200.00" shape="698.40,200.00 698.40,11.73"/>
    </edge>
    <edge id="E26" from="J20" to="J11" priority="-1">
        <lane id="E26_0" index="0" speed="13.89" length="200.00" shape="900.00,1.60 707.20,1.60"/>
    </edge>
    <edge id="E27" from="J21" to="J15" priority="-1">
        <lane id="E27_0" index="0" speed="13.89" length="100.00" shape="301.60,307.73 301.60,392.80"/>
    </edge>
    <edge id="E28" from="J23" to="J17" priority="-1">
        <lane id="E28_0" index="0" speed="13.89" length="100.00" shape="501.60,11.73 501.60,92.80"/>
    </edge>
    <edge id="E29" from="J24" to="J17" priority="-1">
        <lane id="E29_0" index="0" speed="13.89" length="100.00" shape="407.73,98.40 492.80,98.40"/>
    </edge>
    <edge id="E3" from="J4" to="J2" priority="-1">
        <lane id="E3_0" index="0" speed="13.89" length="141.42" shape="490.58,592.84 407.16,509.42"/>
    </edge>
    <edge id="E30" from="J22" to="J0" priority="-1">
        <lane id="E30_0" index="0" speed="13.89" length="100.00" shape="596.80,401.60 507.20,401.60"/>
    </edge>
    <edge id="E31" from="J25" to="J17" priority="-1">
        <lane id="E31_0" index="0" speed="13.89" length="100.00" shape="588.27,101.60 507.20,101.60"/>
    </edge>
    <edge id="E32" from="J21" to="J18" priority="-1">
        <lane id="E32_0" index="0" speed="13.89" length="141.42" shape="295.67,306.59 209.42,392.84"/>
    </edge>
    <edge id="E33" from="J26" to="J18" priority="-1">
        <lane id="E33_0" index="0" speed="13.89" length="100.00" shape="111.73,398.40 192.80,398.40"/>
    </edge>
    <edge id="E34" from="J27" to="J18" priority="-1">
        <lane id="E34_0" index="0" speed="13.89" length="100.00" shape="198.40,488.27 198.40,407.20"/>
    </edge>
    <edge id="E35" from="J24" to="J23" priority="-1">
        <lane id="E35_0" index="0" speed="13.89" length="141.42" shape="404.33,93.41 490.58,7.16"/>
    </edge>
    <edge id="E36" from="J12" to="J25" priority="-1">
        <lane id="E36_0" index="0" speed="13.89" length="141.42" shape="507.16,190.58 590.58,107.16"/>
    </edge>
    <edge id="E37" from="J27" to="J26" priority="-1">
        <lane id="E37_0" index="0" speed="13.89" length="141.42" shape="190.58,492.84 107.16,409.42"/>
    </edge>
    <edge id="E38" from="J28" to="J26" priority="-1">
        <lane id="E38_0" index="0" speed="13.89" length="100.00" shape="0.00,398.40 92.80,398.40"/>
    </edge>
    <edge id="E39" from="J29" to="J26" priority="-1">
        <lane id="E39_0" index="0" speed="13.89" length="200.00" shape="98.40,600.00 98.40,411.73"/>
    </edge>
    <edge id="E4" from="J3" to="J2" priority="-1">
        <lane id="E4_0" index="0" speed="13.89" length="200.00" shape="398.40,688.27 398.40,511.73"/>
    </edge>
    <edge id="E40" from="J1" to="J2" priority="-1">
        <lane id="E40_0" index="0" speed="13.89" length="100.00" shape="401.60,407.20 401.60,492.80"/>
    </edge>
    <edge id="E41" from="J0" to="J1" priority="-1">
        <lane id="E41_0" index="0" speed="13.89" length="100.00" shape="492.80,401.60 407.20,401.60"/>
    </edge>
    <edge id="E42" from="J27" to="J2" priority="-1">
        <lane id="E42_0" index="0" speed="13.89" length="200.00" shape="209.18,498.40 392.80,498.40"/>
    </edge>
    <edge id="E43" from="J2" to="J4" priority="-1">
        <lane id="E43_0" index="0" speed="13.89" length="141.42" shape="409.42,507.16 492.84,590.58"/>
    </edge>
    <edge id="E44" from="J2" to="J3" priority="-1">
        <lane id="E44_0" index="0" speed="13.89" length="200.00" shape="401.60,511.73 401.60,688.27"/>
    </edge>
    <edge id="E45" from="J3" to="J4" priority="-1">
        <lane id="E45_0" index="0" speed="13.89" length="141.42" shape="407.16,690.58 493.78,603.96"/>
    </edge>
    <edge id="E46" from="J3" to="J5" priority="-1">
        <lane id="E46_0" index="0" speed="13.89" length="100.00" shape="401.60,707.20 401.60,788.27"/>
    </edge>
    <edge id="E47" from="J0" to="J4" priority="-1">
        <lane id="E47_0" index="0" speed="13.89" length="200.00" shape="501.60,407.20 501.60,588.27"/>
    </edge>
    <edge id="E48" from="J3" to="J6" priority="-1">
        <lane id="E48_0" index="0" speed="13.89" length="100.00" shape="392.80,701.60 311.73,701.60"/>
    </edge>
    <edge id="E49" from="J27" to="J6" priority="-1">
        <lane id="E49_0" index="0" speed="13.89" length="223.61" shape="205.54,507.49 298.76,693.94"/>
    </edge>
    <edge id="E5" from="J4" to="J3" priority="-1">
        <lane id="E5_0" index="0" speed="13.89" length="141.42" shape="496.04,606.22 409.42,692.84"/>
    </edge>
    <edge id="E50" from="J5" to="J6" priority="-1">
        <lane id="E50_0" index="0" speed="13.89" length="141.42" shape="390.58,792.84 307.16,709.42"/>
    </edge>
    <edge id="E51" from="J5" to="J7" priority="-1">
        <lane id="E51_0" index="0" speed="13.89" length="100.00" shape="401.60,805.33 401.60,892.80"/>
    </edge>
    <edge id="E52" from="J7" to="J8" priority="-1">
        <lane id="E52_0" index="0" speed="13.89" length="100.00" shape="407.20,898.40 500.00,898.40"/>
    </edge>
    <edge id="E53" from="J7" to="J9" priority="-1">
        <lane id="E53_0" index="0" speed="13.89" length="200.00" shape="392.80,901.60 207.20,901.60"/>
    </edge>
    <edge id="E54" from="J7" to="J10" priority="-1">
        <lane id="E54_0" index="0" speed="13.89" length="200.00" shape="401.60,907.20 401.60,1100.00"/>
    </edge>
    <edge id="E55" from="J23" to="J11" priority="-1">
        <lane id="E55_0" index="0" speed="13.89" length="200.00" shape="507.20,-1.60 688.27,-1.60"/>
    </edge>
    <edge id="E56" from="J25" to="J11" priority="-1">
        <lane id="E56_0" index="0" speed="13.89" length="141.42" shape="602.63,95.10 690.58,7.16"/>
    </edge>
    <edge id="E57" from="J22" to="J13" priority="-1">
        <lane id="E57_0" index="0" speed="13.89" length="200.00" shape="601.60,403.20 601.60,600.00"/>
    </edge>
    <edge id="E58" from="J29" to="J14" priority="-1">
        <lane id="E58_0" index="0" speed="13.89" length="200.00" shape="101.60,600.00 101.60,798.67"/>
    </edge>
    <edge id="E59" from="J9" to="J14" priority="-1">
        <lane id="E59_0" index="0" speed="13.89" length="141.42" shape="195.10,897.37 99.81,802.07"/>
    </edge>
    <edge id="E6" from="J5" to="J3" priority="-1">
        <lane id="E6_0" index="0" speed="13.89" length="100.00" shape="398.40,788.27 398.40,707.20"/>
    </edge>
    <edge id="E60" from="J9" to="J16" priority="-1">
        <lane id="E60_0" index="0" speed="13.89" length="100.00" shape="201.60,907.20 201.60,1000.00"/>
    </edge>
    <edge id="E61" from="J1" to="J15" priority="-1">
        <lane id="E61_0" index="0" speed="13.89" length="100.00" shape="392.80,401.60 307.20,401.60"/>
    </edge>
    <edge id="E62" from="J12" to="J17" priority="-1">
        <lane id="E62_0" index="0" speed="13.89" length="100.00" shape="498.40,188.27 498.40,107.20"/>
    </edge>
    <edge id="E63" from="J0" to="J12" priority="-1">
        <lane id="E63_0" index="0" speed="13.89" length="200.00" shape="498.40,392.80 498.40,205.33"/>
    </edge>
    <edge id="E64" from="J15" to="J18" priority="-1">
        <lane id="E64_0" index="0" speed="13.89" length="100.00" shape="292.80,401.60 211.73,401.60"/>
    </edge>
    <edge id="E65" from="J11" to="J19" priority="-1">
        <lane id="E65_0" index="0" speed="13.89" length="200.00" shape="701.60,11.73 701.60,200.00"/>
    </edge>
    <edge id="E66" from="J11" to="J20" priority="-1">
        <lane id="E66_0" index="0" speed="13.89" length="200.00" shape="707.20,-1.60 900.00,-1.60"/>
    </edge>
    <edge id="E67" from="J15" to="J21" priority="-1">
        <lane id="E67_0" index="0" speed="13.89" length="100.00" shape="298.40,392.80 298.40,307.73"/>
    </edge>
    <edge id="E68" from="J17" to="J23" priority="-1">
        <lane id="E68_0" index="0" speed="13.89" length="100.00" shape="498.40,92.80 498.40,11.73"/>
    </edge>
    <edge id="E69" from="J17" to="J24" priority="-1">
        <lane id="E69_0" index="0" speed="13.89" length="100.00" shape="492.80,101.60 407.73,101.60"/>
    </edge>
    <edge id="E7" from="J4" to="J0" priority="-1">
        <lane id="E7_0" index="0" speed="13.89" length="200.00" shape="498.40,588.27 498.40,407.20"/>
    </edge>
    <edge id="E70" from="J0" to="J22" priority="-1">
        <lane id="E70_0" index="0" speed="13.89" length="100.00" shape="507.20,398.40 596.80,398.40"/>
    </edge>
    <edge id="E71" from="J17" to="J25" priority="-1">
        <lane id="E71_0" index="0" speed="13.89" length="100.00" shape="507.20,98.40 588.27,98.40"/>
    </edge>
    <edge id="E72" from="J18" to="J21" priority="-1">
        <lane id="E72_0" index="0" speed="13.89" length="141.42" shape="207.16,390.58 293.41,304.33"/>
    </edge>
    <edge id="E73" from="J18" to="J26" priority="-1">
        <lane id="E73_0" index="0" speed="13.89" length="100.00" shape="192.80,401.60 111.73,401.60"/>
    </edge>
    <edge id="E74" from="J18" to="J27" priority="-1">
        <lane id="E74_0" index="0" speed="13.89" length="100.00" shape="201.60,407.20 201.60,488.27"/>
    </edge>
    <edge id="E75" from="J23" to="J24" priority="-1">
        <lane id="E75_0" index="0" speed="13.89" length="141.42" shape="492.84,9.42 406.59,95.67"/>
    </edge>
    <edge id="E76" from="J25" to="J12" priority="-1">
        <lane id="E76_0" index="0" speed="13.89" length="141.42" shape="592.84,109.42 509.42,192.84"/>
    </edge>
    <edge id="E77" from="J26" to="J27" priority="-1">
        <lane id="E77_0" index="0" speed="13.89" length="141.42" shape="109.42,407.16 192.84,490.58"/>
    </edge>
    <edge id="E78" from="J26" to="J28" priority="-1">
        <lane id="E78_0" index="0" speed="13.89" length="100.00" shape="92.80,401.60 0.00,401.60"/>
    </edge>
    <edge id="E79" from="J26" to="J29" priority="-1">
        <lane id="E79_0" index="0" speed="13.89" length="200.00" shape="101.60,411.73 101.60,600.00"/>
    </edge>
    <edge id="E8" from="J6" to="J3" priority="-1">
        <lane id="E8_0" index="0" speed="13.89" length="100.00" shape="311.73,698.40 392.80,698.40"/>
    </edge>
    <edge id="E9" from="J6" to="J27" priority="-1">
        <lane id="E9_0" index="0" speed="13.89" length="223.61" shape="295.90,695.37 202.67,508.92"/>
    </edge>

    <junction id="J0" type="priority" x="500.00" y="400.00" incLanes="E7_0 E30_0 E23_0 E1_0" intLanes="" shape="496.80,407.20 503.20,407.20 503.64,404.98 504.20,404.20 504.98,403.64 505.98,403.31 507.20,403.20 507.20,396.80 504.98,396.36 504.20,395.80 503.64,395.02 503.31,394.02 503.20,392.80 496.80,392.80 496.36,395.02 495.80,395.80 495.02,396.36 494.02,396.69 492.80,396.80 492.80,403.20 495.02,403.64 495.80,404.20 496.36,404.98 496.69,405.98">
        <request index="0"  response="0000000000000000" foes="1000010000100000"/>
        <request index="1"  response="0000000000000000" foes="0111110001100000"/>
        <request index="2"  response="0000001100000000" foes="0110001111100000"/>
        <request index="3"  response="0100001000010000" foes="0100001000010000"/>
        <request index="4"  response="0000001000000000" foes="0100001000001000"/>
        <request index="5"  response="0000011000000111" foes="1100011000000111"/>
        <request index="6"  response="0011011000000110" foes="0011111000000110"/>
        <request index="7"  response="0010000100000100" foes="0010000100000100"/>
        <request index="8"  response="0000000000000000" foes="0010000010000100"/>
        <request index="9"  response="0000000000000000" foes="0110000001111100"/>
        <request index="10" response="0000000000000011" foes="1110000001100011"/>
        <request index="11" response="0001000001000010" foes="0001000001000010"/>
        <request index="12" response="0000000000000010" foes="0000100001000010"/>
        <request index="13" response="0000011100000110" foes="0000011111000110"/>
        <request index="14" response="0000011000110110" foes="0000011000111110"/>
        <request index="15" response="0000010000100001" foes="0000010000100001"/>
    </junction>
    <junction id="J1" type="priority" x="400.00" y="400.00" incLanes="E0_0 E41_0 E21_0" intLanes="" shape="396.80,407.20 403.20,407.20 403.64,404.98 404.20,404.20 404.98,403.64 405.98,403.31 407.20,403.20 407.20,396.80 392.80,396.80 392.80,403.20 395.02,403.64 395.80,404.20 396.36,404.98 396.69,405.98">
        <request index="0" response="000010000" foes="100010000"/>
        <request index="1" response="011010000" foes="011110000"/>
        <request index="2" response="010001000" foes="010001000"/>
        <request index="3" response="000000000" foes="010000100"/>
        <request index="4" response="000000000" foes="110000011"/>
        <request index="5" response="001000010" foes="001000010"/>
        <request index="6" response="000000000" foes="000100010"/>
        <request index="7" response="000011000" foes="000011110"/>
        <request index="8" response="000010001" foes="000010001"/>
    </junction>
    <junction id="J10" type="priority" x="400.00" y="1100.00" incLanes="E54_0" intLanes="" shape="400.00,1100.00 403.20,1100.00 400.00,1100.00">
        <request index="0" response="0" foes="0"/>
    </junction>
    <junction id="J11" type="priority" x="700.00" y="0.00" incLanes="E25_0 E26_0 E55_0 E56_0" intLanes="" shape="696.80,11.73 703.20,11.73 703.31,9.12 703.64,6.99 704.20,5.33 704.98,4.15 705.98,3.44 707.20,3.20 707.20,-3.20 688.27,-3.20 688.27,3.20 690.18,3.51 690.57,3.91 690.57,4.46 690.20,5.16 689.45,6.03 693.97,10.55 695.54,9.43 696.09,9.43 696.49,9.82 696.72,10.58">
        <request index="0"  response="0000010000100000" foes="1000010000100000"/>
        <request index="1"  response="0111010001100000" foes="0111110001100000"/>
        <request index="2"  response="0110001101100000" foes="0110001111100000"/>
        <request index="3"  response="0100001000010000" foes="0100001000010000"/>
        <request index="4"  response="0000000000000000" foes="0100001000001000"/>
        <request index="5"  response="0000000000000000" foes="1100011000000111"/>
        <request index="6"  response="0000000000000000" foes="0011111000000110"/>
        <request index="7"  response="0010000100000100" foes="0010000100000100"/>
        <request index="8"  response="0000000000000000" foes="0010000010000100"/>
        <request index="9"  response="0000000001110000" foes="0110000001111100"/>
        <request index="10" response="0000000001100000" foes="1110000001100011"/>
        <request index="11" response="0001000001000010" foes="0001000001000010"/>
        <request index="12" response="0000000001000000" foes="0000100001000010"/>
        <request index="13" response="0000011101000000" foes="0000011111000110"/>
        <request index="14" response="0000011000110000" foes="0000011000111110"/>
        <request index="15" response="0000010000100001" foes="0000010000100001"/>
    </junction>
    <junction id="J12" type="priority" x="500.00" y="200.00" incLanes="E63_0 E76_0 E22_0" intLanes="" shape="496.80,205.33 503.20,205.33 504.02,202.29 505.04,200.49 506.47,198.50 508.31,196.33 510.55,193.97 506.03,189.45 504.46,190.57 503.91,190.57 503.51,190.18 503.28,189.42 503.20,188.27 496.80,188.27">
        <request index="0" response="000000000" foes="100010000"/>
        <request index="1" response="011000000" foes="011110000"/>
        <request index="2" response="010001000" foes="010001000"/>
        <request index="3" response="010000000" foes="010000100"/>
        <request index="4" response="010000011" foes="110000011"/>
        <request index="5" response="001000010" foes="001000010"/>
        <request index="6" response="000000000" foes="000100010"/>
        <request index="7" response="000000000" foes="000011110"/>
        <request index="8" response="000010001" foes="000010001"/>
    </junction>
    <junction id="J13" type="priority" x="600.00" y="600.00" incLanes="E57_0" intLanes="" shape="600.00,600.00 603.20,600.00 600.00,600.00">
        <request index="0" response="0" foes="0"/>
    </junction>
    <junction id="J14" type="priority" x="100.00" y="800.00" incLanes="E59_0 E58_0" intLanes="" shape="98.67,803.20 103.20,798.67 96.80,798.67 97.01,800.36 97.27,801.13 97.63,801.86 98.10,802.55">
        <request index="0" response="00" foes="00"/>
        <request index="1" response="00" foes="00"/>
    </junction>
    <junction id="J15" type="priority" x="300.00" y="400.00" incLanes="E61_0 E27_0 E24_0" intLanes="" shape="307.20,403.20 307.20,396.80 304.98,396.36 304.20,395.80 303.64,395.02 303.31,394.02 303.20,392.80 296.80,392.80 296.36,395.02 295.80,395.80 295.02,396.36 294.02,396.69 292.80,396.80 292.80,403.20">
        <request index="0" response="000000000" foes="100010000"/>
        <request index="1" response="011000000" foes="011110000"/>
        <request index="2" response="010001000" foes="010001000"/>
        <request index="3" response="010000000" foes="010000100"/>
        <request index="4" response="010000011" foes="110000011"/>
        <request index="5" response="001000010" foes="001000010"/>
        <request index="6" response="000000000" foes="000100010"/>
        <request index="7" response="000000000" foes="000011110"/>
        <request index="8" response="000010001" foes="000010001"/>
    </junction>
    <junction id="J16" type="priority" x="200.00" y="1000.00" incLanes="E60_0" intLanes="" shape="200.00,1000.00 203.20,1000.00 200.00,1000.00">
        <request index="0" response="0" foes="0"/>
    </junction>
    <junction id="J17" type="priority" x="500.00" y="100.00" incLanes="E62_0 E31_0 E28_0 E29_0" intLanes="" shape="496.80,107.20 503.20,107.20 503.64,104.98 504.20,104.20 504.98,103.64 505.98,103.31 507.20,103.20 507.20,96.80 504.98,96.36 504.20,95.80 503.64,95.02 503.31,94.02 503.20,92.80 496.80,92.80 496.36,95.02 495.80,95.80 495.02,96.36 494.02,96.69 492.80,96.80 492.80,103.20 495.02,103.64 495.80,104.20 496.36,104.98 496.69,105.98">
        <request index="0"  response="0000000000000000" foes="1000010000100000"/>
        <request index="1"  response="0000000000000000" foes="0111110001100000"/>
        <request index="2"  response="0000001100000000" foes="0110001111100000"/>
        <request index="3"  response="0100001000010000" foes="0100001000010000"/>
        <request index="4"  response="0000001000000000" foes="0100001000001000"/>
        <request index="5"  response="0000011000000111" foes="1100011000000111"/>
        <request index="6"  response="0011011000000110" foes="0011111000000110"/>
        <request index="7"  response="0010000100000100" foes="0010000100000100"/>
        <request index="8"  response="0000000000000000" foes="0010000010000100"/>
        <request index="9"  response="0000000000000000" foes="0110000001111100"/>
        <request index="10" response="0000000000000011" foes="1110000001100011"/>
        <request index="11" response="0001000001000010" foes="0001000001000010"/>
        <request index="12" response="0000000000000010" foes="0000100001000010"/>
        <request index="13" response="0000011100000110" foes="0000011111000110"/>
        <request index="14" response="0000011000110110" foes="0000011000111110"/>
        <request index="15" response="0000010000100001" foes="0000010000100001"/>
    </junction>
    <junction id="J18" type="priority" x="200.00" y="400.00" incLanes="E34_0 E64_0 E32_0 E33_0" intLanes="" shape="196.80,407.20 203.20,407.20 204.15,404.98 205.33,404.20 206.99,403.64 209.12,403.31 211.73,403.20 211.73,396.80 209.82,396.49 209.43,396.09 209.43,395.54 209.80,394.84 210.55,393.97 206.03,389.45 203.72,391.85 201.90,393.73 200.25,395.13 198.40,396.08 196.04,396.63 192.80,396.80 192.80,403.20 195.02,403.64 195.80,404.20 196.36,404.98 196.69,405.98">
        <request index="0"  response="0000000000100000" foes="1000010000100000"/>
        <request index="1"  response="0111000001100000" foes="0111110001100000"/>
        <request index="2"  response="0110001101100000" foes="0110001111100000"/>
        <request index="3"  response="0100001000010000" foes="0100001000010000"/>
        <request index="4"  response="0000000000000000" foes="0100001000001000"/>
        <request index="5"  response="0000000000000000" foes="1100011000000111"/>
        <request index="6"  response="0011000000000000" foes="0011111000000110"/>
        <request index="7"  response="0010000100000100" foes="0010000100000100"/>
        <request index="8"  response="0010000000000000" foes="0010000010000100"/>
        <request index="9"  response="0110000001110000" foes="0110000001111100"/>
        <request index="10" response="0110000001100011" foes="1110000001100011"/>
        <request index="11" response="0001000001000010" foes="0001000001000010"/>
        <request index="12" response="0000000000000000" foes="0000100001000010"/>
        <request index="13" response="0000000000000000" foes="0000011111000110"/>
        <request index="14" response="0000000000110000" foes="0000011000111110"/>
        <request index="15" response="0000010000100001" foes="0000010000100001"/>
    </junction>
    <junction id="J19" type="priority" x="700.00" y="200.00" incLanes="E65_0" intLanes="" shape="700.00,200.00 703.20,200.00 700.00,200.00">
        <request index="0" response="0" foes="0"/>
    </junction>
    <junction id="J2" type="priority" x="400.00" y="500.00" incLanes="E4_0 E3_0 E40_0 E42_0" intLanes="" shape="396.80,511.73 403.20,511.73 403.51,509.82 403.91,509.43 404.46,509.43 405.16,509.80 406.03,510.55 410.55,506.03 408.31,503.62 406.47,501.29 405.04,499.04 404.02,496.88 403.40,494.80 403.20,492.80 396.80,492.80 396.36,495.02 395.80,495.80 395.02,496.36 394.02,496.69 392.80,496.80 392.80,503.20 395.02,504.15 395.80,505.33 396.36,506.99 396.69,509.12">
        <request index="0"  response="0000000000000000" foes="1000010000100000"/>
        <request index="1"  response="0000000000000000" foes="0111110001100000"/>
        <request index="2"  response="0000001100000000" foes="0110001111100000"/>
        <request index="3"  response="0100001000010000" foes="0100001000010000"/>
        <request index="4"  response="0000001000000000" foes="0100001000001000"/>
        <request index="5"  response="0000011000000111" foes="1100011000000111"/>
        <request index="6"  response="0011011000000110" foes="0011111000000110"/>
        <request index="7"  response="0010000100000100" foes="0010000100000100"/>
        <request index="8"  response="0000000000000000" foes="0010000010000100"/>
        <request index="9"  response="0000000000000000" foes="0110000001111100"/>
        <request index="10" response="0000000000000011" foes="1110000001100011"/>
        <request index="11" response="0001000001000010" foes="0001000001000010"/>
        <request index="12" response="0000000000000010" foes="0000100001000010"/>
        <request index="13" response="0000011100000110" foes="0000011111000110"/>
        <request index="14" response="0000011000110110" foes="0000011000111110"/>
        <request index="15" response="0000010000100001" foes="0000010000100001"/>
    </junction>
    <junction id="J20" type="priority" x="900.00" y="0.00" incLanes="E66_0" intLanes="" shape="900.00,0.00 900.00,-3.20 900.00,0.00">
        <request index="0" response="0" foes="0"/>
    </junction>
    <junction id="J21" type="priority" x="300.00" y="300.00" incLanes="E67_0 E72_0" intLanes="" shape="296.80,307.73 303.20,307.73 302.90,303.31 301.99,300.36 300.47,298.87 298.34,298.85 295.61,300.29 292.27,303.20">
        <request index="0" response="00" foes="00"/>
        <request index="1" response="00" foes="00"/>
    </junction>
    <junction id="J22" type="priority" x="600.00" y="400.00" incLanes="E17_0 E70_0" intLanes="" shape="596.80,403.20 603.20,403.20 602.49,399.64 601.60,398.40 600.36,397.51 598.76,396.98 596.80,396.80">
        <request index="0" response="00" foes="00"/>
        <request index="1" response="00" foes="00"/>
    </junction>
    <junction id="J23" type="priority" x="500.00" y="0.00" incLanes="E68_0 E15_0 E35_0" intLanes="" shape="496.80,11.73 503.20,11.73 503.31,9.12 503.64,6.99 504.20,5.33 504.98,4.15 505.98,3.44 507.20,3.20 507.20,-3.20 502.90,-3.01 499.72,-2.38 497.22,-1.24 494.97,0.49 492.52,2.89 489.45,6.03 493.97,10.55 495.54,9.43 496.09,9.43 496.49,9.82 496.72,10.58">
        <request index="0" response="000010000" foes="100010000"/>
        <request index="1" response="011010000" foes="011110000"/>
        <request index="2" response="010001000" foes="010001000"/>
        <request index="3" response="000000000" foes="010000100"/>
        <request index="4" response="000000000" foes="110000011"/>
        <request index="5" response="001000010" foes="001000010"/>
        <request index="6" response="000000000" foes="000100010"/>
        <request index="7" response="000011000" foes="000011110"/>
        <request index="8" response="000010001" foes="000010001"/>
    </junction>
    <junction id="J24" type="priority" x="400.00" y="100.00" incLanes="E69_0 E75_0" intLanes="" shape="407.73,103.20 407.73,96.80 403.20,92.27 400.29,95.61 398.85,98.34 398.87,100.47 400.36,101.99 403.31,102.90">
        <request index="0" response="00" foes="00"/>
        <request index="1" response="00" foes="00"/>
    </junction>
    <junction id="J25" type="priority" x="600.00" y="100.00" incLanes="E16_0 E71_0 E36_0" intLanes="" shape="606.03,98.50 601.50,93.97 598.78,95.54 596.78,96.09 594.37,96.49 591.53,96.72 588.27,96.80 588.27,103.20 590.18,103.51 590.57,103.91 590.57,104.46 590.20,105.16 589.45,106.03 593.97,110.55">
        <request index="0" response="000000000" foes="100010000"/>
        <request index="1" response="011000000" foes="011110000"/>