<?xml version="1.0" encoding="UTF-8"?>

<!-- generated on 2024-07-03 14:11:43 by Eclipse SUMO netedit Version v1_20_0+0977-3d26a690048
-->

<additional xmlns:xsi="http://www.w3.org/2001/XMLSchema-instance" xsi:noNamespaceSchemaLocation="http://sumo.dlr.de/xsd/additional_file.xsd">
    <!-- StoppingPlaces -->
    <chargingStation id="cs_0" lane="EdgeExternBot_0" startPos="102.73" endPos="112.73"/>
    <chargingStation id="cs_1" lane="EdgeExternTop_0" startPos="62.28" endPos="72.28"/>
    <chargingStation id="cs_10" lane="Edge3_1" startPos="22.50" endPos="32.50"/>
    <chargingStation id="cs_11" lane="Edge0_1" startPos="30.00" endPos="40.00"/>
    <chargingStation id="cs_13" lane="EdgeCenter1_1" startPos="29.55" endPos="39.55"/>
    <chargingStation id="cs_14" lane="EdgeCenter0_1" startPos="7.95" endPos="17.95"/>
    <chargingStation id="cs_2" lane="EdgeExternTop_0" startPos="102.73" endPos="112.73"/>
    <chargingStation id="cs_3" lane="EdgeExternBot_0" startPos="62.28" endPos="72.28"/>
    <chargingStation id="cs_4" lane="Edge2_1" startPos="25.00" endPos="35.00"/>
    <chargingStation id="cs_5" lane="Edge5_1" startPos="25.00" endPos="35.00"/>
    <chargingStation id="cs_6" lane="EdgeExternBot_0" startPos="17.05" endPos="27.05"/>
    <chargingStation id="cs_7" lane="EdgeExternTop_0" startPos="147.95" endPos="157.95"/>
    <chargingStation id="cs_8" lane="EdgeExternTop_0" startPos="17.05" endPos="27.05"/>
    <chargingStation id="cs_9" lane="EdgeExternBot_0" startPos="147.95" endPos="157.95"/>
</additional>
