<?xml version="1.0" encoding="UTF-8"?>


<additional xmlns:xsi="http://www.w3.org/2001/XMLSchema-instance" xsi:noNamespaceSchemaLocation="http://sumo.dlr.de/xsd/additional_file.xsd">
    <e3Detector id="e3Detector_0" freq="100.00" file="e3Detector_0.txt" pos="22.97,6.36">
        <detEntry lane="gneE1_0" pos="15.00"/>
        <detEntry lane="gneE1_0" pos="20.00"/>
        <detEntry lane="gneE1_0" pos="25.00"/>
        <detEntry lane="gneE1_0" pos="30.00"/>
        <detEntry lane="gneE1_0" pos="50.00" friendlyPos="1"/>
        <detEntry lane="gneE1_0" pos="0.00" friendlyPos="1"/>
        <detEntry lane="gneE1_0" pos="50.00" friendlyPos="1"/>
    </e3Detector>
</additional>
