<?xml version="1.0" encoding="UTF-8"?>

<!-- generated on 2021-06-25 14:28:43 by Eclipse SUMO netedit Version v1_9_2+0656-adb6934d49
<configuration xmlns:xsi="http://www.w3.org/2001/XMLSchema-instance" xsi:noNamespaceSchemaLocation="http://sumo.dlr.de/xsd/netconvertConfiguration.xsd">

    <input>
        <sumo-net-file value="C:\Users\SUMO-Test\.texttest\tmp\netedit.gui.25Jun142340.4372\netedit.gui\additionalElements\calibrator\load\routeProbe\input_net.net.xml"/>
    </input>

    <output>
        <output-file value="C:\Users\SUMO-Test\.texttest\tmp\netedit.gui.25Jun142340.4372\netedit.gui\additionalElements\calibrator\load\routeProbe\net.net.xml"/>
    </output>

    <processing>
        <geometry.min-radius.fix.railways value="false"/>
        <geometry.max-grade.fix value="false"/>
        <offset.disable-normalization value="true"/>
        <lefthand value="false"/>
    </processing>

    <junctions>
        <no-turnarounds value="true"/>
        <junctions.corner-detail value="5"/>
        <junctions.limit-turn-speed value="5.5"/>
        <rectangular-lane-cut value="false"/>
    </junctions>

    <pedestrian>
        <walkingareas value="false"/>
    </pedestrian>

    <netedit>
        <additional-files value="C:\Users\SUMO-Test\.texttest\tmp\netedit.gui.25Jun142340.4372\netedit.gui\additionalElements\calibrator\load\routeProbe\additionals.xml"/>
        <additionals-output value="C:\Users\SUMO-Test\.texttest\tmp\netedit.gui.25Jun142340.4372\netedit.gui\additionalElements\calibrator\load\routeProbe\additionals.xml"/>
        <route-files value="C:\Users\SUMO-Test\.texttest\tmp\netedit.gui.25Jun142340.4372\netedit.gui\additionalElements\calibrator\load\routeProbe\routes.xml"/>
        <demandelements-output value="C:\Users\SUMO-Test\.texttest\tmp\netedit.gui.25Jun142340.4372\netedit.gui\additionalElements\calibrator\load\routeProbe\routes.xml"/>
        <data-files value="C:\Users\SUMO-Test\.texttest\tmp\netedit.gui.25Jun142340.4372\netedit.gui\additionalElements\calibrator\load\routeProbe\datas.xml"/>
        <dataelements-output value="C:\Users\SUMO-Test\.texttest\tmp\netedit.gui.25Jun142340.4372\netedit.gui\additionalElements\calibrator\load\routeProbe\datas.xml"/>
    </netedit>

    <visualisation>
        <gui-settings-file value="C:\Users\SUMO-Test\.texttest\tmp\netedit.gui.25Jun142340.4372\netedit.gui\additionalElements\calibrator\load\routeProbe\gui-settings.xml"/>
        <window-size value="936,697"/>
        <window-pos value="50,50"/>
        <gui-testing value="true"/>
        <gui-testing-debug value="true"/>
        <gui-testing-debug-gl value="true"/>
        <gui-testing.setting-output value="C:\Users\SUMO-Test\.texttest\tmp\netedit.gui.25Jun142340.4372\netedit.gui\additionalElements\calibrator\load\routeProbe\guisettingsoutput.xml"/>
    </visualisation>

    <report>
        <no-warnings value="true"/>
        <aggregate-warnings value="5"/>
        <error-log value="C:\Users\SUMO-Test\.texttest\tmp\netedit.gui.25Jun142340.4372\netedit.gui\additionalElements\calibrator\load\routeProbe\log.txt"/>
    </report>

</configuration>
-->

<additional xmlns:xsi="http://www.w3.org/2001/XMLSchema-instance" xsi:noNamespaceSchemaLocation="http://sumo.dlr.de/xsd/additional_file.xsd">
    <routeProbe id="myRouteProbe" edge="gneE0" freq="3600.00" file="RouteProbeA.xml" begin="0.00"/>
    <calibrator id="calibrator01" edge="gneE0" pos="26.00" freq="120.00" routeProbe="%%$%$$$" output="calibrator01.txt"/>
    <calibrator id="calibrator03" edge="gneE0" pos="26.00" freq="120.00" routeProbe="myRouteProbe" output="calibrator03.txt"/>
</additional>
