<?xml version="1.0" encoding="iso-8859-1"?>
<tazs>
    <taz id="1" edges="beg beg2left middle"/>
    <taz id="2" edges="end rend"/>
</tazs>
