<?xml version="1.0" encoding="UTF-8"?>

<!-- generated on Mon Feb 17 15:31:09 2020 by Eclipse SUMO netconvert Version v1_5_0+0130-ceb0a01
This data file and the accompanying materials
are made available under the terms of the Eclipse Public License v2.0
which accompanies this distribution, and is available at
http://www.eclipse.org/legal/epl-v20.html
SPDX-License-Identifier: EPL-2.0
<configuration xmlns:xsi="http://www.w3.org/2001/XMLSchema-instance" xsi:noNamespaceSchemaLocation="http://sumo.dlr.de/xsd/netconvertConfiguration.xsd">

    <input>
        <node-files value="input_plain.nod.xml"/>
        <edge-files value="input_plain.edg.xml"/>
    </input>

    <output>
        <write-license value="true"/>
        <output-file value="net.net.xml"/>
    </output>

    <junctions>
        <no-internal-links value="true"/>
        <no-turnarounds.fringe value="true"/>
    </junctions>

    <report>
        <xml-validation value="never"/>
        <aggregate-warnings value="5"/>
    </report>

</configuration>
-->

<net version="1.6" junctionCornerDetail="5" limitTurnSpeed="5.50" xmlns:xsi="http://www.w3.org/2001/XMLSchema-instance" xsi:noNamespaceSchemaLocation="http://sumo.dlr.de/xsd/net_file.xsd">

    <location netOffset="0.00,0.00" convBoundary="0.00,0.00,300.00,300.00" origBoundary="0.00,0.00,300.00,300.00" projParameter="!"/>

    <edge id="A0A1" from="A0" to="A1" priority="-1">
        <lane id="A0A1_0" index="0" speed="13.89" length="100.00" shape="101.60,107.20 101.60,189.60"/>
    </edge>
    <edge id="A0B0" from="A0" to="B0" priority="-1">
        <lane id="A0B0_0" index="0" speed="13.89" length="100.00" shape="110.40,98.40 200.00,98.40"/>
    </edge>
    <edge id="A0bottom0" from="A0" to="bottom0" priority="-1">
        <lane id="A0bottom0_0" index="0" speed="13.89" length="100.00" shape="95.20,92.80 95.20,0.00"/>
        <lane id="A0bottom0_1" index="1" speed="13.89" length="100.00" shape="98.40,92.80 98.40,0.00"/>
    </edge>
    <edge id="A0left0" from="A0" to="left0" priority="-1">
        <lane id="A0left0_0" index="0" speed="13.89" length="100.00" shape="89.60,101.60 0.00,101.60"/>
    </edge>
    <edge id="A1A0" from="A1" to="A0" priority="-1">
        <lane id="A1A0_0" index="0" speed="13.89" length="100.00" shape="98.40,189.60 98.40,107.20"/>
    </edge>
    <edge id="A1B1" from="A1" to="B1" priority="-1">
        <lane id="A1B1_0" index="0" speed="13.89" length="100.00" shape="107.20,198.40 192.80,198.40"/>
    </edge>
    <edge id="A1left1" from="A1" to="left1" priority="-1">
        <lane id="A1left1_0" index="0" speed="13.89" length="100.00" shape="92.80,204.80 0.00,204.80"/>
        <lane id="A1left1_1" index="1" speed="13.89" length="100.00" shape="92.80,201.60 0.00,201.60"/>
    </edge>
    <edge id="A1top0" from="A1" to="top0" priority="-1">
        <lane id="A1top0_0" index="0" speed="13.89" length="100.00" shape="101.60,210.40 101.60,300.00"/>
    </edge>
    <edge id="B0A0" from="B0" to="A0" priority="-1">
        <lane id="B0A0_0" index="0" speed="13.89" length="100.00" shape="200.00,101.60 110.40,101.60"/>
    </edge>
    <edge id="B0right0" from="B0" to="right0" priority="-1">
        <lane id="B0right0_0" index="0" speed="13.89" length="100.00" shape="200.00,98.40 300.00,98.40"/>
    </edge>
    <edge id="B1A1" from="B1" to="A1" priority="-1">
        <lane id="B1A1_0" index="0" speed="13.89" length="100.00" shape="192.80,204.80 107.20,204.80"/>
        <lane id="B1A1_1" index="1" speed="13.89" length="100.00" shape="192.80,201.60 107.20,201.60"/>
    </edge>
    <edge id="B1right1" from="B1" to="right1" priority="-1">
        <lane id="B1right1_0" index="0" speed="13.89" length="100.00" shape="207.20,195.20 300.00,195.20"/>
        <lane id="B1right1_1" index="1" speed="13.89" length="100.00" shape="207.20,198.40 300.00,198.40"/>
    </edge>
    <edge id="B1top1" from="B1" to="top1" priority="-1">
        <lane id="B1top1_0" index="0" speed="13.89" length="100.00" shape="201.60,210.40 201.60,300.00"/>
    </edge>
    <edge id="bottom0A0" from="bottom0" to="A0" priority="-1">
        <lane id="bottom0A0_0" index="0" speed="13.89" length="100.00" shape="104.80,0.00 104.80,92.80"/>
        <lane id="bottom0A0_1" index="1" speed="13.89" length="100.00" shape="101.60,0.00 101.60,92.80"/>
    </edge>
    <edge id="left0A0" from="left0" to="A0" priority="-1">
        <lane id="left0A0_0" index="0" speed="13.89" length="100.00" shape="0.00,98.40 89.60,98.40"/>
    </edge>
    <edge id="left1A1" from="left1" to="A1" priority="-1">
        <lane id="left1A1_0" index="0" speed="13.89" length="100.00" shape="0.00,195.20 92.80,195.20"/>
        <lane id="left1A1_1" index="1" speed="13.89" length="100.00" shape="0.00,198.40 92.80,198.40"/>
    </edge>
    <edge id="right0B0" from="right0" to="B0" priority="-1">
        <lane id="right0B0_0" index="0" speed="13.89" length="100.00" shape="300.00,101.60 200.00,101.60"/>
    </edge>
    <edge id="right1B1" from="right1" to="B1" priority="-1">
        <lane id="right1B1_0" index="0" speed="13.89" length="100.00" shape="300.00,204.80 207.20,204.80"/>
        <lane id="right1B1_1" index="1" speed="13.89" length="100.00" shape="300.00,201.60 207.20,201.60"/>
    </edge>
    <edge id="top0A1" from="top0" to="A1" priority="-1">
        <lane id="top0A1_0" index="0" speed="13.89" length="100.00" shape="98.40,300.00 98.40,210.40"/>
    </edge>
    <edge id="top1B1" from="top1" to="B1" priority="-1">
        <lane id="top1B1_0" index="0" speed="13.89" length="100.00" shape="198.40,300.00 198.40,210.40"/>
    </edge>

    <tlLogic id="A1" type="static" programID="0" offset="0">
        <phase duration="38" state="rrrrGGGggrrrrGGgg"/>
        <phase duration="3"  state="rrrryyyggrrrryygg"/>
        <phase duration="6"  state="rrrrrrrGGrrrrrrGG"/>
        <phase duration="3"  state="rrrrrrryyrrrrrryy"/>
        <phase duration="37" state="GGggrrrrrGGggrrrr"/>
        <phase duration="3"  state="yyyyrrrrryyyyrrrr"/>
    </tlLogic>
    <tlLogic id="B1" type="static" programID="0" offset="0">
        <phase duration="42" state="rrrGGGgGgg"/>
        <phase duration="3"  state="rrryyyyyyy"/>
        <phase duration="42" state="GGgGrrrrrr"/>
        <phase duration="3"  state="yyyyrrrrrr"/>
    </tlLogic>

    <junction id="A0" type="priority" x="100.00" y="100.00" incLanes="A1A0_0 B0A0_0 bottom0A0_0 bottom0A0_1 left0A0_0" intLanes="" shape="96.80,107.20 103.20,107.20 104.00,104.98 105.00,104.20 106.40,103.64 108.20,103.31 110.40,103.20 110.40,96.80 108.18,96.36 107.40,95.80 106.84,95.02 106.51,94.02 106.40,92.80 93.60,92.80 93.16,95.02 92.60,95.80 91.82,96.36 90.82,96.69 89.60,96.80 89.60,103.20 91.80,103.31 93.60,103.64 95.00,104.20 96.00,104.98 96.60,105.98">
        <request index="0"  response="0000000000000000" foes="1000010000100000"/>
        <request index="1"  response="0000000000000000" foes="0110110001100000"/>
        <request index="2"  response="0000001100000000" foes="0110001111100000"/>
        <request index="3"  response="0100001000010000" foes="0100001000010000"/>
        <request index="4"  response="0000001000000000" foes="0100001000001000"/>
        <request index="5"  response="0000011000000111" foes="1100011000000111"/>
        <request index="6"  response="0010011000000110" foes="0010111000000110"/>
        <request index="7"  response="0010000100000100" foes="0010000100000100"/>
        <request index="8"  response="0000000000000000" foes="0010000010000100"/>
        <request index="9"  response="0000000000000000" foes="0110000001111100"/>
        <request index="10" response="0000000000000011" foes="1110000001100011"/>
        <request index="11" response="0000000001000010" foes="0000000001000010"/>
        <request index="12" response="0000000000000000" foes="0000000000000000"/>
        <request index="13" response="0000011100000110" foes="0000011111000110"/>
        <request index="14" response="0000011000110110" foes="0000011000111110"/>
        <request index="15" response="0000010000100001" foes="0000010000100001"/>
    </junction>
    <junction id="A1" type="traffic_light" x="100.00" y="200.00" incLanes="top0A1_0 B1A1_0 B1A1_1 A0A1_0 left1A1_0 left1A1_1" intLanes="" shape="96.80,210.40 103.20,210.40 103.64,208.18 104.20,207.40 104.98,206.84 105.98,206.51 107.20,206.40 107.20,196.80 104.98,196.00 104.20,195.00 103.64,193.60 103.31,191.80 103.20,189.60 96.80,189.60 96.36,191.82 95.80,192.60 95.02,193.16 94.02,193.49 92.80,193.60 92.80,206.40 95.02,206.84 95.80,207.40 96.36,208.18 96.69,209.18">
        <request index="0"  response="00000000001100000" foes="00000000001100000"/>
        <request index="1"  response="01110000011100000" foes="01111100011100000"/>
        <request index="2"  response="01100011011100000" foes="01100011111100000"/>
        <request index="3"  response="01000010000010000" foes="01000010000010000"/>
        <request index="4"  response="00000000000000000" foes="01000010000001000"/>
        <request index="5"  response="00000000000000000" foes="11000110000000111"/>
        <request index="6"  response="00000000000000000" foes="11000110000000111"/>
        <request index="7"  response="00110000000000000" foes="00111110000000110"/>
        <request index="8"  response="00100001000000100" foes="00100001000000100"/>
        <request index="9"  response="00100000000000000" foes="00100000100000100"/>
        <request index="10" response="01100000011110000" foes="01100000011111100"/>
        <request index="11" response="01100000011100010" foes="11100000011100010"/>
        <request index="12" response="00010000010000010" foes="00010000010000010"/>
        <request index="13" response="00000000000000000" foes="00001000010000010"/>
        <request index="14" response="00000000000000000" foes="00000111110000110"/>
        <request index="15" response="00000000001110000" foes="00000110001111110"/>
        <request index="16" response="00000100001100000" foes="00000100001100000"/>
    </junction>
    <junction id="B0" type="priority" x="200.00" y="100.00" incLanes="right0B0_0 A0B0_0" intLanes="" shape="200.00,103.20 200.00,96.80 200.00,103.20">
        <request index="0" response="00" foes="00"/>
        <request index="1" response="00" foes="00"/>
    </junction>
    <junction id="B1" type="traffic_light" x="200.00" y="200.00" incLanes="top1B1_0 right1B1_0 right1B1_1 A1B1_0" intLanes="" shape="196.80,210.40 203.20,210.40 203.64,208.18 204.20,207.40 204.98,206.84 205.98,206.51 207.20,206.40 207.20,193.60 204.08,193.84 201.83,194.43 198.17,195.97 195.92,196.56 192.80,196.80 192.80,206.40 195.02,206.84 195.80,207.40 196.36,208.18 196.69,209.18">
        <request index="0" response="0000110000" foes="0000110000"/>
        <request index="1" response="0100110000" foes="0101110000"/>
        <request index="2" response="0100001000" foes="0100001000"/>
        <request index="3" response="0000000000" foes="0100000100"/>
        <request index="4" response="0000000000" foes="1100000011"/>
        <request index="5" response="0000000000" foes="1100000011"/>
        <request index="6" response="0000000010" foes="0000000010"/>
        <request index="7" response="0000000000" foes="0000000000"/>
        <request index="8" response="0000111000" foes="0000111110"/>
        <request index="9" response="0000110000" foes="0000110000"/>
    </junction>
    <junction id="bottom0" type="dead_end" x="100.00" y="0.00" incLanes="A0bottom0_0 A0bottom0_1" intLanes="" shape="100.00,0.00 93.60,0.00 100.00,0.00" fringe="outer"/>
    <junction id="left0" type="dead_end" x="0.00" y="100.00" incLanes="A0left0_0" intLanes="" shape="0.00,100.00 0.00,103.20 0.00,100.00" fringe="outer"/>
    <junction id="left1" type="dead_end" x="0.00" y="200.00" incLanes="A1left1_0 A1left1_1" intLanes="" shape="0.00,200.00 0.00,206.40 0.00,200.00" fringe="outer"/>
    <junction id="right0" type="dead_end" x="300.00" y="100.00" incLanes="B0right0_0" intLanes="" shape="300.00,100.00 300.00,96.80 300.00,100.00" fringe="outer"/>
    <junction id="right1" type="dead_end" x="300.00" y="200.00" incLanes="B1right1_0 B1right1_1" intLanes="" shape="300.00,200.00 300.00,193.60 300.00,200.00" fringe="outer"/>
    <junction id="top0" type="dead_end" x="100.00" y="300.00" incLanes="A1top0_0" intLanes="" shape="100.00,300.00 103.20,300.00 100.00,300.00" fringe="outer"/>
    <junction id="top1" type="dead_end" x="200.00" y="300.00" incLanes="B1top1_0" intLanes="" shape="200.00,300.00 203.20,300.00 200.00,300.00" fringe="outer"/>

    <connection from="A0A1" to="A1B1" fromLane="0" toLane="0" tl="A1" linkIndex="9" dir="r" state="o"/>
    <connection from="A0A1" to="A1top0" fromLane="0" toLane="0" tl="A1" linkIndex="10" dir="s" state="o"/>
    <connection from="A0A1" to="A1left1" fromLane="0" toLane="1" tl="A1" linkIndex="11" dir="l" state="o"/>
    <connection from="A0A1" to="A1A0" fromLane="0" toLane="0" tl="A1" linkIndex="12" dir="t" state="o"/>
    <connection from="A0B0" to="B0right0" fromLane="0" toLane="0" dir="s" state="M"/>
    <connection from="A1A0" to="A0left0" fromLane="0" toLane="0" dir="r" state="M"/>
    <connection from="A1A0" to="A0bottom0" fromLane="0" toLane="1" dir="s" state="M"/>
    <connection from="A1A0" to="A0B0" fromLane="0" toLane="0" dir="l" state="m"/>
    <connection from="A1A0" to="A0A1" fromLane="0" toLane="0" dir="t" state="m"/>
    <connection from="A1B1" to="B1right1" fromLane="0" toLane="0" tl="B1" linkIndex="7" dir="s" state="O"/>
    <connection from="A1B1" to="B1top1" fromLane="0" toLane="0" tl="B1" linkIndex="8" dir="l" state="o"/>
    <connection from="A1B1" to="B1A1" fromLane="0" toLane="1" tl="B1" linkIndex="9" dir="t" state="o"/>
    <connection from="B0A0" to="A0A1" fromLane="0" toLane="0" dir="r" state="m"/>
    <connection from="B0A0" to="A0left0" fromLane="0" toLane="0" dir="s" state="m"/>
    <connection from="B0A0" to="A0bottom0" fromLane="0" toLane="1" dir="l" state="m"/>
    <connection from="B0A0" to="A0B0" fromLane="0" toLane="0" dir="t" state="m"/>
    <connection from="B1A1" to="A1top0" fromLane="0" toLane="0" tl="A1" linkIndex="4" dir="r" state="O"/>
    <connection from="B1A1" to="A1left1" fromLane="0" toLane="0" tl="A1" linkIndex="5" dir="s" state="O"/>
    <connection from="B1A1" to="A1left1" fromLane="1" toLane="1" tl="A1" linkIndex="6" dir="s" state="O"/>
    <connection from="B1A1" to="A1A0" fromLane="1" toLane="0" tl="A1" linkIndex="7" dir="l" state="o"/>
    <connection from="B1A1" to="A1B1" fromLane="1" toLane="0" tl="A1" linkIndex="8" dir="t" state="o"/>
    <connection from="bottom0A0" to="A0B0" fromLane="0" toLane="0" dir="r" state="M"/>
    <connection from="bottom0A0" to="A0A1" fromLane="0" toLane="0" dir="s" state="M"/>
    <connection from="bottom0A0" to="A0left0" fromLane="1" toLane="0" dir="l" state="m"/>
    <connection from="bottom0A0" to="A0bottom0" fromLane="1" toLane="1" dir="t" state="m"/>
    <connection from="left0A0" to="A0bottom0" fromLane="0" toLane="0" dir="r" state="M"/>
    <connection from="left0A0" to="A0B0" fromLane="0" toLane="0" dir="s" state="m"/>
    <connection from="left0A0" to="A0A1" fromLane="0" toLane="0" dir="l" state="m"/>
    <connection from="left0A0" to="A0left0" fromLane="0" toLane="0" dir="t" state="m"/>
    <connection from="left1A1" to="A1A0" fromLane="0" toLane="0" tl="A1" linkIndex="13" dir="r" state="O"/>
    <connection from="left1A1" to="A1B1" fromLane="0" toLane="0" tl="A1" linkIndex="14" dir="s" state="O"/>
    <connection from="left1A1" to="A1top0" fromLane="1" toLane="0" tl="A1" linkIndex="15" dir="l" state="o"/>
    <connection from="left1A1" to="A1left1" fromLane="1" toLane="1" tl="A1" linkIndex="16" dir="t" state="o"/>
    <connection from="right0B0" to="B0A0" fromLane="0" toLane="0" dir="s" state="M"/>
    <connection from="right1B1" to="B1top1" fromLane="0" toLane="0" tl="B1" linkIndex="3" dir="r" state="O"/>
    <connection from="right1B1" to="B1A1" fromLane="0" toLane="0" tl="B1" linkIndex="4" dir="s" state="O"/>
    <connection from="right1B1" to="B1A1" fromLane="1" toLane="1" tl="B1" linkIndex="5" dir="s" state="O"/>
    <connection from="right1B1" to="B1right1" fromLane="1" toLane="1" tl="B1" linkIndex="6" dir="t" state="o"/>
    <connection from="top0A1" to="A1left1" fromLane="0" toLane="0" tl="A1" linkIndex="0" dir="r" state="o"/>
    <connection from="top0A1" to="A1A0" fromLane="0" toLane="0" tl="A1" linkIndex="1" dir="s" state="o"/>
    <connection from="top0A1" to="A1B1" fromLane="0" toLane="0" tl="A1" linkIndex="2" dir="l" state="o"/>
    <connection from="top0A1" to="A1top0" fromLane="0" toLane="0" tl="A1" linkIndex="3" dir="t" state="o"/>
    <connection from="top1B1" to="B1A1" fromLane="0" toLane="0" tl="B1" linkIndex="0" dir="r" state="o"/>
    <connection from="top1B1" to="B1right1" fromLane="0" toLane="1" tl="B1" linkIndex="1" dir="l" state="o"/>
    <connection from="top1B1" to="B1top1" fromLane="0" toLane="0" tl="B1" linkIndex="2" dir="t" state="o"/>

</net>
