<?xml version="1.0" encoding="UTF-8"?>

<!-- generated on 2022-01-07 10:50:36 by Eclipse SUMO sumo Version v1_11_0+0905-4e2ad27
This data file and the accompanying materials
are made available under the terms of the Eclipse Public License v2.0
which accompanies this distribution, and is available at
http://www.eclipse.org/legal/epl-v20.html
SPDX-License-Identifier: EPL-2.0
<configuration xmlns:xsi="http://www.w3.org/2001/XMLSchema-instance" xsi:noNamespaceSchemaLocation="http://sumo.dlr.de/xsd/sumoConfiguration.xsd">

    <input>
        <net-file value="net.net.xml"/>
        <route-files value="input_routes.rou.xml"/>
        <additional-files value="input_additional.add.xml,input_additional2.add.xml"/>
    </input>

    <output>
        <write-license value="true"/>
    </output>

    <processing>
        <max-depart-delay value="60"/>
        <default.speeddev value="0"/>
    </processing>

    <report>
        <verbose value="true"/>
        <xml-validation value="never"/>
        <xml-validation.routes value="never"/>
        <duration-log.statistics value="true"/>
        <no-step-log value="true"/>
    </report>

</configuration>
-->

<tlsStates xmlns:xsi="http://www.w3.org/2001/XMLSchema-instance" xsi:noNamespaceSchemaLocation="http://sumo.dlr.de/xsd/tlsstates_file.xsd">
    <tlsState time="0.00" id="C0" programID="custom" phase="0" state="GGggrrrrGGggrrrr"/>
    <tlsState time="5.00" id="C0" programID="custom" phase="1" state="yyyyrrrryyyyrrrr"/>
    <tlsState time="8.00" id="C0" programID="custom" phase="2" state="rrrrGGggrrrrGGgg"/>
    <tlsState time="70.00" id="C0" programID="custom" phase="3" state="rrrryyyyrrrryyyy"/>
    <tlsState time="73.00" id="C0" programID="custom" phase="0" state="GGggrrrrGGggrrrr"/>
    <tlsState time="78.00" id="C0" programID="custom" phase="1" state="yyyyrrrryyyyrrrr"/>
    <tlsState time="81.00" id="C0" programID="custom" phase="2" state="rrrrGGggrrrrGGgg"/>
    <tlsState time="130.00" id="C0" programID="custom" phase="3" state="rrrryyyyrrrryyyy"/>
    <tlsState time="133.00" id="C0" programID="custom" phase="0" state="GGggrrrrGGggrrrr"/>
    <tlsState time="138.00" id="C0" programID="custom" phase="1" state="yyyyrrrryyyyrrrr"/>
    <tlsState time="141.00" id="C0" programID="custom" phase="2" state="rrrrGGggrrrrGGgg"/>
    <tlsState time="190.00" id="C0" programID="custom" phase="3" state="rrrryyyyrrrryyyy"/>
    <tlsState time="193.00" id="C0" programID="custom" phase="0" state="GGggrrrrGGggrrrr"/>
    <tlsState time="198.00" id="C0" programID="custom" phase="1" state="yyyyrrrryyyyrrrr"/>
    <tlsState time="201.00" id="C0" programID="custom" phase="2" state="rrrrGGggrrrrGGgg"/>
    <tlsState time="250.00" id="C0" programID="custom" phase="3" state="rrrryyyyrrrryyyy"/>
    <tlsState time="253.00" id="C0" programID="custom" phase="0" state="GGggrrrrGGggrrrr"/>
    <tlsState time="258.00" id="C0" programID="custom" phase="1" state="yyyyrrrryyyyrrrr"/>
    <tlsState time="261.00" id="C0" programID="custom" phase="2" state="rrrrGGggrrrrGGgg"/>
    <tlsState time="310.00" id="C0" programID="custom" phase="3" state="rrrryyyyrrrryyyy"/>
    <tlsState time="313.00" id="C0" programID="custom" phase="0" state="GGggrrrrGGggrrrr"/>
    <tlsState time="318.00" id="C0" programID="custom" phase="1" state="yyyyrrrryyyyrrrr"/>
    <tlsState time="321.00" id="C0" programID="custom" phase="2" state="rrrrGGggrrrrGGgg"/>
    <tlsState time="370.00" id="C0" programID="custom" phase="3" state="rrrryyyyrrrryyyy"/>
    <tlsState time="373.00" id="C0" programID="custom" phase="0" state="GGggrrrrGGggrrrr"/>
    <tlsState time="378.00" id="C0" programID="custom" phase="1" state="yyyyrrrryyyyrrrr"/>
    <tlsState time="381.00" id="C0" programID="custom" phase="2" state="rrrrGGggrrrrGGgg"/>
    <tlsState time="430.00" id="C0" programID="custom" phase="3" state="rrrryyyyrrrryyyy"/>
    <tlsState time="433.00" id="C0" programID="custom" phase="0" state="GGggrrrrGGggrrrr"/>
    <tlsState time="438.00" id="C0" programID="custom" phase="1" state="yyyyrrrryyyyrrrr"/>
    <tlsState time="441.00" id="C0" programID="custom" phase="2" state="rrrrGGggrrrrGGgg"/>
    <tlsState time="490.00" id="C0" programID="custom" phase="3" state="rrrryyyyrrrryyyy"/>
    <tlsState time="493.00" id="C0" programID="custom" phase="0" state="GGggrrrrGGggrrrr"/>
    <tlsState time="498.00" id="C0" programID="custom" phase="1" state="yyyyrrrryyyyrrrr"/>
    <tlsState time="501.00" id="C0" programID="custom" phase="2" state="rrrrGGggrrrrGGgg"/>
    <tlsState time="550.00" id="C0" programID="custom" phase="3" state="rrrryyyyrrrryyyy"/>
    <tlsState time="553.00" id="C0" programID="custom" phase="0" state="GGggrrrrGGggrrrr"/>
    <tlsState time="558.00" id="C0" programID="custom" phase="1" state="yyyyrrrryyyyrrrr"/>
    <tlsState time="561.00" id="C0" programID="custom" phase="2" state="rrrrGGggrrrrGGgg"/>
    <tlsState time="610.00" id="C0" programID="custom" phase="3" state="rrrryyyyrrrryyyy"/>
    <tlsState time="613.00" id="C0" programID="custom" phase="0" state="GGggrrrrGGggrrrr"/>
    <tlsState time="618.00" id="C0" programID="custom" phase="1" state="yyyyrrrryyyyrrrr"/>
    <tlsState time="621.00" id="C0" programID="custom" phase="2" state="rrrrGGggrrrrGGgg"/>
    <tlsState time="670.00" id="C0" programID="custom" phase="3" state="rrrryyyyrrrryyyy"/>
    <tlsState time="673.00" id="C0" programID="custom" phase="0" state="GGggrrrrGGggrrrr"/>
    <tlsState time="678.00" id="C0" programID="custom" phase="1" state="yyyyrrrryyyyrrrr"/>
    <tlsState time="681.00" id="C0" programID="custom" phase="2" state="rrrrGGggrrrrGGgg"/>
    <tlsState time="730.00" id="C0" programID="custom" phase="3" state="rrrryyyyrrrryyyy"/>
    <tlsState time="733.00" id="C0" programID="custom" phase="0" state="GGggrrrrGGggrrrr"/>
    <tlsState time="738.00" id="C0" programID="custom" phase="1" state="yyyyrrrryyyyrrrr"/>
    <tlsState time="741.00" id="C0" programID="custom" phase="2" state="rrrrGGggrrrrGGgg"/>
    <tlsState time="790.00" id="C0" programID="custom" phase="3" state="rrrryyyyrrrryyyy"/>
    <tlsState time="793.00" id="C0" programID="custom" phase="0" state="GGggrrrrGGggrrrr"/>
    <tlsState time="798.00" id="C0" programID="custom" phase="1" state="yyyyrrrryyyyrrrr"/>
    <tlsState time="801.00" id="C0" programID="custom" phase="2" state="rrrrGGggrrrrGGgg"/>
    <tlsState time="850.00" id="C0" programID="custom" phase="3" state="rrrryyyyrrrryyyy"/>
    <tlsState time="853.00" id="C0" programID="custom" phase="0" state="GGggrrrrGGggrrrr"/>
    <tlsState time="858.00" id="C0" programID="custom" phase="1" state="yyyyrrrryyyyrrrr"/>
    <tlsState time="861.00" id="C0" programID="custom" phase="2" state="rrrrGGggrrrrGGgg"/>
    <tlsState time="910.00" id="C0" programID="custom" phase="3" state="rrrryyyyrrrryyyy"/>
    <tlsState time="913.00" id="C0" programID="custom" phase="0" state="GGggrrrrGGggrrrr"/>
    <tlsState time="918.00" id="C0" programID="custom" phase="1" state="yyyyrrrryyyyrrrr"/>
    <tlsState time="921.00" id="C0" programID="custom" phase="2" state="rrrrGGggrrrrGGgg"/>
    <tlsState time="970.00" id="C0" programID="custom" phase="3" state="rrrryyyyrrrryyyy"/>
    <tlsState time="973.00" id="C0" programID="custom" phase="0" state="GGggrrrrGGggrrrr"/>
    <tlsState time="978.00" id="C0" programID="custom" phase="1" state="yyyyrrrryyyyrrrr"/>
    <tlsState time="981.00" id="C0" programID="custom" phase="2" state="rrrrGGggrrrrGGgg"/>
    <tlsState time="1030.00" id="C0" programID="custom" phase="3" state="rrrryyyyrrrryyyy"/>
    <tlsState time="1033.00" id="C0" programID="custom" phase="0" state="GGggrrrrGGggrrrr"/>
    <tlsState time="1038.00" id="C0" programID="custom" phase="1" state="yyyyrrrryyyyrrrr"/>
    <tlsState time="1041.00" id="C0" programID="custom" phase="2" state="rrrrGGggrrrrGGgg"/>
    <tlsState time="1090.00" id="C0" programID="custom" phase="3" state="rrrryyyyrrrryyyy"/>
    <tlsState time="1093.00" id="C0" programID="custom" phase="0" state="GGggrrrrGGggrrrr"/>
    <tlsState time="1098.00" id="C0" programID="custom" phase="1" state="yyyyrrrryyyyrrrr"/>
    <tlsState time="1101.00" id="C0" programID="custom" phase="2" state="rrrrGGggrrrrGGgg"/>
    <tlsState time="1150.00" id="C0" programID="custom" phase="3" state="rrrryyyyrrrryyyy"/>
    <tlsState time="1153.00" id="C0" programID="custom" phase="0" state="GGggrrrrGGggrrrr"/>
    <tlsState time="1158.00" id="C0" programID="custom" phase="1" state="yyyyrrrryyyyrrrr"/>
    <tlsState time="1161.00" id="C0" programID="custom" phase="2" state="rrrrGGggrrrrGGgg"/>
    <tlsState time="1210.00" id="C0" programID="custom" phase="3" state="rrrryyyyrrrryyyy"/>
    <tlsState time="1213.00" id="C0" programID="custom" phase="0" state="GGggrrrrGGggrrrr"/>
    <tlsState time="1218.00" id="C0" programID="custom" phase="1" state="yyyyrrrryyyyrrrr"/>
    <tlsState time="1221.00" id="C0" programID="custom" phase="2" state="rrrrGGggrrrrGGgg"/>
    <tlsState time="1270.00" id="C0" programID="custom" phase="3" state="rrrryyyyrrrryyyy"/>
    <tlsState time="1273.00" id="C0" programID="custom" phase="0" state="GGggrrrrGGggrrrr"/>
    <tlsState time="1278.00" id="C0" programID="custom" phase="1" state="yyyyrrrryyyyrrrr"/>
    <tlsState time="1281.00" id="C0" programID="custom" phase="2" state="rrrrGGggrrrrGGgg"/>
    <tlsState time="1330.00" id="C0" programID="custom" phase="3" state="rrrryyyyrrrryyyy"/>
    <tlsState time="1333.00" id="C0" programID="custom" phase="0" state="GGggrrrrGGggrrrr"/>
    <tlsState time="1338.00" id="C0" programID="custom" phase="1" state="yyyyrrrryyyyrrrr"/>
    <tlsState time="1341.00" id="C0" programID="custom" phase="2" state="rrrrGGggrrrrGGgg"/>
    <tlsState time="1390.00" id="C0" programID="custom" phase="3" state="rrrryyyyrrrryyyy"/>
    <tlsState time="1393.00" id="C0" programID="custom" phase="0" state="GGggrrrrGGggrrrr"/>
    <tlsState time="1398.00" id="C0" programID="custom" phase="1" state="yyyyrrrryyyyrrrr"/>
    <tlsState time="1401.00" id="C0" programID="custom" phase="2" state="rrrrGGggrrrrGGgg"/>
    <tlsState time="1450.00" id="C0" programID="custom" phase="3" state="rrrryyyyrrrryyyy"/>
    <tlsState time="1453.00" id="C0" programID="custom" phase="0" state="GGggrrrrGGggrrrr"/>
    <tlsState time="1458.00" id="C0" programID="custom" phase="1" state="yyyyrrrryyyyrrrr"/>
    <tlsState time="1461.00" id="C0" programID="custom" phase="2" state="rrrrGGggrrrrGGgg"/>
    <tlsState time="1510.00" id="C0" programID="custom" phase="3" state="rrrryyyyrrrryyyy"/>
    <tlsState time="1513.00" id="C0" programID="custom" phase="0" state="GGggrrrrGGggrrrr"/>
    <tlsState time="1518.00" id="C0" programID="custom" phase="1" state="yyyyrrrryyyyrrrr"/>
    <tlsState time="1521.00" id="C0" programID="custom" phase="2" state="rrrrGGggrrrrGGgg"/>
    <tlsState time="1570.00" id="C0" programID="custom" phase="3" state="rrrryyyyrrrryyyy"/>
    <tlsState time="1573.00" id="C0" programID="custom" phase="0" state="GGggrrrrGGggrrrr"/>
    <tlsState time="1578.00" id="C0" programID="custom" phase="1" state="yyyyrrrryyyyrrrr"/>
    <tlsState time="1581.00" id="C0" programID="custom" phase="2" state="rrrrGGggrrrrGGgg"/>
    <tlsState time="1630.00" id="C0" programID="custom" phase="3" state="rrrryyyyrrrryyyy"/>
    <tlsState time="1633.00" id="C0" programID="custom" phase="0" state="GGggrrrrGGggrrrr"/>
    <tlsState time="1638.00" id="C0" programID="custom" phase="1" state="yyyyrrrryyyyrrrr"/>
    <tlsState time="1641.00" id="C0" programID="custom" phase="2" state="rrrrGGggrrrrGGgg"/>
    <tlsState time="1690.00" id="C0" programID="custom" phase="3" state="rrrryyyyrrrryyyy"/>
    <tlsState time="1693.00" id="C0" programID="custom" phase="0" state="GGggrrrrGGggrrrr"/>
    <tlsState time="1698.00" id="C0" programID="custom" phase="1" state="yyyyrrrryyyyrrrr"/>
    <tlsState time="1701.00" id="C0" programID="custom" phase="2" state="rrrrGGggrrrrGGgg"/>
    <tlsState time="1750.00" id="C0" programID="custom" phase="3" state="rrrryyyyrrrryyyy"/>
    <tlsState time="1753.00" id="C0" programID="custom" phase="0" state="GGggrrrrGGggrrrr"/>
    <tlsState time="1758.00" id="C0" programID="custom" phase="1" state="yyyyrrrryyyyrrrr"/>
    <tlsState time="1761.00" id="C0" programID="custom" phase="2" state="rrrrGGggrrrrGGgg"/>
    <tlsState time="1810.00" id="C0" programID="custom" phase="3" state="rrrryyyyrrrryyyy"/>
    <tlsState time="1813.00" id="C0" programID="custom" phase="0" state="GGggrrrrGGggrrrr"/>
    <tlsState time="1818.00" id="C0" programID="custom" phase="1" state="yyyyrrrryyyyrrrr"/>
    <tlsState time="1821.00" id="C0" programID="custom" phase="2" state="rrrrGGggrrrrGGgg"/>
    <tlsState time="1870.00" id="C0" programID="custom" phase="3" state="rrrryyyyrrrryyyy"/>
    <tlsState time="1873.00" id="C0" programID="custom" phase="0" state="GGggrrrrGGggrrrr"/>
    <tlsState time="1878.00" id="C0" programID="custom" phase="1" state="yyyyrrrryyyyrrrr"/>
    <tlsState time="1881.00" id="C0" programID="custom" phase="2" state="rrrrGGggrrrrGGgg"/>
    <tlsState time="1930.00" id="C0" programID="custom" phase="3" state="rrrryyyyrrrryyyy"/>
    <tlsState time="1933.00" id="C0" programID="custom" phase="0" state="GGggrrrrGGggrrrr"/>
    <tlsState time="1938.00" id="C0" programID="custom" phase="1" state="yyyyrrrryyyyrrrr"/>
    <tlsState time="1941.00" id="C0" programID="custom" phase="2" state="rrrrGGggrrrrGGgg"/>
    <tlsState time="1990.00" id="C0" programID="custom" phase="3" state="rrrryyyyrrrryyyy"/>
    <tlsState time="1993.00" id="C0" programID="custom" phase="0" state="GGggrrrrGGggrrrr"/>
    <tlsState time="1998.00" id="C0" programID="custom" phase="1" state="yyyyrrrryyyyrrrr"/>
    <tlsState time="2001.00" id="C0" programID="custom" phase="2" state="rrrrGGggrrrrGGgg"/>
    <tlsState time="2050.00" id="C0" programID="custom" phase="3" state="rrrryyyyrrrryyyy"/>
    <tlsState time="2053.00" id="C0" programID="custom" phase="0" state="GGggrrrrGGggrrrr"/>
    <tlsState time="2058.00" id="C0" programID="custom" phase="1" state="yyyyrrrryyyyrrrr"/>
    <tlsState time="2061.00" id="C0" programID="custom" phase="2" state="rrrrGGggrrrrGGgg"/>
    <tlsState time="2110.00" id="C0" programID="custom" phase="3" state="rrrryyyyrrrryyyy"/>
    <tlsState time="2113.00" id="C0" programID="custom" phase="0" state="GGggrrrrGGggrrrr"/>
    <tlsState time="2118.00" id="C0" programID="custom" phase="1" state="yyyyrrrryyyyrrrr"/>
    <tlsState time="2121.00" id="C0" programID="custom" phase="2" state="rrrrGGggrrrrGGgg"/>
    <tlsState time="2170.00" id="C0" programID="custom" phase="3" state="rrrryyyyrrrryyyy"/>
    <tlsState time="2173.00" id="C0" programID="custom" phase="0" state="GGggrrrrGGggrrrr"/>
    <tlsState time="2178.00" id="C0" programID="custom" phase="1" state="yyyyrrrryyyyrrrr"/>
    <tlsState time="2181.00" id="C0" programID="custom" phase="2" state="rrrrGGggrrrrGGgg"/>
    <tlsState time="2230.00" id="C0" programID="custom" phase="3" state="rrrryyyyrrrryyyy"/>
    <tlsState time="2233.00" id="C0" programID="custom" phase="0" state="GGggrrrrGGggrrrr"/>
    <tlsState time="2238.00" id="C0" programID="custom" phase="1" state="yyyyrrrryyyyrrrr"/>
    <tlsState time="2241.00" id="C0" programID="custom" phase="2" state="rrrrGGggrrrrGGgg"/>
    <tlsState time="2290.00" id="C0" programID="custom" phase="3" state="rrrryyyyrrrryyyy"/>
    <tlsState time="2293.00" id="C0" programID="custom" phase="0" state="GGggrrrrGGggrrrr"/>
    <tlsState time="2298.00" id="C0" programID="custom" phase="1" state="yyyyrrrryyyyrrrr"/>
    <tlsState time="2301.00" id="C0" programID="custom" phase="2" state="rrrrGGggrrrrGGgg"/>
    <tlsState time="2350.00" id="C0" programID="custom" phase="3" state="rrrryyyyrrrryyyy"/>
    <tlsState time="2353.00" id="C0" programID="custom" phase="0" state="GGggrrrrGGggrrrr"/>
    <tlsState time="2358.00" id="C0" programID="custom" phase="1" state="yyyyrrrryyyyrrrr"/>
    <tlsState time="2361.00" id="C0" programID="custom" phase="2" state="rrrrGGggrrrrGGgg"/>
    <tlsState time="2410.00" id="C0" programID="custom" phase="3" state="rrrryyyyrrrryyyy"/>
    <tlsState time="2413.00" id="C0" programID="custom" phase="0" state="GGggrrrrGGggrrrr"/>
    <tlsState time="2418.00" id="C0" programID="custom" phase="1" state="yyyyrrrryyyyrrrr"/>
    <tlsState time="2421.00" id="C0" programID="custom" phase="2" state="rrrrGGggrrrrGGgg"/>
    <tlsState time="2470.00" id="C0" programID="custom" phase="3" state="rrrryyyyrrrryyyy"/>
    <tlsState time="2473.00" id="C0" programID="custom" phase="0" state="GGggrrrrGGggrrrr"/>
    <tlsState time="2478.00" id="C0" programID="custom" phase="1" state="yyyyrrrryyyyrrrr"/>
    <tlsState time="2481.00" id="C0" programID="custom" phase="2" state="rrrrGGggrrrrGGgg"/>
    <tlsState time="2530.00" id="C0" programID="custom" phase="3" state="rrrryyyyrrrryyyy"/>
    <tlsState time="2533.00" id="C0" programID="custom" phase="0" state="GGggrrrrGGggrrrr"/>
    <tlsState time="2538.00" id="C0" programID="custom" phase="1" state="yyyyrrrryyyyrrrr"/>
    <tlsState time="2541.00" id="C0" programID="custom" phase="2" state="rrrrGGggrrrrGGgg"/>
    <tlsState time="2590.00" id="C0" programID="custom" phase="3" state="rrrryyyyrrrryyyy"/>
    <tlsState time="2593.00" id="C0" programID="custom" phase="0" state="GGggrrrrGGggrrrr"/>
    <tlsState time="2598.00" id="C0" programID="custom" phase="1" state="yyyyrrrryyyyrrrr"/>
    <tlsState time="2601.00" id="C0" programID="custom" phase="2" state="rrrrGGggrrrrGGgg"/>
    <tlsState time="2650.00" id="C0" programID="custom" phase="3" state="rrrryyyyrrrryyyy"/>
    <tlsState time="2653.00" id="C0" programID="custom" phase="0" state="GGggrrrrGGggrrrr"/>
    <tlsState time="2658.00" id="C0" programID="custom" phase="1" state="yyyyrrrryyyyrrrr"/>
    <tlsState time="2661.00" id="C0" programID="custom" phase="2" state="rrrrGGggrrrrGGgg"/>
    <tlsState time="2710.00" id="C0" programID="custom" phase="3" state="rrrryyyyrrrryyyy"/>
    <tlsState time="2713.00" id="C0" programID="custom" phase="0" state="GGggrrrrGGggrrrr"/>
    <tlsState time="2718.00" id="C0" programID="custom" phase="1" state="yyyyrrrryyyyrrrr"/>
    <tlsState time="2721.00" id="C0" programID="custom" phase="2" state="rrrrGGggrrrrGGgg"/>
    <tlsState time="2770.00" id="C0" programID="custom" phase="3" state="rrrryyyyrrrryyyy"/>
    <tlsState time="2773.00" id="C0" programID="custom" phase="0" state="GGggrrrrGGggrrrr"/>
    <tlsState time="2778.00" id="C0" programID="custom" phase="1" state="yyyyrrrryyyyrrrr"/>
    <tlsState time="2781.00" id="C0" programID="custom" phase="2" state="rrrrGGggrrrrGGgg"/>
    <tlsState time="2830.00" id="C0" programID="custom" phase="3" state="rrrryyyyrrrryyyy"/>
    <tlsState time="2833.00" id="C0" programID="custom" phase="0" state="GGggrrrrGGggrrrr"/>
    <tlsState time="2838.00" id="C0" programID="custom" phase="1" state="yyyyrrrryyyyrrrr"/>
    <tlsState time="2841.00" id="C0" programID="custom" phase="2" state="rrrrGGggrrrrGGgg"/>
    <tlsState time="2890.00" id="C0" programID="custom" phase="3" state="rrrryyyyrrrryyyy"/>
    <tlsState time="2893.00" id="C0" programID="custom" phase="0" state="GGggrrrrGGggrrrr"/>
    <tlsState time="2898.00" id="C0" programID="custom" phase="1" state="yyyyrrrryyyyrrrr"/>
    <tlsState time="2901.00" id="C0" programID="custom" phase="2" state="rrrrGGggrrrrGGgg"/>
    <tlsState time="2950.00" id="C0" programID="custom" phase="3" state="rrrryyyyrrrryyyy"/>
    <tlsState time="2953.00" id="C0" programID="custom" phase="0" state="GGggrrrrGGggrrrr"/>
    <tlsState time="2958.00" id="C0" programID="custom" phase="1" state="yyyyrrrryyyyrrrr"/>
    <tlsState time="2961.00" id="C0" programID="custom" phase="2" state="rrrrGGggrrrrGGgg"/>
    <tlsState time="3010.00" id="C0" programID="custom" phase="3" state="rrrryyyyrrrryyyy"/>
    <tlsState time="3013.00" id="C0" programID="custom" phase="0" state="GGggrrrrGGggrrrr"/>
    <tlsState time="3018.00" id="C0" programID="custom" phase="1" state="yyyyrrrryyyyrrrr"/>
    <tlsState time="3021.00" id="C0" programID="custom" phase="2" state="rrrrGGggrrrrGGgg"/>
    <tlsState time="3070.00" id="C0" programID="custom" phase="3" state="rrrryyyyrrrryyyy"/>
    <tlsState time="3073.00" id="C0" programID="custom" phase="0" state="GGggrrrrGGggrrrr"/>
    <tlsState time="3078.00" id="C0" programID="custom" phase="1" state="yyyyrrrryyyyrrrr"/>
    <tlsState time="3081.00" id="C0" programID="custom" phase="2" state="rrrrGGggrrrrGGgg"/>
    <tlsState time="3130.00" id="C0" programID="custom" phase="3" state="rrrryyyyrrrryyyy"/>
    <tlsState time="3133.00" id="C0" programID="custom" phase="0" state="GGggrrrrGGggrrrr"/>
    <tlsState time="3138.00" id="C0" programID="custom" phase="1" state="yyyyrrrryyyyrrrr"/>
    <tlsState time="3141.00" id="C0" programID="custom" phase="2" state="rrrrGGggrrrrGGgg"/>
    <tlsState time="3190.00" id="C0" programID="custom" phase="3" state="rrrryyyyrrrryyyy"/>
    <tlsState time="3193.00" id="C0" programID="custom" phase="0" state="GGggrrrrGGggrrrr"/>
    <tlsState time="3198.00" id="C0" programID="custom" phase="1" state="yyyyrrrryyyyrrrr"/>
    <tlsState time="3201.00" id="C0" programID="custom" phase="2" state="rrrrGGggrrrrGGgg"/>
    <tlsState time="3250.00" id="C0" programID="custom" phase="3" state="rrrryyyyrrrryyyy"/>
    <tlsState time="3253.00" id="C0" programID="custom" phase="0" state="GGggrrrrGGggrrrr"/>
    <tlsState time="3258.00" id="C0" programID="custom" phase="1" state="yyyyrrrryyyyrrrr"/>
    <tlsState time="3261.00" id="C0" programID="custom" phase="2" state="rrrrGGggrrrrGGgg"/>
    <tlsState time="3310.00" id="C0" programID="custom" phase="3" state="rrrryyyyrrrryyyy"/>
    <tlsState time="3313.00" id="C0" programID="custom" phase="0" state="GGggrrrrGGggrrrr"/>
    <tlsState time="3318.00" id="C0" programID="custom" phase="1" state="yyyyrrrryyyyrrrr"/>
    <tlsState time="3321.00" id="C0" programID="custom" phase="2" state="rrrrGGggrrrrGGgg"/>
    <tlsState time="3370.00" id="C0" programID="custom" phase="3" state="rrrryyyyrrrryyyy"/>
    <tlsState time="3373.00" id="C0" programID="custom" phase="0" state="GGggrrrrGGggrrrr"/>
    <tlsState time="3378.00" id="C0" programID="custom" phase="1" state="yyyyrrrryyyyrrrr"/>
    <tlsState time="3381.00" id="C0" programID="custom" phase="2" state="rrrrGGggrrrrGGgg"/>
    <tlsState time="3430.00" id="C0" programID="custom" phase="3" state="rrrryyyyrrrryyyy"/>
    <tlsState time="3433.00" id="C0" programID="custom" phase="0" state="GGggrrrrGGggrrrr"/>
    <tlsState time="3438.00" id="C0" programID="custom" phase="1" state="yyyyrrrryyyyrrrr"/>
    <tlsState time="3441.00" id="C0" programID="custom" phase="2" state="rrrrGGggrrrrGGgg"/>
    <tlsState time="3490.00" id="C0" programID="custom" phase="3" state="rrrryyyyrrrryyyy"/>
    <tlsState time="3493.00" id="C0" programID="custom" phase="0" state="GGggrrrrGGggrrrr"/>
    <tlsState time="3498.00" id="C0" programID="custom" phase="1" state="yyyyrrrryyyyrrrr"/>
    <tlsState time="3501.00" id="C0" programID="custom" phase="2" state="rrrrGGggrrrrGGgg"/>
    <tlsState time="3550.00" id="C0" programID="custom" phase="3" state="rrrryyyyrrrryyyy"/>
    <tlsState time="3553.00" id="C0" programID="custom" phase="0" state="GGggrrrrGGggrrrr"/>
    <tlsState time="3558.00" id="C0" programID="custom" phase="1" state="yyyyrrrryyyyrrrr"/>
    <tlsState time="3561.00" id="C0" programID="custom" phase="2" state="rrrrGGggrrrrGGgg"/>
    <tlsState time="3610.00" id="C0" programID="custom" phase="3" state="rrrryyyyrrrryyyy"/>
    <tlsState time="3613.00" id="C0" programID="custom" phase="0" state="GGggrrrrGGggrrrr"/>
    <tlsState time="3618.00" id="C0" programID="custom" phase="1" state="yyyyrrrryyyyrrrr"/>
    <tlsState time="3621.00" id="C0" programID="custom" phase="2" state="rrrrGGggrrrrGGgg"/>
    <tlsState time="3670.00" id="C0" programID="custom" phase="3" state="rrrryyyyrrrryyyy"/>
    <tlsState time="3673.00" id="C0" programID="custom" phase="0" state="GGggrrrrGGggrrrr"/>
    <tlsState time="3678.00" id="C0" programID="custom" phase="1" state="yyyyrrrryyyyrrrr"/>
    <tlsState time="3681.00" id="C0" programID="custom" phase="2" state="rrrrGGggrrrrGGgg"/>
</tlsStates>
