<additional>

   <trigger id="emitter" objecttype="emitter" pos="10" objectid="1_0" file="hokkaido_emitter.def.xml"/>

</additional>