<routes>
   <vtype id="SUMO_DEFAULT_TYPE" accel="0.8" decel="4.5" sigma="0.5" length="5" maxspeed="70"/>
   <route id="def" multi_ref="x">1 2 3 4 1 2 3 4 1 2 3 4 1 2 3 4 1 2 3 4 1 2 3 4 1 2 3 4 1 2 3 4 1 2 3 4 1 2 3 4</route>
</routes>
