<?xml version="1.0" encoding="UTF-8"?>

<!-- generated on 05/21/14 12:48:21 by SUMO netconvert Version dev-SVN-r16394
<?xml version="1.0" encoding="UTF-8"?>

<configuration xmlns:xsi="http://www.w3.org/2001/XMLSchema-instance" xsi:noNamespaceSchemaLocation="http://sumo-sim.org/xsd/netconvertConfiguration.xsd">

    <input>
        <node-files value="input_plain.nod.xml"/>
        <edge-files value="input_plain.edg.xml"/>
        <type-files value="input_types.typ.xml"/>
    </input>

    <output>
        <output-file value="net.net.xml"/>
    </output>

    <processing>
        <no-turnarounds value="true"/>
    </processing>

    <building_defaults>
        <default.sidewalk-width value="2.5"/>
    </building_defaults>

    <report>
        <xml-validation value="never"/>
    </report>

</configuration>
-->

<net version="0.13" xmlns:xsi="http://www.w3.org/2001/XMLSchema-instance" xsi:noNamespaceSchemaLocation="http://sumo-sim.org/xsd/net_file.xsd">

    <location netOffset="100.00,100.00" convBoundary="0.00,0.00,200.00,200.00" origBoundary="-10000000000.00,-10000000000.00,10000000000.00,10000000000.00" projParameter="!"/>

    <edge id=":C_0" function="internal">
        <lane id=":C_0_0" index="0" allow="passenger" speed="13.89" length="23.79" shape="95.05,111.75 95.57,104.48 96.70,99.30 97.83,94.47 98.35,88.25"/>
    </edge>
    <edge id=":C_1" function="internal">
        <lane id=":C_1_0" index="0" allow="passenger" speed="13.89" length="7.17" shape="98.35,111.75 99.46,105.89 100.21,104.95"/>
    </edge>
    <edge id=":C_14" function="internal">
        <lane id=":C_14_0" index="0" speed="13.89" length="18.09" shape="100.21,104.95 102.80,101.70 108.36,99.19 116.15,98.35"/>
    </edge>
    <edge id=":C_2" function="internal">
        <lane id=":C_2_0" index="0" allow="pedestrian" speed="13.89" length="8.43" width="3.00" shape="116.15,108.65 114.79,108.84 113.83,109.43 113.24,110.39 113.05,111.75"/>
        <lane id=":C_2_1" index="1" allow="passenger" speed="13.89" length="8.43" shape="116.15,104.95 112.69,105.38 110.22,106.65 108.74,108.78 108.25,111.75"/>
    </edge>
    <edge id=":C_4" function="internal">
        <lane id=":C_4_0" index="0" allow="passenger" speed="13.89" length="27.90" shape="116.15,104.95 107.31,104.95 100.72,104.95 94.87,104.95 88.25,104.95"/>
    </edge>
    <edge id=":C_5" function="internal">
        <lane id=":C_5_0" index="0" allow="passenger" speed="13.89" length="9.58" shape="116.15,101.65 108.36,100.81 106.77,100.10"/>
    </edge>
    <edge id=":C_15" function="internal">
        <lane id=":C_15_0" index="0" speed="13.89" length="15.68" shape="106.77,100.10 102.80,98.30 99.46,94.11 98.35,88.25"/>
    </edge>
    <edge id=":C_6" function="internal">
        <lane id=":C_6_0" index="0" allow="pedestrian" speed="13.89" length="12.29" width="4.00" shape="104.95,88.25 105.65,89.61 107.75,90.57 111.25,91.16 116.15,91.35"/>
    </edge>
    <edge id=":C_7" function="internal">
        <lane id=":C_7_0" index="0" allow="passenger" speed="13.89" length="23.70" shape="104.95,88.25 105.47,94.47 106.60,99.30 107.73,104.48 108.25,111.75"/>
        <lane id=":C_7_1" index="1" allow="passenger" speed="13.89" length="23.70" shape="101.65,88.25 102.17,94.47 103.30,99.30 104.43,104.48 104.95,111.75"/>
        <lane id=":C_7_2" index="2" speed="13.89" length="23.70" shape="101.65,88.25 101.65,94.49 101.65,99.34 101.65,104.53 101.65,111.75"/>
    </edge>
    <edge id=":C_10" function="internal">
        <lane id=":C_10_0" index="0" allow="passenger" speed="13.89" length="7.02" shape="101.65,88.25 100.81,94.11 100.25,95.05"/>
    </edge>
    <edge id=":C_16" function="internal">
        <lane id=":C_16_0" index="0" speed="13.89" length="14.60" shape="100.25,95.05 98.30,98.30 94.11,100.81 88.25,101.65"/>
    </edge>
    <edge id=":C_11" function="internal">
        <lane id=":C_11_0" index="0" allow="passenger" speed="13.89" length="10.97" shape="88.25,95.05 91.22,94.63 93.35,93.35 94.63,91.22 95.05,88.25"/>
    </edge>
    <edge id=":C_12" function="internal">
        <lane id=":C_12_0" index="0" allow="passenger" speed="13.89" length="27.90" shape="88.25,95.05 94.87,95.05 100.72,95.05 107.31,95.05 116.15,95.05"/>
    </edge>
    <edge id=":C_13" function="internal">
        <lane id=":C_13_0" index="0" speed="13.89" length="8.61" shape="88.25,98.35 94.11,99.19 96.42,100.57"/>
    </edge>
    <edge id=":C_17" function="internal">
        <lane id=":C_17_0" index="0" speed="13.89" length="13.00" shape="96.42,100.57 98.30,101.70 100.81,105.89 101.65,111.75"/>
    </edge>

    <edge id="CE" from="C" to="E" priority="2" type="withSidewalk">
        <lane id="CE_0" index="0" allow="pedestrian" speed="13.89" length="83.85" width="4.00" shape="116.15,91.35 200.00,91.35"/>
        <lane id="CE_1" index="1" allow="passenger" speed="13.89" length="83.85" shape="116.15,95.05 200.00,95.05"/>
        <lane id="CE_2" index="2" allow="passenger" speed="13.89" length="83.85" shape="116.15,98.35 200.00,98.35"/>
    </edge>
    <edge id="CN" from="C" to="N" priority="2" type="withSidewalk">
        <lane id="CN_0" index="0" allow="pedestrian" speed="13.89" length="88.25" width="3.00" shape="113.05,111.75 113.05,200.00"/>
        <lane id="CN_1" index="1" disallow="all" speed="13.89" length="88.25" width="1.50" shape="110.70,111.75 110.70,200.00"/>
        <lane id="CN_2" index="2" allow="passenger" speed="13.89" length="88.25" shape="108.25,111.75 108.25,200.00"/>
        <lane id="CN_3" index="3" allow="passenger" speed="13.89" length="88.25" shape="104.95,111.75 104.95,200.00"/>
        <lane id="CN_4" index="4" speed="13.89" length="88.25" shape="101.65,111.75 101.65,200.00"/>
    </edge>
    <edge id="CS" from="C" to="S" priority="2" type="noSidewalk">
        <lane id="CS_0" index="0" allow="passenger" speed="13.89" length="88.25" shape="95.05,88.25 95.05,0.00"/>
        <lane id="CS_1" index="1" allow="passenger" speed="13.89" length="88.25" shape="98.35,88.25 98.35,0.00"/>
    </edge>
    <edge id="CW" from="C" to="W" priority="2" type="withSidewalkDefault">
        <lane id="CW_0" index="0" allow="passenger" speed="13.89" length="88.25" shape="88.25,104.95 0.00,104.95"/>
        <lane id="CW_1" index="1" allow="passenger" speed="13.89" length="88.25" shape="88.25,101.65 0.00,101.65"/>
    </edge>
    <edge id="EC" from="E" to="C" priority="2" type="withSidewalk">
        <lane id="EC_0" index="0" allow="pedestrian" speed="13.89" length="83.85" width="4.00" shape="200.00,108.65 116.15,108.65"/>
        <lane id="EC_1" index="1" allow="passenger" speed="13.89" length="83.85" shape="200.00,104.95 116.15,104.95"/>
        <lane id="EC_2" index="2" allow="passenger" speed="13.89" length="83.85" shape="200.00,101.65 116.15,101.65"/>
    </edge>
    <edge id="NC" from="N" to="C" priority="2" type="withSidewalk">
        <lane id="NC_0" index="0" allow="pedestrian" speed="13.89" length="88.25" width="4.00" shape="91.35,200.00 91.35,111.75"/>
        <lane id="NC_1" index="1" allow="passenger" speed="13.89" length="88.25" shape="95.05,200.00 95.05,111.75"/>
        <lane id="NC_2" index="2" allow="passenger" speed="13.89" length="88.25" shape="98.35,200.00 98.35,111.75"/>
    </edge>
    <edge id="SC" from="S" to="C" priority="2" type="noSidewalk">
        <lane id="SC_0" index="0" allow="passenger" speed="13.89" length="88.25" shape="104.95,0.00 104.95,88.25"/>
        <lane id="SC_1" index="1" allow="passenger" speed="13.89" length="88.25" shape="101.65,0.00 101.65,88.25"/>
    </edge>
    <edge id="WC" from="W" to="C" priority="2" type="withSidewalkDefault">
        <lane id="WC_0" index="0" allow="passenger" speed="13.89" length="88.25" shape="0.00,95.05 88.25,95.05"/>
        <lane id="WC_1" index="1" allow="passenger" speed="13.89" length="88.25" shape="0.00,98.35 88.25,98.35"/>
    </edge>

    <tlLogic id="C" type="static" programID="0" offset="0">
        <phase duration="31" state="GGrrrrGggggrrr"/>
        <phase duration="4" state="yyrrrryggggrrr"/>
        <phase duration="6" state="rrrrrrrGGGGrrr"/>
        <phase duration="4" state="rrrrrrryyyyrrr"/>
        <phase duration="31" state="rrGGGGGrrrrggg"/>
        <phase duration="4" state="rryyyyyrrrrggg"/>
        <phase duration="6" state="rrrrrrrrrrrGGG"/>
        <phase duration="4" state="rrrrrrrrrrryyy"/>
    </tlLogic>

    <junction id="C" type="traffic_light" x="100.00" y="100.00" incLanes="NC_0 NC_1 NC_2 EC_0 EC_1 EC_2 SC_0 SC_1 WC_0 WC_1" intLanes=":C_0_0 :C_14_0 :C_2_0 :C_2_1 :C_4_0 :C_15_0 :C_6_0 :C_7_0 :C_7_1 :C_7_2 :C_16_0 :C_11_0 :C_12_0 :C_17_0" shape="89.75,111.75 114.65,111.75 116.15,110.25 116.15,89.75 106.55,88.25 93.45,88.25 88.25,93.45 88.25,106.55">
        <request index="0" response="00000000000000" foes="11110000110000" cont="0"/>
        <request index="1" response="00000000000000" foes="10001110110000" cont="1"/>
        <request index="2" response="00000000000000" foes="10001110000000" cont="0"/>
        <request index="3" response="00000000000000" foes="10001110000000" cont="0"/>
        <request index="4" response="00000000000011" foes="10001110000011" cont="0"/>
        <request index="5" response="00000000000011" foes="01111110000011" cont="1"/>
        <request index="6" response="00000000000000" foes="00000000000000" cont="0"/>
        <request index="7" response="00000000111110" foes="11000000111110" cont="0"/>
        <request index="8" response="00000000111110" foes="11000000111110" cont="0"/>
        <request index="9" response="00000000111110" foes="11000000111110" cont="0"/>
        <request index="10" response="00000000100001" foes="11000000100001" cont="1"/>
        <request index="11" response="00000000100001" foes="00000000100001" cont="0"/>
        <request index="12" response="00011110100001" foes="00011110100001" cont="0"/>
        <request index="13" response="00011110011111" foes="00011110011111" cont="1"/>
    </junction>
    <junction id="E" type="dead_end" x="200.00" y="100.00" incLanes="CE_0 CE_1 CE_2" intLanes="" shape="200.00,100.05 200.00,110.25 200.00,89.75 200.00,99.95"/>
    <junction id="N" type="dead_end" x="100.00" y="200.00" incLanes="CN_0 CN_1 CN_2 CN_3 CN_4" intLanes="" shape="99.95,200.00 89.75,200.00 114.65,200.00 100.05,200.00"/>
    <junction id="S" type="dead_end" x="100.00" y="0.00" incLanes="CS_0 CS_1" intLanes="" shape="100.05,-0.00 106.55,-0.00 93.45,0.00 99.95,0.00"/>
    <junction id="W" type="dead_end" x="0.00" y="100.00" incLanes="CW_0 CW_1" intLanes="" shape="-0.00,99.95 -0.00,93.45 0.00,106.55 0.00,100.05"/>

    <junction id=":C_14_0" type="internal" x="100.21" y="104.95" incLanes=":C_1_0" intLanes=":C_4_0 :C_5_0 :C_7_0 :C_7_1 :C_7_2 :C_13_0"/>
    <junction id=":C_15_0" type="internal" x="106.77" y="100.10" incLanes=":C_5_0 NC_1 NC_2" intLanes=":C_0_0 :C_1_0 :C_7_0 :C_7_1 :C_7_2 :C_10_0 :C_11_0 :C_12_0"/>
    <junction id=":C_16_0" type="internal" x="100.25" y="95.05" incLanes=":C_10_0 NC_1" intLanes=":C_0_0 :C_5_0 :C_12_0 :C_13_0"/>
    <junction id=":C_17_0" type="internal" x="96.42" y="100.57" incLanes=":C_13_0 EC_0 EC_1 NC_1 SC_0 SC_1" intLanes=":C_0_0 :C_1_0 :C_2_0 :C_2_1 :C_4_0 :C_7_0 :C_7_1 :C_7_2 :C_10_0"/>

    <connection from="EC" to="CN" fromLane="0" toLane="0" via=":C_2_0" tl="C" linkIndex="2" dir="r" state="o"/>
    <connection from="EC" to="CN" fromLane="1" toLane="2" via=":C_2_1" tl="C" linkIndex="3" dir="r" state="o"/>
    <connection from="EC" to="CW" fromLane="1" toLane="0" via=":C_4_0" tl="C" linkIndex="4" dir="s" state="o"/>
    <connection from="EC" to="CS" fromLane="2" toLane="1" via=":C_5_0" tl="C" linkIndex="5" dir="l" state="o"/>
    <connection from="NC" to="CS" fromLane="1" toLane="1" via=":C_0_0" tl="C" linkIndex="0" dir="s" state="o"/>
    <connection from="NC" to="CE" fromLane="2" toLane="2" via=":C_1_0" tl="C" linkIndex="1" dir="l" state="o"/>
    <connection from="SC" to="CE" fromLane="0" toLane="0" via=":C_6_0" tl="C" linkIndex="6" dir="r" state="o"/>
    <connection from="SC" to="CN" fromLane="0" toLane="2" via=":C_7_0" tl="C" linkIndex="7" dir="s" state="o"/>
    <connection from="SC" to="CN" fromLane="1" toLane="3" via=":C_7_1" tl="C" linkIndex="8" dir="s" state="o"/>
    <connection from="SC" to="CN" fromLane="1" toLane="4" via=":C_7_2" tl="C" linkIndex="9" dir="s" state="o"/>
    <connection from="SC" to="CW" fromLane="1" toLane="1" via=":C_10_0" tl="C" linkIndex="10" dir="l" state="o"/>
    <connection from="WC" to="CS" fromLane="0" toLane="0" via=":C_11_0" tl="C" linkIndex="11" dir="r" state="o"/>
    <connection from="WC" to="CE" fromLane="0" toLane="1" via=":C_12_0" tl="C" linkIndex="12" dir="s" state="o"/>
    <connection from="WC" to="CN" fromLane="1" toLane="4" via=":C_13_0" tl="C" linkIndex="13" dir="l" state="o"/>

    <connection from=":C_0" to="CS" fromLane="0" toLane="1" dir="s" state="M"/>
    <connection from=":C_1" to="CE" fromLane="0" toLane="2" via=":C_14_0" dir="s" state="m"/>
    <connection from=":C_14" to="CE" fromLane="0" toLane="2" dir="s" state="M"/>
    <connection from=":C_2" to="CN" fromLane="0" toLane="0" dir="s" state="M"/>
    <connection from=":C_2" to="CN" fromLane="1" toLane="2" dir="s" state="M"/>
    <connection from=":C_4" to="CW" fromLane="0" toLane="0" dir="s" state="M"/>
    <connection from=":C_5" to="CS" fromLane="0" toLane="1" via=":C_15_0" dir="s" state="m"/>
    <connection from=":C_15" to="CS" fromLane="0" toLane="1" dir="s" state="M"/>
    <connection from=":C_6" to="CE" fromLane="0" toLane="0" dir="s" state="M"/>
    <connection from=":C_7" to="CN" fromLane="0" toLane="2" dir="s" state="M"/>
    <connection from=":C_7" to="CN" fromLane="1" toLane="3" dir="s" state="M"/>
    <connection from=":C_7" to="CN" fromLane="2" toLane="4" dir="s" state="M"/>
    <connection from=":C_10" to="CW" fromLane="0" toLane="1" via=":C_16_0" dir="s" state="m"/>
    <connection from=":C_16" to="CW" fromLane="0" toLane="1" dir="s" state="M"/>
    <connection from=":C_11" to="CS" fromLane="0" toLane="0" dir="s" state="M"/>
    <connection from=":C_12" to="CE" fromLane="0" toLane="1" dir="s" state="M"/>
    <connection from=":C_13" to="CN" fromLane="0" toLane="4" via=":C_17_0" dir="s" state="m"/>
    <connection from=":C_17" to="CN" fromLane="0" toLane="4" dir="s" state="M"/>

</net>
