<?xml version="1.0" encoding="UTF-8"?>

<!-- generated on Mon 19 Apr 2021 01:19:42 PM CEST by Eclipse SUMO netedit Version v1_9_0+0109-1958fde
<configuration xmlns:xsi="http://www.w3.org/2001/XMLSchema-instance" xsi:noNamespaceSchemaLocation="http://sumo.dlr.de/xsd/netconvertConfiguration.xsd">

    <input>
        <new value="true"/>
    </input>

    <output>
        <output-file value="/localdata2/debug/lara_20210416/net.net.xml"/>
    </output>

    <processing>
        <offset.disable-normalization value="true"/>
    </processing>

    <netedit>
        <additional-files value="/localdata2/debug/lara_20210416/input_additional.xml"/>
    </netedit>

    <report>
        <aggregate-warnings value="5"/>
    </report>

</configuration>
-->

<additional xmlns:xsi="http://www.w3.org/2001/XMLSchema-instance" xsi:noNamespaceSchemaLocation="http://sumo.dlr.de/xsd/additional_file.xsd">
    <busStop id="C" lane="c_0" startPos="145.00" endPos="155.00">
        <access lane="b_0" pos="55.00"/>
        <access lane="e_0" pos="55.00"/>
    </busStop>
</additional>
