<?xml version="1.0" encoding="UTF-8"?>

<!-- generated on Mon Dec  4 08:57:31 2017 by SUMO Version UNKNOWN
<?xml version="1.0" encoding="UTF-8"?>

<configuration xmlns:xsi="http://www.w3.org/2001/XMLSchema-instance" xsi:noNamespaceSchemaLocation="http://sumo.dlr.de/xsd/sumoConfiguration.xsd">

    <input>
        <net-file value="net.net.xml"/>
        <route-files value="input_routes.rou.xml"/>
    </input>

    <output>
        <lanechange-output value="lanechanges.xml"/>
    </output>

    <processing>
        <lateral-resolution value="0.4"/>
    </processing>

    <report>
        <verbose value="true"/>
        <xml-validation value="never"/>
        <duration-log.statistics value="true"/>
        <no-step-log value="true"/>
    </report>

</configuration>
-->

<lanechanges>
    <change id="ramp.0" type="passenger_pushy" time="2.00" from="merge_0" to="merge_1" dir="1" speed="24.45" pos="51.03" reason="strategic|urgent" leaderGap="8.88" leaderSecureGap="0.00" followerGap="None" followerSecureGap="None" origLeaderGap="None" origLeaderSecureGap="None" latGap="None"/>
    <change id="main.3" type="passenger_pushy" time="4.00" from="merge_1" to="merge_2" dir="1" speed="31.26" pos="36.39" reason="cooperative|urgent" leaderGap="63.08" leaderSecureGap="6.32" followerGap="None" followerSecureGap="None" origLeaderGap="24.98" origLeaderSecureGap="93.27" latGap="None"/>
    <change id="ramp.1" type="passenger" time="5.00" from="merge_0" to="merge_1" dir="1" speed="14.51" pos="80.88" reason="strategic|urgent" leaderGap="None" leaderSecureGap="None" followerGap="37.40" followerSecureGap="28.87" origLeaderGap="None" origLeaderSecureGap="None" latGap="None"/>
    <change id="ramp.3" type="passenger_pushy" time="5.00" from="merge_0" to="merge_1" dir="1" speed="18.08" pos="38.49" reason="strategic|urgent" leaderGap="17.93" leaderSecureGap="16.90" followerGap="None" followerSecureGap="None" origLeaderGap="17.93" origLeaderSecureGap="16.90" latGap="None"/>
    <change id="ramp.2" type="passenger" time="6.00" from="merge_0" to="merge_1" dir="1" speed="13.88" pos="75.29" reason="strategic|urgent" leaderGap="17.71" leaderSecureGap="4.17" followerGap="14.07" followerSecureGap="29.30" origLeaderGap="None" origLeaderSecureGap="None" latGap="None"/>
    <change id="ramp.4" type="motorcycle" time="16.00" from="merge_0" to="merge_1" dir="1" speed="0.00" pos="116.79" reason="strategic|urgent" leaderGap="14.72" leaderSecureGap="0.00" followerGap="2.50" followerSecureGap="9.79" origLeaderGap="None" origLeaderSecureGap="None" latGap="None"/>
    <change id="ramp.5" type="motorcycle" time="16.00" from="merge_0" to="merge_1" dir="1" speed="9.79" pos="112.09" reason="strategic|urgent" leaderGap="2.50" leaderSecureGap="9.79" followerGap="81.81" followerSecureGap="13.62" origLeaderGap="None" origLeaderSecureGap="None" latGap="None"/>
    <change id="main.18" type="passenger" time="19.00" from="beg_0" to="beg_1" dir="1" speed="25.36" pos="253.55" reason="cooperative|urgent" leaderGap="32.14" leaderSecureGap="0.00" followerGap="29.42" followerSecureGap="56.98" origLeaderGap="48.39" origLeaderSecureGap="84.65" latGap="None"/>
    <change id="main.19" type="passenger" time="19.00" from="beg_0" to="beg_1" dir="1" speed="30.11" pos="219.13" reason="cooperative|urgent" leaderGap="29.42" leaderSecureGap="56.98" followerGap="None" followerSecureGap="None" origLeaderGap="82.81" origLeaderSecureGap="116.27" latGap="None"/>
    <change id="ramp.6" type="motorcycle" time="20.00" from="merge_0" to="merge_1" dir="1" speed="0.00" pos="116.79" reason="strategic|urgent" leaderGap="29.10" leaderSecureGap="0.00" followerGap="16.24" followerSecureGap="27.32" origLeaderGap="None" origLeaderSecureGap="None" latGap="None"/>
    <change id="ramp.7" type="passenger" time="20.00" from="merge_0" to="merge_1" dir="1" speed="13.58" pos="98.34" reason="strategic|urgent" leaderGap="16.24" leaderSecureGap="27.32" followerGap="17.21" followerSecureGap="5.32" origLeaderGap="None" origLeaderSecureGap="None" latGap="None"/>
    <change id="ramp.8" type="passenger" time="20.00" from="merge_0" to="merge_1" dir="1" speed="10.86" pos="76.14" reason="strategic|urgent" leaderGap="17.21" leaderSecureGap="5.32" followerGap="24.58" followerSecureGap="0.00" origLeaderGap="None" origLeaderSecureGap="None" latGap="None"/>
    <change id="ramp.9" type="passenger_pushy" time="20.00" from="merge_0" to="merge_1" dir="1" speed="3.84" pos="46.56" reason="strategic|urgent" leaderGap="24.58" leaderSecureGap="0.00" followerGap="93.70" followerSecureGap="86.80" origLeaderGap="None" origLeaderSecureGap="None" latGap="None"/>
    <change id="ramp.11" type="passenger_pushy" time="20.00" from="merge_0" to="merge_1" dir="1" speed="0.32" pos="17.97" reason="strategic|urgent" leaderGap="23.59" leaderSecureGap="0.32" followerGap="65.11" followerSecureGap="86.80" origLeaderGap="12.25" origLeaderSecureGap="0.32" latGap="None"/>
    <change id="ramp.10" type="passenger" time="22.00" from="merge_0" to="merge_1" dir="1" speed="6.44" pos="45.50" reason="strategic|urgent" leaderGap="11.54" leaderSecureGap="3.80" followerGap="14.09" followerSecureGap="4.59" origLeaderGap="None" origLeaderSecureGap="None" latGap="None"/>
    <change id="ramp.13" type="passenger_pushy" time="26.00" from="merge_0" to="merge_1" dir="1" speed="9.85" pos="29.85" reason="strategic|urgent" leaderGap="36.77" leaderSecureGap="0.00" followerGap="4.92" followerSecureGap="0.00" origLeaderGap="20.68" origLeaderSecureGap="11.48" latGap="None"/>
    <change id="ramp.12" type="motorcycle" time="27.00" from="merge_0" to="merge_1" dir="1" speed="4.99" pos="77.38" reason="strategic|urgent" leaderGap="27.01" leaderSecureGap="0.00" followerGap="32.88" followerSecureGap="23.85" origLeaderGap="None" origLeaderSecureGap="None" latGap="None"/>
    <change id="ramp.15" type="passenger_pushy" time="29.00" from="merge_0" to="merge_1" dir="1" speed="11.17" pos="35.65" reason="strategic|urgent" leaderGap="55.52" leaderSecureGap="19.01" followerGap="13.49" followerSecureGap="3.45" origLeaderGap="None" origLeaderSecureGap="None" latGap="0.55"/>
    <change id="ramp.16" type="passenger_pushy" time="30.00" from="merge_0" to="merge_1" dir="1" speed="10.99" pos="28.15" reason="strategic|urgent" leaderGap="16.27" leaderSecureGap="5.17" followerGap="38.29" followerSecureGap="24.73" origLeaderGap="None" origLeaderSecureGap="None" latGap="None"/>
    <change id="ramp.14" type="motorcycle" time="32.00" from="merge_0" to="merge_1" dir="1" speed="0.00" pos="116.79" reason="strategic|urgent" leaderGap="31.36" leaderSecureGap="0.00" followerGap="45.53" followerSecureGap="16.34" origLeaderGap="None" origLeaderSecureGap="None" latGap="None"/>
    <change id="main.24" type="motorcycle" time="32.00" from="merge_1" to="merge_2" dir="1" speed="6.24" pos="28.63" reason="speedGain" leaderGap="49.92" leaderSecureGap="0.00" followerGap="57.03" followerSecureGap="31.83" origLeaderGap="35.43" origLeaderSecureGap="6.24" latGap="None"/>
    <change id="ramp.17" type="motorcycle" time="34.00" from="merge_0" to="merge_1" dir="1" speed="11.75" pos="52.05" reason="strategic|urgent" leaderGap="17.00" leaderSecureGap="10.94" followerGap="32.92" followerSecureGap="7.44" origLeaderGap="None" origLeaderSecureGap="None" latGap="None"/>
    <change id="main.34" type="passenger_pushy" time="36.00" from="beg_0" to="beg_1" dir="1" speed="11.15" pos="244.84" reason="speedGain" leaderGap="8.95" leaderSecureGap="17.60" followerGap="None" followerSecureGap="None" origLeaderGap="None" origLeaderSecureGap="None" latGap="None"/>
    <change id="main.31" type="passenger_pushy" time="37.00" from="beg_0" to="beg_1" dir="1" speed="7.01" pos="282.05" reason="speedGain" leaderGap="9.35" leaderSecureGap="0.00" followerGap="9.27" followerSecureGap="7.96" origLeaderGap="11.30" origLeaderSecureGap="5.48" latGap="None"/>
    <change id="ramp.18" type="passenger" time="37.00" from="merge_0" to="merge_1" dir="1" speed="15.00" pos="64.17" reason="strategic|urgent" leaderGap="30.70" leaderSecureGap="27.17" followerGap="13.87" followerSecureGap="2.06" origLeaderGap="None" origLeaderSecureGap="None" latGap="None"/>
    <change id="main.30" type="passenger_pushy" time="38.00" from="merge_1" to="merge_2" dir="1" speed="5.71" pos="14.77" reason="speedGain" leaderGap="13.81" leaderSecureGap="2.81" followerGap="8.34" followerSecureGap="11.64" origLeaderGap="13.81" origLeaderSecureGap="2.81" latGap="None"/>
    <change id="main.29" type="truck" time="39.00" from="merge_1" to="merge_2" dir="1" speed="11.20" pos="46.28" reason="cooperative|urgent" leaderGap="18.66" leaderSecureGap="0.00" followerGap="16.70" followerSecureGap="3.21" origLeaderGap="5.40" origLeaderSecureGap="11.74" latGap="None"/>
    <change id="ramp.19" type="passenger_pushy" time="40.00" from="merge_0" to="merge_1" dir="1" speed="13.53" pos="70.21" reason="strategic|urgent" leaderGap="14.47" leaderSecureGap="6.31" followerGap="21.97" followerSecureGap="1.10" origLeaderGap="None" origLeaderSecureGap="None" latGap="None"/>
    <change id="ramp.20" type="passenger" time="40.00" from="merge_0" to="merge_1" dir="1" speed="9.40" pos="43.24" reason="strategic|urgent" leaderGap="21.97" leaderSecureGap="1.10" followerGap="12.61" followerSecureGap="8.38" origLeaderGap="None" origLeaderSecureGap="None" latGap="None"/>
    <change id="ramp.21" type="passenger" time="41.00" from="merge_0" to="merge_1" dir="1" speed="9.64" pos="35.27" reason="strategic|urgent" leaderGap="14.98" leaderSecureGap="4.91" followerGap="39.08" followerSecureGap="21.82" origLeaderGap="None" origLeaderSecureGap="None" latGap="None"/>
    <change id="ramp.22" type="passenger" time="44.00" from="merge_0" to="merge_1" dir="1" speed="8.77" pos="33.07" reason="strategic|urgent" leaderGap="13.92" leaderSecureGap="0.00" followerGap="18.64" followerSecureGap="0.00" origLeaderGap="None" origLeaderSecureGap="None" latGap="None"/>
    <change id="ramp.23" type="passenger" time="46.00" from="merge_0" to="merge_1" dir="1" speed="11.43" pos="36.82" reason="strategic|urgent" leaderGap="16.59" leaderSecureGap="5.88" followerGap="12.27" followerSecureGap="0.00" origLeaderGap="None" origLeaderSecureGap="None" latGap="None"/>
    <change id="ramp.24" type="passenger_pushy" time="47.00" from="merge_0" to="merge_1" dir="1" speed="4.62" pos="10.31" reason="strategic|urgent" leaderGap="13.20" leaderSecureGap="0.27" followerGap="3.37" followerSecureGap="0.00" origLeaderGap="None" origLeaderSecureGap="None" latGap="None"/>
    <change id="ramp.25" type="passenger_pushy" time="50.00" from="merge_0" to="merge_1" dir="1" speed="9.82" pos="19.84" reason="strategic|urgent" leaderGap="14.92" leaderSecureGap="4.62" followerGap="7.61" followerSecureGap="0.00" origLeaderGap="None" origLeaderSecureGap="None" latGap="None"/>
    <change id="ramp.26" type="passenger_pushy" time="51.00" from="merge_0" to="merge_1" dir="1" speed="9.82" pos="12.34" reason="strategic|urgent" leaderGap="14.92" leaderSecureGap="4.62" followerGap="42.91" followerSecureGap="0.00" origLeaderGap="None" origLeaderSecureGap="None" latGap="0.90"/>
    <change id="ramp.27" type="passenger" time="55.00" from="merge_0" to="merge_1" dir="1" speed="17.62" pos="49.89" reason="strategic|urgent" leaderGap="22.72" leaderSecureGap="7.60" followerGap="17.09" followerSecureGap="0.00" origLeaderGap="None" origLeaderSecureGap="None" latGap="None"/>
    <change id="ramp.28" type="passenger" time="57.00" from="merge_0" to="merge_1" dir="1" speed="20.22" pos="62.60" reason="strategic|urgent" leaderGap="25.32" leaderSecureGap="9.50" followerGap="44.81" followerSecureGap="0.00" origLeaderGap="None" origLeaderSecureGap="None" latGap="None"/>
    <change id="ramp.29" type="passenger" time="61.00" from="merge_0" to="merge_1" dir="1" speed="14.09" pos="69.70" reason="strategic|urgent" leaderGap="17.96" leaderSecureGap="4.44" followerGap="10.83" followerSecureGap="0.00" origLeaderGap="None" origLeaderSecureGap="None" latGap="None"/>
    <change id="ramp.30" type="passenger" time="65.00" from="merge_0" to="merge_1" dir="1" speed="12.59" pos="105.11" reason="strategic|urgent" leaderGap="41.95" leaderSecureGap="0.00" followerGap="26.88" followerSecureGap="9.99" origLeaderGap="None" origLeaderSecureGap="None" latGap="None"/>
    <change id="ramp.31" type="passenger" time="65.00" from="merge_0" to="merge_1" dir="1" speed="6.24" pos="54.33" reason="strategic|urgent" leaderGap="13.91" leaderSecureGap="0.00" followerGap="12.88" followerSecureGap="1.18" origLeaderGap="None" origLeaderSecureGap="None" latGap="None"/>
    <change id="ramp.32" type="passenger" time="67.00" from="merge_0" to="merge_1" dir="1" speed="8.84" pos="55.67" reason="strategic|urgent" leaderGap="12.42" leaderSecureGap="6.86" followerGap="11.63" followerSecureGap="0.00" origLeaderGap="None" origLeaderSecureGap="None" latGap="None"/>
    <change id="ramp.33" type="truck" time="70.00" from="merge_0" to="merge_1" dir="1" speed="5.01" pos="46.05" reason="strategic|urgent" leaderGap="11.40" leaderSecureGap="0.00" followerGap="8.33" followerSecureGap="2.09" origLeaderGap="None" origLeaderSecureGap="None" latGap="None"/>
    <change id="ramp.34" type="motorcycle" time="71.00" from="merge_0" to="merge_1" dir="1" speed="0.00" pos="25.29" reason="strategic|urgent" leaderGap="3.54" leaderSecureGap="0.00" followerGap="2.60" followerSecureGap="0.00" origLeaderGap="14.60" origLeaderSecureGap="0.00" latGap="None"/>
    <change id="ramp.35" type="motorcycle" time="76.00" from="merge_0" to="merge_1" dir="1" speed="3.81" pos="73.45" reason="strategic|urgent" leaderGap="7.13" leaderSecureGap="3.81" followerGap="11.51" followerSecureGap="5.61" origLeaderGap="None" origLeaderSecureGap="None" latGap="None"/>
    <change id="ramp.38" type="passenger_pushy" time="77.00" from="merge_0" to="merge_1" dir="1" speed="0.55" pos="18.69" reason="strategic|urgent" leaderGap="7.82" leaderSecureGap="0.55" followerGap="9.71" followerSecureGap="2.87" origLeaderGap="43.80" origLeaderSecureGap="0.20" latGap="None"/>
    <change id="main.54" type="motorcycle" time="78.00" from="beg_0" to="beg_1" dir="1" speed="0.00" pos="288.57" reason="speedGain" leaderGap="102.43" leaderSecureGap="0.00" followerGap="2.50" followerSecureGap="0.00" origLeaderGap="None" origLeaderSecureGap="None" latGap="None"/>
    <change id="ramp.36" type="passenger" time="80.00" from="merge_0" to="merge_1" dir="1" speed="5.50" pos="80.76" reason="strategic|urgent" leaderGap="12.41" leaderSecureGap="0.00" followerGap="13.52" followerSecureGap="9.37" origLeaderGap="None" origLeaderSecureGap="None" latGap="None"/>
    <change id="ramp.37" type="passenger_pushy" time="80.00" from="merge_0" to="merge_1" dir="1" speed="7.44" pos="62.23" reason="strategic|urgent" leaderGap="13.52" leaderSecureGap="9.37" followerGap="12.91" followerSecureGap="5.30" origLeaderGap="None" origLeaderSecureGap="None" latGap="0.80"/>
    <change id="ramp.34" type="motorcycle" time="82.00" from="merge_1" to="merge_2" dir="1" speed="6.00" pos="65.90" reason="speedGain" leaderGap="None" leaderSecureGap="None" followerGap="61.81" followerSecureGap="0.00" origLeaderGap="8.92" origLeaderSecureGap="6.00" latGap="None"/>
    <change id="ramp.39" type="passenger" time="82.00" from="merge_0" to="merge_1" dir="1" speed="5.14" pos="29.05" reason="strategic|urgent" leaderGap="8.96" leaderSecureGap="2.60" followerGap="9.97" followerSecureGap="0.00" origLeaderGap="None" origLeaderSecureGap="None" latGap="None"/>
    <change id="ramp.41" type="passenger" time="87.00" from="merge_0" to="merge_1" dir="1" speed="5.12" pos="22.88" reason="strategic|urgent" leaderGap="7.53" leaderSecureGap="4.83" followerGap="9.61" followerSecureGap="1.07" origLeaderGap="None" origLeaderSecureGap="None" latGap="2.10"/>
    <change id="ramp.40" type="passenger" time="88.00" from="merge_0" to="merge_1" dir="1" speed="12.61" pos="76.18" reason="strategic|urgent" leaderGap="17.27" leaderSecureGap="4.37" followerGap="14.40" followerSecureGap="0.00" origLeaderGap="None" origLeaderSecureGap="None" latGap="None"/>
    <change id="main.53" type="motorcycle" time="91.00" from="merge_1" to="merge_2" dir="1" speed="10.45" pos="51.99" reason="speedGain" leaderGap="None" leaderSecureGap="None" followerGap="12.95" followerSecureGap="7.55" origLeaderGap="None" origLeaderSecureGap="None" latGap="None"/>
    <change id="ramp.42" type="truck" time="91.00" from="merge_0" to="merge_1" dir="1" speed="5.30" pos="31.44" reason="strategic|urgent" leaderGap="15.58" leaderSecureGap="0.00" followerGap="8.50" followerSecureGap="3.41" origLeaderGap="None" origLeaderSecureGap="None" latGap="None"/>
    <change id="ramp.43" type="passenger" time="94.00" from="merge_0" to="merge_1" dir="1" speed="5.29" pos="16.70" reason="strategic|urgent" leaderGap="19.02" leaderSecureGap="0.00" followerGap="10.62" followerSecureGap="0.00" origLeaderGap="None" origLeaderSecureGap="None" latGap="None"/>
    <change id="main.58" type="motorcycle" time="95.00" from="merge_1" to="merge_2" dir="1" speed="12.00" pos="50.14" reason="sublane" leaderGap="62.29" leaderSecureGap="0.00" followerGap="54.37" followerSecureGap="0.00" origLeaderGap="None" origLeaderSecureGap="None" latGap="0.95"/>
    <change id="main.77" type="passenger_pushy" time="96.00" from="beg_0" to="beg_1" dir="1" speed="2.36" pos="223.66" reason="speedGain" leaderGap="2.50" leaderSecureGap="2.36" followerGap="4.86" followerSecureGap="1.03" origLeaderGap="23.20" origLeaderSecureGap="0.00" latGap="None"/>
    <change id="ramp.44" type="truck" time="97.00" from="merge_0" to="merge_1" dir="1" speed="10.49" pos="27.57" reason="strategic|urgent" leaderGap="15.59" leaderSecureGap="5.29" followerGap="11.54" followerSecureGap="0.00" origLeaderGap="None" origLeaderSecureGap="None" latGap="None"/>
    <change id="ramp.45" type="passenger_pushy" time="97.00" from="merge_0" to="merge_1" dir="1" speed="7.89" pos="8.09" reason="strategic|urgent" leaderGap="12.99" leaderSecureGap="3.80" followerGap="22.34" followerSecureGap="32.93" origLeaderGap="None" origLeaderSecureGap="None" latGap="0.90"/>
    <change id="main.81" type="passenger_pushy" time="97.00" from="beg_0" to="beg_1" dir="1" speed="2.36" pos="216.16" reason="speedGain" leaderGap="2.50" leaderSecureGap="2.36" followerGap="4.86" followerSecureGap="1.03" origLeaderGap="51.68" origLeaderSecureGap="0.00" latGap="None"/>
    <change id="main.61" type="passenger" time="99.00" from="merge_1" to="merge_2" dir="1" speed="10.31" pos="27.55" reason="cooperative|urgent" leaderGap="26.86" leaderSecureGap="0.00" followerGap="12.81" followerSecureGap="3.80" origLeaderGap="None" origLeaderSecureGap="None" latGap="None"/>
    <change id="main.62" type="passenger" time="99.00" from="merge_1" to="merge_2" dir="1" speed="7.71" pos="9.74" reason="speedGain" leaderGap="12.81" leaderSecureGap="3.80" followerGap="10.21" followerSecureGap="2.51" origLeaderGap="16.92" origLeaderSecureGap="0.00" latGap="None"/>
    <change id="main.63" type="passenger" time="99.00" from="beg_0" to="beg_1" dir="1" speed="5.11" pos="283.82" reason="speedGain" leaderGap="10.21" leaderSecureGap="2.51" followerGap="7.61" followerSecureGap="1.90" origLeaderGap="7.87" origLeaderSecureGap="5.72" latGap="None"/>
    <change id="main.75" type="passenger_pushy" time="99.00" from="beg_0" to="beg_1" dir="1" speed="0.00" pos="243.86" reason="speedGain" leaderGap="2.50" leaderSecureGap="0.00" followerGap="2.50" followerSecureGap="2.60" origLeaderGap="2.50" origLeaderSecureGap="0.00" latGap="None"/>
    <change id="main.85" type="passenger_pushy" time="99.00" from="beg_0" to="beg_1" dir="1" speed="0.00" pos="208.66" reason="speedGain" leaderGap="5.10" leaderSecureGap="0.00" followerGap="2.50" followerSecureGap="2.36" origLeaderGap="25.10" origLeaderSecureGap="0.00" latGap="None"/>
    <change id="main.90" type="passenger_pushy" time="99.00" from="beg_0" to="beg_1" dir="1" speed="2.36" pos="201.15" reason="speedGain" leaderGap="2.50" leaderSecureGap="2.36" followerGap="4.86" followerSecureGap="1.03" origLeaderGap="32.61" origLeaderSecureGap="0.00" latGap="1.20"/>
    <change id="main.93" type="passenger" time="99.00" from="beg_0" to="beg_1" dir="1" speed="1.03" pos="191.29" reason="speedGain" leaderGap="4.86" leaderSecureGap="1.03" followerGap="123.22" followerSecureGap="113.23" origLeaderGap="42.47" origLeaderSecureGap="0.00" latGap="None"/>
    <change id="ramp.46" type="motorcycle" time="102.00" from="merge_0" to="merge_1" dir="1" speed="17.18" pos="59.24" reason="strategic|urgent" leaderGap="22.28" leaderSecureGap="12.58" followerGap="47.32" followerSecureGap="0.00" origLeaderGap="None" origLeaderSecureGap="None" latGap="None"/>
    <change id="main.61" type="passenger" time="102.00" from="merge_2" to="merge_1" dir="-1" speed="12.66" pos="57.72" reason="sublane" leaderGap="23.80" leaderSecureGap="0.00" followerGap="15.16" followerSecureGap="4.86" origLeaderGap="1.16" origLeaderSecureGap="0.00" latGap="1.40"/>
    <change id="ramp.47" type="passenger" time="103.00" from="merge_0" to="merge_1" dir="1" speed="15.04" pos="43.60" reason="strategic|urgent" leaderGap="33.95" leaderSecureGap="22.12" followerGap="26.10" followerSecureGap="0.00" origLeaderGap="None" origLeaderSecureGap="None" latGap="2.10"/>
    <change id="main.70" type="passenger" time="103.00" from="beg_0" to="beg_1" dir="1" speed="10.31" pos="286.83" reason="speedGain" leaderGap="9.96" leaderSecureGap="14.47" followerGap="12.81" followerSecureGap="3.80" origLeaderGap="5.28" origLeaderSecureGap="17.43" latGap="None"/>
    <change id="ramp.48" type="motorcycle" time="104.00" from="merge_0" to="merge_1" dir="1" speed="15.04" pos="36.10" reason="strategic|urgent" leaderGap="19.41" leaderSecureGap="13.17" followerGap="14.66" followerSecureGap="2.72" origLeaderGap="None" origLeaderSecureGap="None" latGap="2.15"/>
    <change id="main.71" type="truck" time="104.00" from="beg_0" to="beg_1" dir="1" speed="10.31" pos="279.33" reason="speedGain" leaderGap="9.96" leaderSecureGap="14.47" followerGap="10.02" followerSecureGap="5.66" origLeaderGap="14.54" origLeaderSecureGap="17.43" latGap="None"/>
    <change id="main.85" type="passenger_pushy" time="104.00" from="beg_1" to="beg_0" dir="-1" speed="0.00" pos="213.86" reason="sublane" leaderGap="5.10" leaderSecureGap="0.00" followerGap="2.50" followerSecureGap="0.00" origLeaderGap="43.95" origLeaderSecureGap="0.00" latGap="None"/>
    <change id="main.81" type="passenger_pushy" time="105.00" from="beg_1" to="beg_0" dir="-1" speed="5.20" pos="229.16" reason="sublane" leaderGap="10.30" leaderSecureGap="2.60" followerGap="7.70" followerSecureGap="1.90" origLeaderGap="None" origLeaderSecureGap="None" latGap="None"/>
    <change id="main.77" type="passenger_pushy" time="106.00" from="beg_1" to="beg_0" dir="-1" speed="10.40" pos="254.86" reason="speedGain" leaderGap="13.13" leaderSecureGap="9.94" followerGap="12.90" followerSecureGap="3.80" origLeaderGap="18.86" origLeaderSecureGap="15.67" latGap="None"/>
    <change id="main.93" type="passenger" time="106.00" from="beg_1" to="beg_0" dir="-1" speed="0.00" pos="198.85" reason="speedGain" leaderGap="5.10" leaderSecureGap="0.00" followerGap="2.50" followerSecureGap="0.00" origLeaderGap="26.33" origLeaderSecureGap="0.00" latGap="None"/>
    <change id="main.77" type="passenger_pushy" time="108.00" from="beg_0" to="beg_1" dir="1" speed="11.66" pos="277.14" reason="speedGain" leaderGap="14.61" leaderSecureGap="10.76" followerGap="14.16" followerSecureGap="8.57" origLeaderGap="24.25" origLeaderSecureGap="17.36" latGap="None"/>
    <change id="main.90" type="passenger_pushy" time="108.00" from="beg_1" to="beg_0" dir="-1" speed="7.80" pos="221.95" reason="sublane" leaderGap="12.90" leaderSecureGap="3.80" followerGap="10.30" followerSecureGap="2.60" origLeaderGap="29.46" origLeaderSecureGap="1.77" latGap="None"/>
    <change id="ramp.50" type="passenger_pushy" time="110.00" from="merge_0" to="merge_1" dir="1" speed="4.98" pos="44.39" reason="strategic|urgent" leaderGap="9.77" leaderSecureGap="5.45" followerGap="10.12" followerSecureGap="2.48" origLeaderGap="None" origLeaderSecureGap="None" latGap="None"/>
    <change id="main.85" type="passenger_pushy" time="111.00" from="beg_0" to="beg_1" dir="1" speed="12.10" pos="274.24" reason="speedGain" leaderGap="14.98" leaderSecureGap="11.35" followerGap="14.61" followerSecureGap="10.76" origLeaderGap="36.86" origLeaderSecureGap="22.27" latGap="None"/>
    <change id="main.81" type="passenger_pushy" time="113.00" from="merge_1" to="merge_2" dir="1" speed="15.56" pos="35.57" reason="cooperative|urgent" leaderGap="24.74" leaderSecureGap="0.00" followerGap="18.06" followerSecureGap="13.66" origLeaderGap="13.48" origLeaderSecureGap="35.22" latGap="None"/>
    <change id="ramp.49" type="passenger" time="114.00" from="merge_0" to="merge_1" dir="1" speed="6.69" pos="114.01" reason="strategic|urgent" leaderGap="68.25" leaderSecureGap="0.00" followerGap="9.19" followerSecureGap="4.75" origLeaderGap="None" origLeaderSecureGap="None" latGap="1.70"/>
    <change id="ramp.51" type="passenger_pushy" time="114.00" from="merge_0" to="merge_1" dir="1" speed="4.77" pos="49.86" reason="strategic|urgent" leaderGap="10.28" leaderSecureGap="3.96" followerGap="12.68" followerSecureGap="0.00" origLeaderGap="None" origLeaderSecureGap="None" latGap="2.40"/>
    <change id="main.90" type="passenger_pushy" time="115.00" from="merge_1" to="merge_2" dir="1" speed="10.58" pos="15.60" reason="cooperative|urgent" leaderGap="25.63" leaderSecureGap="0.00" followerGap="18.55" followerSecureGap="7.68" origLeaderGap="35.94" origLeaderSecureGap="16.07" latGap="None"/>
    <change id="ramp.54" type="motorcycle" time="115.00" from="merge_0" to="merge_1" dir="1" speed="6.14" pos="15.05" reason="strategic|urgent" leaderGap="36.50" leaderSecureGap="6.14" followerGap="37.91" followerSecureGap="23.95" origLeaderGap="5.53" origLeaderSecureGap="6.14" latGap="2.55"/>
    <change id="main.108" type="motorcycle" time="117.00" from="merge_1" to="merge_2" dir="1" speed="8.96" pos="46.46" reason="cooperative|urgent" leaderGap="36.32" leaderSecureGap="0.00" followerGap="13.19" followerSecureGap="7.95" origLeaderGap="7.28" origLeaderSecureGap="8.96" latGap="None"/>
    <change id="ramp.52" type="passenger" time="118.00" from="merge_0" to="merge_1" dir="1" speed="7.06" pos="65.81" reason="strategic|urgent" leaderGap="11.68" leaderSecureGap="5.92" followerGap="14.43" followerSecureGap="6.82" origLeaderGap="None" origLeaderSecureGap="None" latGap="None"/>
    <change id="ramp.53" type="passenger" time="118.00" from="merge_0" to="merge_1" dir="1" speed="6.94" pos="46.38" reason="strategic|urgent" leaderGap="14.43" leaderSecureGap="6.82" followerGap="9.92" followerSecureGap="2.14" origLeaderGap="None" origLeaderSecureGap="None" latGap="None"/>
    <change id="main.81" type="passenger_pushy" time="119.00" from="end_1" to="end_0" dir="-1" speed="28.18" pos="55.53" reason="sublane" leaderGap="34.64" leaderSecureGap="14.22" followerGap="13.41" followerSecureGap="0.00" origLeaderGap="31.12" origLeaderSecureGap="19.21" latGap="None"/>
    <change id="main.90" type="passenger_pushy" time="119.00" from="merge_2" to="merge_1" dir="-1" speed="10.20" pos="48.86" reason="cooperative|urgent" leaderGap="35.40" leaderSecureGap="14.81" followerGap="13.34" followerSecureGap="5.08" origLeaderGap="None" origLeaderSecureGap="None" latGap="1.00"/>
    <change id="ramp.51" type="passenger_pushy" time="120.00" from="merge_1" to="merge_2" dir="1" speed="6.07" pos="95.33" reason="speedGain" leaderGap="11.82" leaderSecureGap="0.00" followerGap="28.67" followerSecureGap="23.32" origLeaderGap="10.74" origLeaderSecureGap="7.64" latGap="None"/>
    <change id="main.85" type="passenger_pushy" time="121.00" from="end_1" to="end_0" dir="-1" speed="29.52" pos="77.55" reason="sublane" leaderGap="None" leaderSecureGap="None" followerGap="27.16" followerSecureGap="0.00" origLeaderGap="None" origLeaderSecureGap="None" latGap="None"/>
    <change id="main.103" type="truck" time="121.00" from="merge_1" to="merge_2" dir="1" speed="10.41" pos="33.43" reason="sublane" leaderGap="14.08" leaderSecureGap="8.07" followerGap="12.98" followerSecureGap="4.79" origLeaderGap="None" origLeaderSecureGap="None" latGap="None"/>
    <change id="ramp.55" type="motorcycle" time="122.00" from="merge_0" to="merge_1" dir="1" speed="6.53" pos="62.50" reason="strategic|urgent" leaderGap="11.59" leaderSecureGap="6.53" followerGap="9.39" followerSecureGap="10.72" origLeaderGap="None" origLeaderSecureGap="None" latGap="1.40"/>
    <change id="ramp.56" type="passenger_pushy" time="123.00" from="merge_0" to="merge_1" dir="1" speed="1.96" pos="32.52" reason="strategic|urgent" leaderGap="11.49" leaderSecureGap="1.60" followerGap="6.55" followerSecureGap="3.30" origLeaderGap="None" origLeaderSecureGap="None" latGap="2.00"/>
    <change id="ramp.57" type="passenger" time="123.00" from="merge_0" to="merge_1" dir="1" speed="3.30" pos="20.97" reason="strategic|urgent" leaderGap="6.55" leaderSecureGap="3.30" followerGap="22.18" followerSecureGap="3.37" origLeaderGap="None" origLeaderSecureGap="None" latGap="None"/>
    <change id="ramp.58" type="truck" time="126.00" from="merge_0" to="merge_1" dir="1" speed="3.08" pos="18.58" reason="strategic|urgent" leaderGap="11.27" leaderSecureGap="0.36" followerGap="15.69" followerSecureGap="0.00" origLeaderGap="None" origLeaderSecureGap="None" latGap="None"/>
    <change id="main.103" type="truck" time="128.00" from="merge_2" to="merge_1" dir="-1" speed="15.71" pos="115.54" reason="sublane" leaderGap="19.28" leaderSecureGap="12.50" followerGap="18.22" followerSecureGap="11.92" origLeaderGap="None" origLeaderSecureGap="None" latGap="1.00"/>