<?xml version="1.0" encoding="UTF-8"?>

<!-- generated on Wed Jan 30 10:04:10 2019 by Eclipse SUMO Version v1_0_1+0645-93703db
This data file and the accompanying materials
are made available under the terms of the Eclipse Public License v2.0
which accompanies this distribution, and is available at
http://www.eclipse.org/legal/epl-v20.html
SPDX-License-Identifier: EPL-2.0
<configuration xmlns:xsi="http://www.w3.org/2001/XMLSchema-instance" xsi:noNamespaceSchemaLocation="http://sumo.dlr.de/xsd/sumoConfiguration.xsd">

    <input>
        <net-file value="net.net.xml"/>
        <route-files value="input_routes.rou.xml"/>
    </input>

    <output>
        <write-license value="true"/>
        <lanechange-output value="lanechanges.xml"/>
    </output>

    <processing>
        <lateral-resolution value="0.4"/>
        <default.speeddev value="0"/>
    </processing>

    <report>
        <verbose value="true"/>
        <xml-validation value="never"/>
        <duration-log.statistics value="true"/>
        <no-step-log value="true"/>
    </report>

</configuration>
-->

<lanechanges>
    <change id="ramp.0" type="passenger_pushy" time="2.00" from="merge_0" to="merge_1" dir="1" speed="24.45" pos="51.03" reason="strategic|urgent" leaderGap="8.88" leaderSecureGap="0.00" followerGap="43.12" followerSecureGap="56.69" origLeaderGap="None" origLeaderSecureGap="None" latGap="None"/>
    <change id="ramp.2" type="passenger" time="4.00" from="merge_0" to="merge_1" dir="1" speed="18.22" pos="40.71" reason="strategic|urgent" leaderGap="11.44" leaderSecureGap="0.00" followerGap="None" followerSecureGap="None" origLeaderGap="13.03" origLeaderSecureGap="26.73" latGap="None"/>
    <change id="ramp.3" type="passenger_pushy" time="5.00" from="merge_0" to="merge_1" dir="1" speed="16.92" pos="37.32" reason="strategic|urgent" leaderGap="12.36" leaderSecureGap="25.78" followerGap="109.99" followerSecureGap="140.04" origLeaderGap="34.47" origLeaderSecureGap="13.47" latGap="None"/>
    <change id="ramp.3" type="passenger_pushy" time="10.00" from="merge_1" to="merge_2" dir="1" speed="6.24" pos="97.63" reason="speedGain" leaderGap="15.74" leaderSecureGap="0.00" followerGap="37.80" followerSecureGap="55.81" origLeaderGap="4.24" origLeaderSecureGap="7.98" latGap="None"/>
    <change id="main.5" type="passenger" time="10.00" from="merge_1" to="merge_2" dir="1" speed="20.51" pos="54.83" reason="cooperative|urgent" leaderGap="37.80" leaderSecureGap="55.81" followerGap="24.28" followerSecureGap="35.92" origLeaderGap="47.04" origLeaderSecureGap="57.55" latGap="None"/>
    <change id="ramp.9" type="passenger_pushy" time="17.00" from="merge_0" to="merge_1" dir="1" speed="7.11" pos="15.72" reason="strategic|urgent" leaderGap="45.31" leaderSecureGap="0.00" followerGap="156.17" followerSecureGap="153.29" origLeaderGap="12.21" origLeaderSecureGap="4.62" latGap="0.90"/>
    <change id="ramp.4" type="motorcycle" time="19.00" from="merge_0" to="merge_1" dir="1" speed="0.00" pos="109.29" reason="strategic|urgent" leaderGap="2.50" leaderSecureGap="0.00" followerGap="2.80" followerSecureGap="0.00" origLeaderGap="None" origLeaderSecureGap="None" latGap="None"/>
    <change id="ramp.1" type="passenger" time="22.00" from="merge_0" to="merge_1" dir="1" speed="0.00" pos="116.79" reason="strategic|urgent" leaderGap="19.49" leaderSecureGap="0.00" followerGap="2.50" followerSecureGap="0.00" origLeaderGap="None" origLeaderSecureGap="None" latGap="None"/>
    <change id="main.17" type="passenger_pushy" time="25.00" from="merge_1" to="merge_2" dir="1" speed="12.01" pos="39.96" reason="cooperative|urgent" leaderGap="3.51" leaderSecureGap="0.00" followerGap="None" followerSecureGap="None" origLeaderGap="6.77" origLeaderSecureGap="19.97" latGap="None"/>
    <change id="main.22" type="motorcycle" time="25.00" from="beg_0" to="beg_1" dir="1" speed="19.37" pos="288.31" reason="speedGain" leaderGap="18.26" leaderSecureGap="22.83" followerGap="None" followerSecureGap="None" origLeaderGap="5.71" origLeaderSecureGap="28.28" latGap="None"/>
    <change id="ramp.6" type="motorcycle" time="26.00" from="merge_0" to="merge_1" dir="1" speed="0.00" pos="104.59" reason="strategic|urgent" leaderGap="10.30" leaderSecureGap="0.00" followerGap="3.32" followerSecureGap="0.00" origLeaderGap="None" origLeaderSecureGap="None" latGap="None"/>
    <change id="main.15" type="passenger_pushy" time="26.00" from="merge_1" to="merge_2" dir="1" speed="1.43" pos="64.11" reason="speedGain" leaderGap="3.35" leaderSecureGap="1.43" followerGap="11.64" followerSecureGap="10.52" origLeaderGap="None" origLeaderSecureGap="None" latGap="None"/>
    <change id="ramp.10" type="passenger" time="26.00" from="merge_0" to="merge_1" dir="1" speed="3.45" pos="55.18" reason="strategic|urgent" leaderGap="3.93" leaderSecureGap="3.45" followerGap="5.95" followerSecureGap="9.62" origLeaderGap="12.83" origLeaderSecureGap="3.45" latGap="2.10"/>
    <change id="main.16" type="motorcycle" time="26.00" from="merge_1" to="merge_2" dir="1" speed="0.00" pos="55.18" reason="speedGain" leaderGap="3.93" leaderSecureGap="0.00" followerGap="5.51" followerSecureGap="10.52" origLeaderGap="None" origLeaderSecureGap="None" latGap="None"/>
    <change id="ramp.11" type="passenger_pushy" time="26.00" from="merge_0" to="merge_1" dir="1" speed="7.06" pos="44.23" reason="strategic|urgent" leaderGap="5.95" leaderSecureGap="9.62" followerGap="22.19" followerSecureGap="7.56" origLeaderGap="23.79" origLeaderSecureGap="9.62" latGap="None"/>
    <change id="main.14" type="passenger_pushy" time="27.00" from="merge_1" to="merge_2" dir="1" speed="0.38" pos="72.85" reason="cooperative|urgent" leaderGap="4.72" leaderSecureGap="0.38" followerGap="2.88" followerSecureGap="0.85" origLeaderGap="35.54" origLeaderSecureGap="0.38" latGap="None"/>
    <change id="ramp.12" type="motorcycle" time="27.00" from="merge_0" to="merge_1" dir="1" speed="4.81" pos="34.48" reason="strategic|urgent" leaderGap="8.20" leaderSecureGap="4.81" followerGap="9.03" followerSecureGap="7.92" origLeaderGap="33.54" origLeaderSecureGap="4.81" latGap="1.70"/>
    <change id="ramp.13" type="passenger_pushy" time="27.00" from="merge_0" to="merge_1" dir="1" speed="6.21" pos="23.25" reason="strategic|urgent" leaderGap="9.03" leaderSecureGap="7.92" followerGap="75.81" followerSecureGap="71.02" origLeaderGap="44.76" origLeaderSecureGap="7.92" latGap="None"/>
    <change id="main.8" type="truck" time="28.00" from="merge_1" to="merge_2" dir="1" speed="0.00" pos="101.67" reason="cooperative|urgent" leaderGap="None" leaderSecureGap="None" followerGap="2.50" followerSecureGap="2.60" origLeaderGap="None" origLeaderSecureGap="None" latGap="None"/>
    <change id="ramp.5" type="motorcycle" time="29.00" from="merge_0" to="merge_1" dir="1" speed="0.00" pos="116.79" reason="strategic|urgent" leaderGap="11.60" leaderSecureGap="0.00" followerGap="35.63" followerSecureGap="4.27" origLeaderGap="None" origLeaderSecureGap="None" latGap="None"/>
    <change id="main.9" type="passenger_pushy" time="29.00" from="merge_1" to="merge_2" dir="1" speed="0.00" pos="92.67" reason="speedGain" leaderGap="5.10" leaderSecureGap="0.00" followerGap="2.50" followerSecureGap="2.60" origLeaderGap="21.92" origLeaderSecureGap="0.00" latGap="None"/>
    <change id="ramp.8" type="passenger" time="29.00" from="merge_0" to="merge_1" dir="1" speed="4.27" pos="78.96" reason="strategic|urgent" leaderGap="35.63" leaderSecureGap="4.27" followerGap="6.77" followerSecureGap="1.77" origLeaderGap="24.60" origLeaderSecureGap="4.27" latGap="1.70"/>
    <change id="ramp.7" type="passenger" time="31.00" from="merge_0" to="merge_1" dir="1" speed="2.07" pos="112.66" reason="strategic|urgent" leaderGap="19.93" leaderSecureGap="0.07" followerGap="28.70" followerSecureGap="0.00" origLeaderGap="None" origLeaderSecureGap="None" latGap="None"/>
    <change id="ramp.15" type="passenger_pushy" time="31.00" from="merge_0" to="merge_1" dir="1" speed="11.21" pos="15.72" reason="strategic|urgent" leaderGap="24.40" leaderSecureGap="20.13" followerGap="79.55" followerSecureGap="68.56" origLeaderGap="None" origLeaderSecureGap="None" latGap="0.90"/>
    <change id="ramp.9" type="passenger_pushy" time="33.00" from="merge_1" to="merge_2" dir="1" speed="2.60" pos="74.06" reason="speedGain" leaderGap="21.71" leaderSecureGap="0.00" followerGap="5.10" followerSecureGap="0.00" origLeaderGap="40.33" origLeaderSecureGap="2.43" latGap="None"/>
    <change id="ramp.10" type="passenger" time="33.00" from="merge_1" to="merge_2" dir="1" speed="0.00" pos="63.96" reason="speedGain" leaderGap="5.10" leaderSecureGap="0.00" followerGap="2.50" followerSecureGap="0.00" origLeaderGap="3.01" origLeaderSecureGap="0.00" latGap="1.80"/>
    <change id="main.21" type="passenger" time="36.00" from="merge_1" to="merge_2" dir="1" speed="4.55" pos="63.61" reason="speedGain" leaderGap="9.65" leaderSecureGap="1.95" followerGap="7.05" followerSecureGap="2.55" origLeaderGap="3.45" origLeaderSecureGap="1.31" latGap="1.10"/>
    <change id="ramp.14" type="motorcycle" time="38.00" from="merge_0" to="merge_1" dir="1" speed="0.50" pos="116.79" reason="strategic|urgent" leaderGap="None" leaderSecureGap="None" followerGap="19.13" followerSecureGap="25.50" origLeaderGap="None" origLeaderSecureGap="None" latGap="None"/>
    <change id="ramp.19" type="passenger_pushy" time="40.00" from="merge_0" to="merge_1" dir="1" speed="6.86" pos="8.06" reason="strategic|urgent" leaderGap="15.99" leaderSecureGap="9.22" followerGap="73.97" followerSecureGap="63.24" origLeaderGap="4.86" origLeaderSecureGap="9.22" latGap="1.70"/>
    <change id="ramp.16" type="passenger_pushy" time="42.00" from="merge_0" to="merge_1" dir="1" speed="5.86" pos="51.58" reason="strategic|urgent" leaderGap="24.86" leaderSecureGap="2.81" followerGap="11.18" followerSecureGap="1.07" origLeaderGap="None" origLeaderSecureGap="None" latGap="None"/>
    <change id="ramp.18" type="passenger" time="43.00" from="merge_0" to="merge_1" dir="1" speed="5.19" pos="25.71" reason="strategic|urgent" leaderGap="8.21" leaderSecureGap="5.35" followerGap="7.69" followerSecureGap="1.91" origLeaderGap="None" origLeaderSecureGap="None" latGap="None"/>
    <change id="ramp.17" type="motorcycle" time="44.00" from="merge_0" to="merge_1" dir="1" speed="8.46" pos="52.53" reason="strategic|urgent" leaderGap="13.56" leaderSecureGap="7.40" followerGap="9.39" followerSecureGap="0.52" origLeaderGap="None" origLeaderSecureGap="None" latGap="None"/>
    <change id="main.25" type="motorcycle" time="49.00" from="merge_1" to="merge_2" dir="1" speed="9.56" pos="111.67" reason="sublane" leaderGap="70.02" leaderSecureGap="0.00" followerGap="49.73" followerSecureGap="11.27" origLeaderGap="None" origLeaderSecureGap="None" latGap="None"/>
    <change id="main.25" type="motorcycle" time="51.00" from="end_1" to="end_0" dir="-1" speed="14.76" pos="21.81" reason="sublane" leaderGap="19.86" leaderSecureGap="12.16" followerGap="41.69" followerSecureGap="8.62" origLeaderGap="26.58" origLeaderSecureGap="1.29" latGap="1.00"/>
    <change id="main.25" type="motorcycle" time="52.00" from="end_0" to="end_1" dir="1" speed="17.36" pos="39.17" reason="sublane" leaderGap="35.93" leaderSecureGap="1.29" followerGap="68.05" followerSecureGap="1.58" origLeaderGap="22.46" origLeaderSecureGap="14.76" latGap="0.95"/>
    <change id="ramp.20" type="passenger" time="54.00" from="merge_0" to="merge_1" dir="1" speed="4.43" pos="62.80" reason="strategic|urgent" leaderGap="11.07" leaderSecureGap="0.00" followerGap="7.19" followerSecureGap="8.76" origLeaderGap="None" origLeaderSecureGap="None" latGap="None"/>
    <change id="ramp.21" type="passenger" time="54.00" from="merge_0" to="merge_1" dir="1" speed="6.37" pos="19.06" reason="strategic|urgent" leaderGap="12.42" leaderSecureGap="3.92" followerGap="11.08" followerSecureGap="0.00" origLeaderGap="None" origLeaderSecureGap="None" latGap="None"/>
    <change id="ramp.22" type="passenger" time="58.00" from="merge_0" to="merge_1" dir="1" speed="5.09" pos="32.65" reason="strategic|urgent" leaderGap="9.51" leaderSecureGap="2.98" followerGap="10.28" followerSecureGap="7.31" origLeaderGap="None" origLeaderSecureGap="None" latGap="None"/>
    <change id="ramp.24" type="passenger_pushy" time="60.00" from="merge_0" to="merge_1" dir="1" speed="5.09" pos="17.65" reason="strategic|urgent" leaderGap="9.61" leaderSecureGap="3.07" followerGap="6.38" followerSecureGap="2.01" origLeaderGap="None" origLeaderSecureGap="None" latGap="1.20"/>
    <change id="ramp.23" type="passenger" time="61.00" from="merge_0" to="merge_1" dir="1" speed="9.66" pos="41.91" reason="strategic|urgent" leaderGap="14.75" leaderSecureGap="4.47" followerGap="12.16" followerSecureGap="3.90" origLeaderGap="None" origLeaderSecureGap="None" latGap="None"/>
    <change id="ramp.25" type="passenger_pushy" time="63.00" from="merge_0" to="merge_1" dir="1" speed="11.92" pos="22.39" reason="strategic|urgent" leaderGap="19.27" leaderSecureGap="11.25" followerGap="14.15" followerSecureGap="0.00" origLeaderGap="None" origLeaderSecureGap="None" latGap="1.30"/>
    <change id="ramp.26" type="passenger_pushy" time="64.00" from="merge_0" to="merge_1" dir="1" speed="6.76" pos="11.94" reason="strategic|urgent" leaderGap="19.14" leaderSecureGap="0.00" followerGap="2.84" followerSecureGap="0.00" origLeaderGap="None" origLeaderSecureGap="None" latGap="None"/>
    <change id="ramp.27" type="passenger" time="68.00" from="merge_0" to="merge_1" dir="1" speed="12.86" pos="37.44" reason="strategic|urgent" leaderGap="42.41" leaderSecureGap="6.32" followerGap="26.77" followerSecureGap="0.00" origLeaderGap="None" origLeaderSecureGap="None" latGap="None"/>
    <change id="ramp.28" type="passenger" time="70.00" from="merge_0" to="merge_1" dir="1" speed="8.99" pos="25.36" reason="strategic|urgent" leaderGap="14.64" leaderSecureGap="0.57" followerGap="10.27" followerSecureGap="0.00" origLeaderGap="None" origLeaderSecureGap="None" latGap="None"/>
    <change id="ramp.30" type="passenger" time="76.00" from="merge_0" to="merge_1" dir="1" speed="11.18" pos="50.50" reason="strategic|urgent" leaderGap="12.31" leaderSecureGap="7.38" followerGap="14.55" followerSecureGap="0.00" origLeaderGap="None" origLeaderSecureGap="None" latGap="None"/>
    <change id="main.51" type="passenger_pushy" time="80.00" from="merge_1" to="merge_2" dir="1" speed="6.52" pos="27.21" reason="speedGain" leaderGap="27.02" leaderSecureGap="7.40" followerGap="10.37" followerSecureGap="5.24" origLeaderGap="1.78" origLeaderSecureGap="5.36" latGap="None"/>
    <change id="ramp.29" type="passenger" time="84.00" from="merge_0" to="merge_1" dir="1" speed="4.82" pos="102.35" reason="strategic|urgent" leaderGap="12.93" leaderSecureGap="0.00" followerGap="7.96" followerSecureGap="0.00" origLeaderGap="None" origLeaderSecureGap="None" latGap="None"/>
    <change id="main.52" type="passenger" time="88.00" from="merge_1" to="merge_2" dir="1" speed="0.89" pos="44.68" reason="speedGain" leaderGap="2.50" leaderSecureGap="0.89" followerGap="13.27" followerSecureGap="0.70" origLeaderGap="3.80" origLeaderSecureGap="0.89" latGap="1.80"/>
    <change id="ramp.35" type="motorcycle" time="88.00" from="merge_0" to="merge_1" dir="1" speed="0.04" pos="37.58" reason="strategic|urgent" leaderGap="10.91" leaderSecureGap="0.04" followerGap="2.54" followerSecureGap="5.05" origLeaderGap="36.40" origLeaderSecureGap="0.04" latGap="1.80"/>
    <change id="ramp.34" type="motorcycle" time="88.00" from="merge_0" to="merge_1" dir="1" speed="5.05" pos="32.84" reason="strategic|urgent" leaderGap="2.54" leaderSecureGap="5.05" followerGap="22.89" followerSecureGap="3.21" origLeaderGap="41.14" origLeaderSecureGap="5.05" latGap="None"/>
    <change id="ramp.37" type="passenger_pushy" time="88.00" from="merge_0" to="merge_1" dir="1" speed="3.21" pos="7.75" reason="strategic|urgent" leaderGap="22.89" leaderSecureGap="3.21" followerGap="65.07" followerSecureGap="9.37" origLeaderGap="66.23" origLeaderSecureGap="3.21" latGap="0.80"/>
    <change id="main.45" type="passenger" time="89.00" from="merge_1" to="merge_2" dir="1" speed="0.00" pos="78.27" reason="cooperative|urgent" leaderGap="23.12" leaderSecureGap="0.00" followerGap="10.99" followerSecureGap="0.00" origLeaderGap="None" origLeaderSecureGap="None" latGap="1.80"/>
    <change id="ramp.32" type="passenger" time="89.00" from="merge_0" to="merge_1" dir="1" speed="0.66" pos="70.54" reason="strategic|urgent" leaderGap="30.85" leaderSecureGap="0.00" followerGap="3.26" followerSecureGap="2.50" origLeaderGap="7.41" origLeaderSecureGap="0.66" latGap="None"/>
    <change id="ramp.31" type="passenger" time="91.00" from="merge_0" to="merge_1" dir="1" speed="9.09" pos="98.61" reason="strategic|urgent" leaderGap="None" leaderSecureGap="None" followerGap="15.56" followerSecureGap="0.93" origLeaderGap="None" origLeaderSecureGap="None" latGap="None"/>
    <change id="ramp.33" type="truck" time="92.00" from="merge_0" to="merge_1" dir="1" speed="2.09" pos="60.24" reason="strategic|urgent" leaderGap="8.11" leaderSecureGap="2.09" followerGap="4.69" followerSecureGap="0.57" origLeaderGap="None" origLeaderSecureGap="None" latGap="1.92"/>
    <change id="main.45" type="passenger" time="93.00" from="merge_2" to="merge_1" dir="-1" speed="9.00" pos="98.66" reason="sublane" leaderGap="15.73" leaderSecureGap="3.62" followerGap="4.07" followerSecureGap="0.00" origLeaderGap="None" origLeaderSecureGap="None" latGap="None"/>
    <change id="ramp.38" type="passenger_pushy" time="94.00" from="merge_0" to="merge_1" dir="1" speed="2.60" pos="8.11" reason="strategic|urgent" leaderGap="15.35" leaderSecureGap="0.00" followerGap="69.24" followerSecureGap="8.41" origLeaderGap="None" origLeaderSecureGap="None" latGap="None"/>
    <change id="main.48" type="passenger" time="95.00" from="merge_1" to="merge_2" dir="1" speed="4.10" pos="88.16" reason="speedGain" leaderGap="None" leaderSecureGap="None" followerGap="19.35" followerSecureGap="4.52" origLeaderGap="None" origLeaderSecureGap="None" latGap="None"/>
    <change id="ramp.36" type="passenger" time="101.00" from="merge_0" to="merge_1" dir="1" speed="9.65" pos="107.14" reason="strategic|urgent" leaderGap="23.62" leaderSecureGap="0.00" followerGap="18.44" followerSecureGap="9.32" origLeaderGap="None" origLeaderSecureGap="None" latGap="None"/>
    <change id="ramp.39" type="passenger" time="106.00" from="merge_0" to="merge_1" dir="1" speed="7.33" pos="102.14" reason="strategic|urgent" leaderGap="None" leaderSecureGap="None" followerGap="11.77" followerSecureGap="5.39" origLeaderGap="None" origLeaderSecureGap="None" latGap="None"/>
    <change id="ramp.40" type="passenger" time="108.00" from="merge_0" to="merge_1" dir="1" speed="2.60" pos="81.28" reason="strategic|urgent" leaderGap="15.20" leaderSecureGap="0.00" followerGap="5.10" followerSecureGap="0.00" origLeaderGap="None" origLeaderSecureGap="None" latGap="2.10"/>
    <change id="ramp.41" type="passenger" time="109.00" from="merge_0" to="merge_1" dir="1" speed="2.60" pos="73.78" reason="strategic|urgent" leaderGap="7.70" leaderSecureGap="1.90" followerGap="5.20" followerSecureGap="1.15" origLeaderGap="None" origLeaderSecureGap="None" latGap="None"/>
    <change id="ramp.45" type="passenger_pushy" time="109.00" from="merge_0" to="merge_1" dir="1" speed="14.17" pos="21.35" reason="strategic|urgent" leaderGap="40.03" leaderSecureGap="29.68" followerGap="20.47" followerSecureGap="1.03" origLeaderGap="8.95" origLeaderSecureGap="20.55" latGap="0.90"/>
    <change id="ramp.38" type="passenger_pushy" time="110.00" from="merge_1" to="merge_2" dir="1" speed="1.47" pos="54.57" reason="cooperative|urgent" leaderGap="6.23" leaderSecureGap="1.47" followerGap="3.97" followerSecureGap="1.04" origLeaderGap="8.15" origLeaderSecureGap="1.47" latGap="None"/>
    <change id="ramp.43" type="passenger" time="113.00" from="merge_0" to="merge_1" dir="1" speed="1.31" pos="60.69" reason="strategic|urgent" leaderGap="3.86" leaderSecureGap="1.31" followerGap="6.45" followerSecureGap="2.60" origLeaderGap="20.10" origLeaderSecureGap="0.00" latGap="2.10"/>
    <change id="ramp.42" type="truck" time="116.00" from="merge_0" to="merge_1" dir="1" speed="4.89" pos="105.40" reason="strategic|urgent" leaderGap="None" leaderSecureGap="None" followerGap="12.15" followerSecureGap="2.00" origLeaderGap="None" origLeaderSecureGap="None" latGap="None"/>
    <change id="ramp.46" type="motorcycle" time="117.00" from="merge_0" to="merge_1" dir="1" speed="1.18" pos="46.73" reason="strategic|urgent" leaderGap="45.83" leaderSecureGap="1.18" followerGap="3.68" followerSecureGap="1.37" origLeaderGap="6.28" origLeaderSecureGap="1.18" latGap="2.15"/>
    <change id="ramp.44" type="truck" time="120.00" from="merge_0" to="merge_1" dir="1" speed="6.89" pos="72.66" reason="strategic|urgent" leaderGap="9.32" leaderSecureGap="6.37" followerGap="9.39" followerSecureGap="2.86" origLeaderGap="None" origLeaderSecureGap="None" latGap="None"/>
    <change id="main.63" type="passenger" time="120.00" from="merge_1" to="merge_2" dir="1" speed="1.90" pos="44.73" reason="sublane" leaderGap="7.00" leaderSecureGap="1.90" followerGap="4.40" followerSecureGap="3.70" origLeaderGap="None" origLeaderSecureGap="None" latGap="0.40"/>
    <change id="main.61" type="passenger" time="122.00" from="merge_1" to="merge_2" dir="1" speed="5.73" pos="69.57" reason="speedGain" leaderGap="15.43" leaderSecureGap="0.00" followerGap="8.24" followerSecureGap="8.47" origLeaderGap="None" origLeaderSecureGap="None" latGap="None"/>
    <change id="main.72" type="passenger_pushy" time="122.00" from="merge_1" to="merge_2" dir="1" speed="2.60" pos="2.73" reason="speedGain" leaderGap="5.28" leaderSecureGap="2.60" followerGap="60.73" followerSecureGap="43.49" origLeaderGap="8.41" origLeaderSecureGap="2.60" latGap="None"/>
    <change id="main.61" type="passenger" time="123.00" from="merge_2" to="merge_1" dir="-1" speed="8.33" pos="77.90" reason="sublane" leaderGap="12.57" leaderSecureGap="6.67" followerGap="8.86" followerSecureGap="4.71" origLeaderGap="None" origLeaderSecureGap="None" latGap="1.20"/>
    <change id="ramp.51" type="passenger_pushy" time="123.00" from="merge_0" to="merge_1" dir="1" speed="0.26" pos="4.78" reason="strategic|urgent" leaderGap="2.50" leaderSecureGap="0.26" followerGap="16.14" followerSecureGap="0.00" origLeaderGap="11.05" origLeaderSecureGap="0.26" latGap="2.10"/>
    <change id="main.71" type="truck" time="124.00" from="merge_1" to="merge_2" dir="1" speed="5.38" pos="22.67" reason="speedGain" leaderGap="10.85" leaderSecureGap="3.44" followerGap="7.88" followerSecureGap="2.74" origLeaderGap="43.49" origLeaderSecureGap="3.64" latGap="None"/>
    <change id="main.72" type="passenger_pushy" time="124.00" from="merge_2" to="merge_1" dir="-1" speed="3.61" pos="8.29" reason="sublane" leaderGap="7.88" leaderSecureGap="2.74" followerGap="8.06" followerSecureGap="0.00" origLeaderGap="0.71" origLeaderSecureGap="0.00" latGap="2.20"/>
    <change id="main.68" type="passenger" time="126.00" from="merge_1" to="merge_2" dir="1" speed="9.69" pos="72.59" reason="sublane" leaderGap="8.53" leaderSecureGap="0.00" followerGap="12.91" followerSecureGap="7.70" origLeaderGap="12.11" origLeaderSecureGap="8.60" latGap="None"/>
    <change id="ramp.47" type="passenger" time="126.00" from="merge_0" to="merge_1" dir="1" speed="4.05" pos="58.96" reason="strategic|urgent" leaderGap="10.81" leaderSecureGap="4.05" followerGap="16.29" followerSecureGap="0.00" origLeaderGap="None" origLeaderSecureGap="None" latGap="None"/>
    <change id="ramp.48" type="motorcycle" time="126.00" from="merge_0" to="merge_1" dir="1" speed="5.67" pos="47.41" reason="strategic|urgent" leaderGap="6.55" leaderSecureGap="5.67" followerGap="7.54" followerSecureGap="0.00" origLeaderGap="None" origLeaderSecureGap="None" latGap="2.10"/>
    <change id="ramp.50" type="passenger_pushy" time="126.00" from="merge_0" to="merge_1" dir="1" speed="0.00" pos="12.28" reason="strategic|urgent" leaderGap="3.09" leaderSecureGap="0.00" followerGap="2.50" followerSecureGap="0.00" origLeaderGap="18.85" origLeaderSecureGap="0.00" latGap="None"/>
    <change id="main.71" type="truck" time="127.00" from="merge_2" to="merge_1" dir="-1" speed="9.11" pos="47.01" reason="sublane" leaderGap="9.90" leaderSecureGap="11.11" followerGap="2.84" followerSecureGap="0.00" origLeaderGap="0.82" origLeaderSecureGap="0.00" latGap="1.40"/>
    <change id="ramp.51" type="passenger_pushy" time="131.00" from="merge_1" to="merge_2" dir="1" speed="5.20" pos="13.17" reason="speedGain" leaderGap="9.95" leaderSecureGap="5.12" followerGap="7.88" followerSecureGap="1.72" origLeaderGap="None" origLeaderSecureGap="None" latGap="None"/>
    <change id="main.97" type="motorcycle" time="132.00" from="merge_1" to="merge_2" dir="1" speed="0.00" pos="46.71" reason="sublane" leaderGap="27.71" leaderSecureGap="0.00" followerGap="2.50" followerSecureGap="0.20" origLeaderGap="5.20" origLeaderSecureGap="0.00" latGap="None"/>
    <change id="main.72" type="passenger_pushy" time="132.00" from="merge_1" to="merge_2" dir="1" speed="0.20" pos="42.01" reason="speedGain" leaderGap="2.50" leaderSecureGap="0.20" followerGap="2.70" followerSecureGap="4.90" origLeaderGap="None" origLeaderSecureGap="None" latGap="None"/>
    <change id="main.109" type="passenger_pushy" time="133.00" from="beg_0" to="beg_1" dir="1" speed="0.59" pos="257.15" reason="speedGain" leaderGap="2.50" leaderSecureGap="0.59" followerGap="3.09" followerSecureGap="3.24" origLeaderGap="None" origLeaderSecureGap="None" latGap="None"/>
    <change id="main.113" type="passenger_pushy" time="133.00" from="beg_0" to="beg_1" dir="1" speed="3.24" pos="249.06" reason="speedGain" leaderGap="3.09" leaderSecureGap="3.24" followerGap="18.44" followerSecureGap="2.60" origLeaderGap="None" origLeaderSecureGap="None" latGap="None"/>
    <change id="ramp.49" type="passenger" time="134.00" from="merge_0" to="merge_1" dir="1" speed="7.80" pos="69.91" reason="strategic|urgent" leaderGap="33.36" leaderSecureGap="0.00" followerGap="12.20" followerSecureGap="0.00" origLeaderGap="None" origLeaderSecureGap="None" latGap="None"/>
    <change id="main.120" type="passenger_pushy" time="134.00" from="beg_0" to="beg_1" dir="1" speed="0.00" pos="208.01" reason="speedGain" leaderGap="5.10" leaderSecureGap="0.00" followerGap="2.50" followerSecureGap="2.60" origLeaderGap="28.55" origLeaderSecureGap="0.00" latGap="None"/>
    <change id="main.114" type="passenger_pushy" time="134.00" from="beg_0" to="beg_1" dir="1" speed="2.60" pos="200.51" reason="speedGain" leaderGap="2.50" leaderSecureGap="2.60" followerGap="22.83" followerSecureGap="9.96" origLeaderGap="36.05" origLeaderSecureGap="2.60" latGap="None"/>
    <change id="main.126" type="passenger_pushy" time="134.00" from="beg_0" to="beg_1" dir="1" speed="2.25" pos="190.41" reason="speedGain" leaderGap="5.10" leaderSecureGap="2.25" followerGap="12.73" followerSecureGap="9.96" origLeaderGap="46.15" origLeaderSecureGap="2.25" latGap="2.00"/>
    <change id="main.130" type="passenger_pushy" time="134.00" from="beg_0" to="beg_1" dir="1" speed="3.44" pos="182.91" reason="speedGain" leaderGap="2.50" leaderSecureGap="3.44" followerGap="5.23" followerSecureGap="9.96" origLeaderGap="53.65" origLeaderSecureGap="3.44" latGap="None"/>
    <change id="main.116" type="passenger_pushy" time="135.00" from="beg_0" to="beg_1" dir="1" speed="3.24" pos="234.06" reason="speedGain" leaderGap="10.59" leaderSecureGap="3.24" followerGap="5.74" followerSecureGap="5.90" origLeaderGap="3.09" origLeaderSecureGap="3.24" latGap="None"/>
    <change id="main.117" type="passenger" time="135.00" from="beg_0" to="beg_1" dir="1" speed="5.20" pos="223.31" reason="speedGain" leaderGap="5.74" leaderSecureGap="5.90" followerGap="7.70" followerSecureGap="1.90" origLeaderGap="13.83" origLeaderSecureGap="5.90" latGap="1.80"/>
    <change id="ramp.51" type="passenger_pushy" time="136.00" from="merge_2" to="merge_1" dir="-1" speed="2.60" pos="28.11" reason="sublane" leaderGap="7.70" leaderSecureGap="1.90" followerGap="16.07" followerSecureGap="2.60" origLeaderGap="27.39" origLeaderSecureGap="0.00" latGap="None"/>
    <change id="ramp.54" type="motorcycle" time="136.00" from="merge_0" to="merge_1" dir="1" speed="4.11" pos="4.53" reason="strategic|urgent" leaderGap="5.61" leaderSecureGap="4.11" followerGap="49.47" followerSecureGap="0.00" origLeaderGap="15.58" origLeaderSecureGap="4.11" latGap="1.75"/>
    <change id="main.105" type="passenger" time="137.00" from="beg_0" to="beg_1" dir="1" speed="0.00" pos="278.73" reason="speedGain" leaderGap="5.10" leaderSecureGap="0.00" followerGap="2.50" followerSecureGap="0.67" origLeaderGap="None" origLeaderSecureGap="None" latGap="1.40"/>
    <change id="ramp.53" type="passenger" time="138.00" from="merge_0" to="merge_1" dir="1" speed="3.34" pos="20.94" reason="strategic|urgent" leaderGap="3.89" leaderSecureGap="3.34" followerGap="11.41" followerSecureGap="0.00" origLeaderGap="None" origLeaderSecureGap="None" latGap="2.10"/>
    <change id="main.97" type="motorcycle" time="139.00" from="end_1" to="end_0" dir="-1" speed="27.96" pos="69.22" reason="sublane" leaderGap="None" leaderSecureGap="None" followerGap="35.90" followerSecureGap="33.07" origLeaderGap="None" origLeaderSecureGap="None" latGap="None"/>
    <change id="ramp.52" type="passenger" time="139.00" from="merge_0" to="merge_1" dir="1" speed="3.99" pos="33.83" reason="strategic|urgent" leaderGap="12.88" leaderSecureGap="0.64" followerGap="7.19" followerSecureGap="0.70" origLeaderGap="None" origLeaderSecureGap="None" latGap="None"/>
    <change id="main.87" type="passenger" time="139.00" from="merge_1" to="merge_2" dir="1" speed="5.06" pos="15.07" reason="speedGain" leaderGap="10.50" leaderSecureGap="5.62" followerGap="7.56" followerSecureGap="1.90" origLeaderGap="1.57" origLeaderSecureGap="5.62" latGap="None"/>