<?xml version="1.0" encoding="UTF-8"?>

<!-- generated on 2026-04-28 23:34:36.509578 by Eclipse SUMO gtfs2pt.py v1_26_0+1423-ca0ca01ec6c
<configuration>
    <merged-csv value="data/data.csv"/>
    <human-readable-time value="True"/>
    <network value="data/osm.net.xml.gz"/>
    <sort value="True"/>
    <stops value="data/osm_stops.add.xml"/>
    <rail-priority-factor value="5.0"/>
    <radius value="500.0"/>
    <remove-detour-factor value="5.0"/>
    <mapperlib value="tracemapper"/>
</configuration>
-->

<routes xmlns:xsi="http://www.w3.org/2001/XMLSchema-instance" xsi:noNamespaceSchemaLocation="http://sumo.dlr.de/xsd/routes_file.xsd">
    <route id="109241" edges="1198308222">
        <stop busStop="109241.6" duration="00:00:10" until="00:00:00"/> <!-- Alt-Schmöckwitz (Berlin) -->
    </route>
    <route id="109242" edges="1198308222">
        <stop busStop="109242.0" duration="00:00:10" until="00:00:00"/> <!-- Alt-Schmöckwitz (Berlin) -->
    </route>
    <route id="109244" edges="837291681 240389771 -4045248#0 -124266876#4 -124266876#3 -124266876#2 -124266876#1 -124266876#0 -797340923 1008258219 -785407797 -797340925#1 -797340925#0 -4045247#3 -4045247#2 -4045247#1 -4045247#0 4068154#0 4068154#1 4068154#2 4068154#3 4068154#4 355736431 1453600261 37825300 -355736433 -182599168#2 -1010110067 -240539088 -4463780#2 -4463780#1 -1013489670 1013489665#1">
        <stop busStop="109244.0" duration="00:00:10" until="00:00:00"/> <!-- S Zeuthen -->
        <stop busStop="109244.1" duration="00:00:10" until="00:04:00"/> <!-- Zeuthen, Schillerstr. -->
        <stop busStop="109244.2" duration="00:00:10" until="00:05:00"/> <!-- Zeuthen, Heinrich-Heine-Str. -->
        <stop busStop="109244.3" duration="00:00:10" until="00:06:00"/> <!-- Zeuthen, Havellandstr. -->
        <stop busStop="109244.4" duration="00:00:10" until="00:07:00"/> <!-- Eichwalde, Friedenstr. -->
        <stop busStop="109244.5" duration="00:00:10" until="00:08:00"/> <!-- Eichwalde, Tschaikowskistr. -->
        <stop busStop="109244.6" duration="00:00:10" until="00:09:00"/> <!-- Eichwalde, Schmöckwitzer Str. -->
        <stop busStop="109244.7" duration="00:00:10" until="00:10:00"/> <!-- Zum Seeblick (Berlin) -->
        <stop busStop="109244.8" duration="00:00:10" until="00:16:00"/> <!-- Alt-Schmöckwitz (Berlin) -->
    </route>
    <route id="280370" edges="1198308222 1013489670 4463780#0 4463780#2 240539088 1010110067 1013489690 1010110055 -37825300 -1010110058 -355736431 355736431 -355736431 -4068154#4 -4068154#3 -4068154#2 -4068154#1 -4068154#0 4045247#0 4045247#1 4045247#2 4045247#3 797340925#0 797340925#1 785407797 -8068171 797340923 124266877 124266876#1 124266876#2 124266876#3 124266876#4 4045248#0 4045248#1 -837291681 -810189346">
        <stop busStop="280370.6" duration="00:00:10" until="00:00:00"/> <!-- Alt-Schmöckwitz (Berlin) -->
        <stop busStop="280370.6" duration="00:00:10" until="00:05:00"/> <!-- Zum Seeblick (Berlin) -->
        <stop busStop="109244.6" duration="00:00:10" until="00:05:00"/> <!-- Eichwalde, Schmöckwitzer Str. -->
        <stop busStop="280370.9" duration="00:00:10" until="00:06:00"/> <!-- Eichwalde, Tschaikowskistr. -->
        <stop busStop="280370.10" duration="00:00:10" until="00:06:00"/> <!-- Eichwalde, Friedenstr. -->
        <stop busStop="280370.11" duration="00:00:10" until="00:07:00"/> <!-- Zeuthen, Havellandstr. -->
        <stop busStop="280370.12" duration="00:00:10" until="00:09:00"/> <!-- Zeuthen, Maxim-Gorki-Str. -->
        <stop busStop="280370.13" duration="00:00:10" until="00:11:00"/> <!-- S Zeuthen -->
    </route>
    <route id="281591" edges="1198308222 1013489670 4463780#0 4463780#2 240539088 1010110067 1013489690 1010110055 -37825300 -1010110058 -355736431 355736431 -355736431 -4068154#4 -4068154#3 -4068154#2 -4068154#1 -4068154#0 4045247#0 4045247#1 4045247#2 4045247#3 797340925#0 1015059912 8068347 203010184 1312568317 -1015030679 -1015030680 -8068346 785407797 -8068171 797340923 124266877 124266876#1 124266876#2 124266876#3 124266876#4 4045248#0 4045248#1 -837291681 -810189346">
        <stop busStop="280370.6" duration="00:00:10" until="00:00:00"/> <!-- Alt-Schmöckwitz (Berlin) -->
        <stop busStop="280370.6" duration="00:00:10" until="00:05:00"/> <!-- Zum Seeblick (Berlin) -->
        <stop busStop="109244.6" duration="00:00:10" until="00:05:00"/> <!-- Eichwalde, Schmöckwitzer Str. -->
        <stop busStop="280370.9" duration="00:00:10" until="00:06:00"/> <!-- Eichwalde, Tschaikowskistr. -->
        <stop busStop="280370.10" duration="00:00:10" until="00:07:00"/> <!-- Eichwalde, Friedenstr. -->
        <stop busStop="280370.11" duration="00:00:10" until="00:08:00"/> <!-- Zeuthen, Havellandstr. -->
        <stop busStop="281591.12" duration="00:00:10" until="00:10:00"/> <!-- Zeuthen, Seegarten -->
        <stop busStop="280370.12" duration="00:00:10" until="00:14:00"/> <!-- Zeuthen, Maxim-Gorki-Str. -->
        <stop busStop="280370.13" duration="00:00:10" until="00:16:00"/> <!-- S Zeuthen -->
    </route>
    <route id="109251" edges="-27004036#0">
    </route>
    <route id="109261" edges="-27004036#0">
    </route>
    <route id="282164" edges="-27004036#0">
    </route>
    <route id="109264" edges="-27004036#0">
    </route>
    <route id="281979" edges="-27004036#0">
    </route>
    <route id="284866" edges="-27004036#0">
    </route>
    <route id="109298" edges="4930561 -415907050 415907064#0 415907064#1 415907064#2 24275214 1419116833 782804639 -927307082 -1419116833 -24275214 -415907064#2 -415907064#1 -415907064#0 415907050 -4930561">
        <stop busStop="109298.4" duration="00:00:10" until="00:00:00"/> <!-- Schulzendorf (LDS), Puschkinstr. -->
        <stop busStop="109298.4" duration="00:00:10" until="00:02:00"/> <!-- Schulzendorf (LDS), R.-Breitscheid-Str. -->
        <stop busStop="109298.4" duration="00:00:10" until="00:10:00"/> <!-- Schulzendorf (LDS), R.-Breitscheid-Str. -->
        <stop busStop="109298.4" duration="00:00:10" until="00:12:00"/> <!-- Schulzendorf (LDS), Dohlenstieg -->
        <stop busStop="109298.4" duration="00:00:10" until="00:13:00"/> <!-- Schulzendorf (LDS), Flutgraben -->
    </route>
    <route id="109300" edges="4930561 -415907050 415907064#0 415907064#1 415907064#2 24275214 1419116833 782804639 -927307082 -1419116833 -24275214 -415907064#2 -415907064#1 -415907064#0 415907050 -4930561">
        <stop busStop="109298.4" duration="00:00:10" until="00:00:00"/> <!-- Schulzendorf (LDS), Puschkinstr. -->
        <stop busStop="109298.4" duration="00:00:10" until="00:02:00"/> <!-- Schulzendorf (LDS), R.-Breitscheid-Str. -->
        <stop busStop="109298.4" duration="00:00:10" until="00:10:00"/> <!-- Schulzendorf (LDS), R.-Breitscheid-Str. -->
        <stop busStop="109298.4" duration="00:00:10" until="00:12:00"/> <!-- Schulzendorf (LDS), Dohlenstieg -->
        <stop busStop="109298.4" duration="00:00:10" until="00:13:00"/> <!-- Schulzendorf (LDS), Flutgraben -->
    </route>
    <route id="109306" edges="782804639 -927307082 -1419116833 -24275214 -415907064#2 -415907064#1 -415907064#0 415907050 -4930561">
        <stop busStop="109306.0" duration="00:00:10" until="00:00:00"/> <!-- S Eichwalde -->
        <stop busStop="109306.1" duration="00:00:10" until="00:02:00"/> <!-- Schulzendorf (LDS), R.-Breitscheid-Str. -->
        <stop busStop="109298.4" duration="00:00:10" until="00:04:00"/> <!-- Schulzendorf (LDS), Dohlenstieg -->
        <stop busStop="109298.4" duration="00:00:10" until="00:05:00"/> <!-- Schulzendorf (LDS), Flutgraben -->
    </route>
    <route id="109328" edges="782804639 -927307082 -1419116833 -24275214 -415907064#2">
        <stop busStop="109306.0" duration="00:00:10" until="00:00:00"/> <!-- S Eichwalde -->
        <stop busStop="109306.1" duration="00:00:10" until="00:03:00"/> <!-- Schulzendorf (LDS), K.-Marx-Str. -->
    </route>
    <route id="281710" edges="4930561 -415907050 415907064#0 415907064#1 415907064#2 24275214 1419116833 782804639 -927307082 -1419116833 -24275214 -415907064#2 -415907064#1 -415907064#0 415907050 -4930561">
        <stop busStop="109298.4" duration="00:00:10" until="00:00:00"/> <!-- Schulzendorf (LDS), Puschkinstr. -->
        <stop busStop="109298.4" duration="00:00:10" until="00:02:00"/> <!-- Schulzendorf (LDS), R.-Breitscheid-Str. -->
        <stop busStop="109298.4" duration="00:00:10" until="00:10:00"/> <!-- Schulzendorf (LDS), R.-Breitscheid-Str. -->
        <stop busStop="109298.4" duration="00:00:10" until="00:12:00"/> <!-- Schulzendorf (LDS), Dohlenstieg -->
        <stop busStop="109298.4" duration="00:00:10" until="00:13:00"/> <!-- Schulzendorf (LDS), Flutgraben -->
    </route>
    <route id="284865" edges="-27004036#0">
    </route>
    <route id="281065" edges="782804639 -927307082 -1419116833 1016203847 4930555#1 4930555#2 1016264032#0 589702685#1 239924883 4930543#0 4930543#1 126100196#0 126100196#2 126100196#3 126100196#4 126654659 34607579#1 833907802 24280332#0 -24280330#1 -1322454341#5 -1322454341#4 -1322454341#3 -1322454341#2 -1322454341#1 -1322454341#0 4068154#0 -4068154#0 4045247#0 4045247#1 4045247#2 4045247#3 797340925#0 797340925#1 785407797 -8068171 797340923 124266877 124266876#1 124266876#2 124266876#3 124266876#4 4045248#0 4045248#1 -837291681 -810189346">
        <stop busStop="109306.0" duration="00:00:10" until="00:00:00"/> <!-- S Eichwalde -->
        <stop busStop="280370.10" duration="00:00:10" until="00:08:00"/> <!-- Eichwalde, Friedenstr. -->
        <stop busStop="280370.11" duration="00:00:10" until="00:09:00"/> <!-- Zeuthen, Havellandstr. -->
        <stop busStop="280370.12" duration="00:00:10" until="00:11:00"/> <!-- Zeuthen, Maxim-Gorki-Str. -->
        <stop busStop="280370.13" duration="00:00:10" until="00:12:00"/> <!-- S Zeuthen -->
    </route>
    <route id="281153" edges="4930561 -415907050 415907064#0 415907064#1 415907064#2 24275214 1419116833 782804639">
        <stop busStop="281153.1" duration="00:00:10" until="00:00:00"/> <!-- Schulzendorf (LDS), Flutgraben -->
        <stop busStop="281153.2" duration="00:00:10" until="00:01:00"/> <!-- Schulzendorf (LDS), Dohlenstieg -->
        <stop busStop="281153.2" duration="00:00:10" until="00:02:00"/> <!-- Schulzendorf (LDS), K.-Liebknecht-Str. -->
        <stop busStop="281153.4" duration="00:00:10" until="00:03:00"/> <!-- Schulzendorf (LDS), R.-Breitscheid-Str. -->
        <stop busStop="109306.0" duration="00:00:10" until="00:04:00"/> <!-- S Eichwalde -->
    </route>
    <route id="281758" edges="782804639 -927307082 -1419116833 -24275214 -415907064#2 -415907064#1 -415907064#0 415907050 -239924882 -4920483 4930561">
        <stop busStop="109306.0" duration="00:00:10" until="00:00:00"/> <!-- S Eichwalde -->
        <stop busStop="109306.1" duration="00:00:10" until="00:03:00"/> <!-- Schulzendorf (LDS), K.-Marx-Str. -->
        <stop busStop="281153.2" duration="00:00:10" until="00:07:00"/> <!-- Schulzendorf (LDS), Flutgraben -->
    </route>
    <route id="284973" edges="1198308222 1013489670 4463780#0 4463780#2 240539088 1010110067 1013489690 1010110055 -37825300 -1010110058 -355736431 355736431 -355736431 -4068154#4 -4068154#3 -4068154#2 -4068154#1 -4068154#0 4045247#0 4045247#1 4045247#2 4045247#3 797340925#0 797340925#1 785407797 -8068171 797340923 124266877 124266876#1 124266876#2 124266876#3 124266876#4 4045248#0 4045248#1 -837291681 -810189346">
        <stop busStop="280370.6" duration="00:00:10" until="00:00:00"/> <!-- Alt-Schmöckwitz (Berlin) -->
        <stop busStop="280370.6" duration="00:00:10" until="00:03:00"/> <!-- Zum Seeblick (Berlin) -->
        <stop busStop="109244.6" duration="00:00:10" until="00:03:00"/> <!-- Eichwalde, Schmöckwitzer Str. -->
        <stop busStop="280370.9" duration="00:00:10" until="00:04:00"/> <!-- Eichwalde, Tschaikowskistr. -->
        <stop busStop="280370.10" duration="00:00:10" until="00:04:00"/> <!-- Eichwalde, Friedenstr. -->
        <stop busStop="280370.11" duration="00:00:10" until="00:05:00"/> <!-- Zeuthen, Havellandstr. -->
        <stop busStop="280370.12" duration="00:00:10" until="00:07:00"/> <!-- Zeuthen, Maxim-Gorki-Str. -->
        <stop busStop="280370.13" duration="00:00:10" until="00:09:00"/> <!-- S Zeuthen -->
    </route>
    <route id="236759" edges="1198308222">
        <stop busStop="109242.0" duration="00:00:10" until="00:00:00"/> <!-- Alt-Schmöckwitz (Berlin) -->
    </route>
    <route id="236778" edges="1198308222 1013489670 4463780#0 4463780#2 240539088 1010110067 240539089#0 176187579 183254465 240539087 1013501323 1449474913#1 875861324 116171834 1449474922">
        <stop busStop="109242.0" duration="00:00:10" until="00:00:00"/> <!-- Alt-Schmöckwitz (Berlin) -->
        <stop busStop="236778.1" duration="00:00:10" until="00:00:00"/> <!-- Zum Seeblick (Berlin) -->
        <stop busStop="236778.2" duration="00:00:10" until="00:01:00"/> <!-- Adlergestell/Vetschauer Allee (Berlin) -->
        <stop busStop="236778.3" duration="00:00:10" until="00:02:00"/> <!-- Lübbenauer Weg (Berlin) -->
        <stop busStop="236778.3" duration="00:00:10" until="00:02:00"/> <!-- Schappachstr. (Berlin) -->
    </route>
    <route id="250372" edges="25881424 -25881424 25881424">
        <stop busStop="250372.0" duration="00:00:10" until="00:00:00"/> <!-- Krampenburg (Berlin) -->
    </route>
    <route id="250389" edges="25881424">
        <stop busStop="250389.0" duration="00:00:10" until="00:00:00"/> <!-- Zum Seeblick (Berlin) -->
        <stop busStop="250372.0" duration="00:00:10" until="00:07:00"/> <!-- Krampenburg (Berlin) -->
    </route>
    <route id="92988" edges="-153134060#5 -153134060#4 -153134060#3 -153134060#2 -153134060#1 -153134060#0 42220072#0 42220072#1 1236950970 1236950968#1 441932169#1 441932169#2 441932169#3 441932169#4 441932169#5 1236950975#1 1236950975#2 1236950975#3 1236950973">
        <stop busStop="92988.1" duration="00:00:10" until="00:00:00"/> <!-- S Zeuthen -->
        <stop busStop="92988.2" duration="00:00:10" until="00:03:00"/> <!-- S Eichwalde -->
    </route>
    <route id="93347" edges="1236950972 1236950974#0 1236950974#1 1236950974#2 441932166#1 441932166#2 441932166#3 441932166#4 1236950969#1 1236950971 36853643#0 36853643#1 153134060#0 153134060#1 153134060#2 153134060#3 153134060#4 153134060#5">
        <stop busStop="93347.0" duration="00:00:10" until="00:00:00"/> <!-- S Eichwalde -->
        <stop busStop="93347.1" duration="00:00:10" until="00:04:00"/> <!-- S Zeuthen -->
    </route>
    <route id="92929" edges="-153134060#5 -153134060#4 -153134060#3 -153134060#2 -153134060#1 -153134060#0 42220072#0 42220072#1 1236950970 1236950968#1 441932169#1 441932169#2 441932169#3 441932169#4 441932169#5 1236950975#1 1236950975#2 1236950975#3 1236950973">
        <stop busStop="92988.1" duration="00:00:10" until="00:00:00"/> <!-- S Zeuthen -->
        <stop busStop="92988.2" duration="00:00:10" until="00:03:00"/> <!-- S Eichwalde -->
    </route>
    <route id="93224" edges="1236950972 1236950974#0 1236950974#1 1236950974#2 441932166#1 441932166#2 441932166#3 441932166#4 1236950969#1 1236950971 36853643#0 36853643#1 153134060#0 153134060#1 153134060#2 153134060#3 153134060#4 153134060#5">
        <stop busStop="93347.0" duration="00:00:10" until="00:00:00"/> <!-- S Eichwalde -->
        <stop busStop="93347.1" duration="00:00:10" until="00:04:00"/> <!-- S Zeuthen -->
    </route>
    <route id="96476" edges="1236950970 1236950968#1 441932169#1 441932169#2 441932169#3 441932169#4 441932169#5 1236950975#1 1236950975#2 1236950975#3 1236950973">
        <stop busStop="92988.1" duration="00:00:10" until="00:00:00"/> <!-- S Zeuthen -->
        <stop busStop="92988.2" duration="00:00:10" until="00:03:00"/> <!-- S Eichwalde -->
    </route>
    <route id="96602" edges="1236950972 1236950974#0 1236950974#1 1236950974#2 441932166#1 441932166#2 441932166#3 441932166#4 1236950969#1">
        <stop busStop="93347.0" duration="00:00:10" until="00:00:00"/> <!-- S Eichwalde -->
        <stop busStop="93347.1" duration="00:00:10" until="00:03:00"/> <!-- S Zeuthen -->
    </route>
    <route id="259570" edges="170799109 1484004608#1 158537642#1 1484004605#2 169008810#1 169008810#3 806903751#0 806903751#1 806903751#2 158512978#0 158512978#1 806903752#0">
        <stop busStop="259570.3" duration="00:00:10" until="00:00:00"/> <!-- Schappachstr. (Berlin) -->
        <stop busStop="259570.3" duration="00:00:10" until="00:01:00"/> <!-- Lübbenauer Weg (Berlin) -->
        <stop busStop="259570.5" duration="00:00:10" until="00:02:00"/> <!-- Adlergestell/Vetschauer Allee (Berlin) -->
        <stop busStop="259570.6" duration="00:00:10" until="00:04:00"/> <!-- Zum Seeblick (Berlin) -->
        <stop busStop="259570.7" duration="00:00:10" until="00:05:00"/> <!-- Alt-Schmöckwitz. (Berlin) -->
        <stop busStop="259570.8" duration="00:00:10" until="00:06:00"/> <!-- Alt- -Schmöckwitz (Berlin) -->
    </route>
    <route id="259632.trimmed" edges="170799109 1484004608#1 158537642#1 1484004605#2 169008810#1 169008810#3 806903751#0 806903751#1 806903751#2 158512978#0 158512978#1 806903752#0">
        <stop busStop="259570.3" duration="00:00:10" until="00:00:00"/> <!-- Lübbenauer Weg (Berlin) -->
        <stop busStop="259570.5" duration="00:00:10" until="00:01:00"/> <!-- Adlergestell/Vetschauer Allee (Berlin) -->
        <stop busStop="259570.6" duration="00:00:10" until="00:03:00"/> <!-- Zum Seeblick (Berlin) -->
        <stop busStop="259570.7" duration="00:00:10" until="00:04:00"/> <!-- Alt-Schmöckwitz. (Berlin) -->
        <stop busStop="259570.8" duration="00:00:10" until="00:05:00"/> <!-- Alt- -Schmöckwitz (Berlin) -->
    </route>
    <route id="259780" edges="806903752#0 806903752#1 1484004606#0 1484004606#1 1484004606#3 1484004606#4 1484004606#6 1484004606#7 1484004607#2 1484004607#3 1484004610#1">
        <stop busStop="259570.8" duration="00:00:10" until="00:00:00"/> <!-- Alt- -Schmöckwitz (Berlin) -->
        <stop busStop="259780.1" duration="00:00:10" until="00:01:00"/> <!-- Alt-Schmöckwitz (Berlin) -->
        <stop busStop="259780.2" duration="00:00:10" until="00:02:00"/> <!-- Zum Seeblick (Berlin) -->
        <stop busStop="259780.3" duration="00:00:10" until="00:04:00"/> <!-- Adlergestell/Vetschauer Allee (Berlin) -->
        <stop busStop="259780.4" duration="00:00:10" until="00:05:00"/> <!-- Lübbenauer Weg (Berlin) -->
        <stop busStop="259780.5" duration="00:00:10" until="00:06:00"/> <!-- Schappachstr. (Berlin) -->
    </route>
    <route id="68252" edges="170799109 1484004608#1 158537642#1 1484004605#2 169008810#1 169008810#3">
        <stop busStop="259570.3" duration="00:00:10" until="00:00:00"/> <!-- Schappachstr. (Berlin) -->
        <stop busStop="259570.3" duration="00:00:10" until="00:02:00"/> <!-- Lübbenauer Weg (Berlin) -->
        <stop busStop="259570.5" duration="00:00:10" until="00:03:00"/> <!-- Adlergestell/Vetschauer Allee (Berlin) -->
        <stop busStop="259570.6" duration="00:00:10" until="00:05:00"/> <!-- Zum Seeblick (Berlin) -->
        <stop busStop="259570.7" duration="00:00:10" until="00:07:00"/> <!-- Alt-Schmöckwitz. (Berlin) -->
    </route>
    <route id="68332" edges="806903752#1 1484004606#0 1484004606#1 1484004606#3 1484004606#4 1484004606#6 1484004606#7 1484004607#2 1484004607#3 1484004610#1">
        <stop busStop="259780.1" duration="00:00:10" until="00:00:00"/> <!-- Alt-Schmöckwitz (Berlin) -->
        <stop busStop="259780.2" duration="00:00:10" until="00:01:00"/> <!-- Zum Seeblick (Berlin) -->
        <stop busStop="259780.3" duration="00:00:10" until="00:04:00"/> <!-- Adlergestell/Vetschauer Allee (Berlin) -->
        <stop busStop="259780.4" duration="00:00:10" until="00:05:00"/> <!-- Lübbenauer Weg (Berlin) -->
        <stop busStop="259780.5" duration="00:00:10" until="00:06:00"/> <!-- Schappachstr. (Berlin) -->
    </route>
    <vehicle id="54175.0" route="236778" type="bus" depart="03:06:50" line="N68#1">
        <param key="gtfs.route_name" value="N68"/>
        <param key="gtfs.trip_headsign" value="S Adlershof"/>
    </vehicle>
    <vehicle id="236778.0" route="236778" type="bus" depart="03:36:50" line="N68#1">
        <param key="gtfs.route_name" value="N68"/>
        <param key="gtfs.trip_headsign" value="S Adlershof"/>
    </vehicle>
    <vehicle id="236781.0" route="236778" type="bus" depart="04:06:50" line="N68#1">
        <param key="gtfs.route_name" value="N68"/>
        <param key="gtfs.trip_headsign" value="S Adlershof"/>
    </vehicle>
    <vehicle id="92988.0" route="92988" type="light_rail" depart="04:07:50" line="S46">
        <param key="gtfs.route_name" value="S46"/>
        <param key="gtfs.trip_headsign" value="S Westend, in Bln-Grünau bitte umsteigen"/>
    </vehicle>
    <vehicle id="68258.0" route="259570" type="tram" depart="04:19:50" line="68">
        <param key="gtfs.route_name" value="68"/>
        <param key="gtfs.trip_headsign" value="Alt-Schmöckwitz"/>
    </vehicle>
    <vehicle id="93224.0" route="93224" type="light_rail" depart="04:23:50" line="S46#3">
        <param key="gtfs.route_name" value="S46"/>
        <param key="gtfs.trip_headsign" value="S Königs Wusterhausen Bhf"/>
    </vehicle>
    <vehicle id="92990.0" route="92988" type="light_rail" depart="04:27:50" line="S46">
        <param key="gtfs.route_name" value="S46"/>
        <param key="gtfs.trip_headsign" value="S Westend, in Bln-Grünau bitte umsteigen"/>
    </vehicle>
    <vehicle id="68364.0" route="259780" type="tram" depart="04:29:50" line="68#2">
        <param key="gtfs.route_name" value="68"/>
        <param key="gtfs.trip_headsign" value="S Köpenick"/>
    </vehicle>
    <vehicle id="259570.0" route="259570" type="tram" depart="04:39:50" line="68">
        <param key="gtfs.route_name" value="68"/>
        <param key="gtfs.trip_headsign" value="Alt-Schmöckwitz"/>
    </vehicle>
    <vehicle id="93225.0" route="93224" type="light_rail" depart="04:43:50" line="S46#3">
        <param key="gtfs.route_name" value="S46"/>
        <param key="gtfs.trip_headsign" value="S Königs Wusterhausen Bhf"/>
    </vehicle>
    <vehicle id="92929.0" route="92929" type="light_rail" depart="04:47:50" line="S46#2">
        <param key="gtfs.route_name" value="S46"/>
        <param key="gtfs.trip_headsign" value="S Westend (Berlin)"/>
    </vehicle>
    <vehicle id="259865.0" route="259780" type="tram" depart="04:49:50" line="68#2">
        <param key="gtfs.route_name" value="68"/>
        <param key="gtfs.trip_headsign" value="S Köpenick"/>
    </vehicle>
    <vehicle id="259572.0" route="259570" type="tram" depart="04:59:50" line="68">
        <param key="gtfs.route_name" value="68"/>
        <param key="gtfs.trip_headsign" value="Alt-Schmöckwitz"/>
    </vehicle>
    <vehicle id="109315.0" route="109300" type="bus" depart="05:01:50" line="738#1">
        <param key="gtfs.route_name" value="738"/>
        <param key="gtfs.trip_headsign" value="Wildau, Gewerbepark Süd"/>
    </vehicle>
    <vehicle id="93359.0" route="93224" type="light_rail" depart="05:03:50" line="S46#3">
        <param key="gtfs.route_name" value="S46"/>
        <param key="gtfs.trip_headsign" value="S Königs Wusterhausen Bhf"/>
    </vehicle>
    <vehicle id="92930.0" route="92929" type="light_rail" depart="05:07:50" line="S46#2">
        <param key="gtfs.route_name" value="S46"/>
        <param key="gtfs.trip_headsign" value="S Westend (Berlin)"/>
    </vehicle>
    <vehicle id="259868.0" route="259780" type="tram" depart="05:09:50" line="68#2">
        <param key="gtfs.route_name" value="68"/>
        <param key="gtfs.trip_headsign" value="S Köpenick"/>
    </vehicle>
    <vehicle id="68248.0" route="259570" type="tram" depart="05:09:50" line="68">
        <param key="gtfs.route_name" value="68"/>
        <param key="gtfs.trip_headsign" value="Alt-Schmöckwitz"/>
    </vehicle>
    <vehicle id="96700.0" route="96602" type="light_rail" depart="05:12:50" line="S8#1">
        <param key="gtfs.route_name" value="S8"/>
        <param key="gtfs.trip_headsign" value="S Zeuthen"/>
    </vehicle>
    <vehicle id="96490.0" route="96476" type="light_rail" depart="05:19:50" line="S8">
        <param key="gtfs.route_name" value="S8"/>
        <param key="gtfs.trip_headsign" value="S Birkenwerder Bhf"/>
    </vehicle>
    <vehicle id="68294.0" route="259570" type="tram" depart="05:19:50" line="68">
        <param key="gtfs.route_name" value="68"/>
        <param key="gtfs.trip_headsign" value="Alt-Schmöckwitz"/>
    </vehicle>
    <vehicle id="93351.0" route="93224" type="light_rail" depart="05:23:50" line="S46#3">
        <param key="gtfs.route_name" value="S46"/>
        <param key="gtfs.trip_headsign" value="S Königs Wusterhausen Bhf"/>
    </vehicle>
    <vehicle id="92931.0" route="92929" type="light_rail" depart="05:27:50" line="S46#2">
        <param key="gtfs.route_name" value="S46"/>
        <param key="gtfs.trip_headsign" value="S Westend (Berlin)"/>
    </vehicle>
    <vehicle id="68376.0" route="259780" type="tram" depart="05:27:50" line="68#2">
        <param key="gtfs.route_name" value="68"/>
        <param key="gtfs.trip_headsign" value="S Köpenick"/>
    </vehicle>
    <vehicle id="96607.0" route="96602" type="light_rail" depart="05:32:50" line="S8#1">
        <param key="gtfs.route_name" value="S8"/>
        <param key="gtfs.trip_headsign" value="S Zeuthen"/>
    </vehicle>
    <vehicle id="96478.0" route="96476" type="light_rail" depart="05:39:50" line="S8">
        <param key="gtfs.route_name" value="S8"/>
        <param key="gtfs.trip_headsign" value="S Birkenwerder Bhf"/>
    </vehicle>
    <vehicle id="259672.0" route="259570" type="tram" depart="05:39:50" line="68">
        <param key="gtfs.route_name" value="68"/>
        <param key="gtfs.trip_headsign" value="Alt-Schmöckwitz"/>
    </vehicle>
    <vehicle id="93352.0" route="93224" type="light_rail" depart="05:43:50" line="S46#3">
        <param key="gtfs.route_name" value="S46"/>
        <param key="gtfs.trip_headsign" value="S Königs Wusterhausen Bhf"/>
    </vehicle>
    <vehicle id="92932.0" route="92929" type="light_rail" depart="05:47:50" line="S46#2">
        <param key="gtfs.route_name" value="S46"/>
        <param key="gtfs.trip_headsign" value="S Westend (Berlin)"/>
    </vehicle>
    <vehicle id="259919.0" route="259780" type="tram" depart="05:47:50" line="68#2">
        <param key="gtfs.route_name" value="68"/>
        <param key="gtfs.trip_headsign" value="S Köpenick"/>
    </vehicle>
    <vehicle id="96608.0" route="96602" type="light_rail" depart="05:52:50" line="S8#1">
        <param key="gtfs.route_name" value="S8"/>
        <param key="gtfs.trip_headsign" value="S Zeuthen"/>
    </vehicle>
    <vehicle id="280056.0" route="109244" type="bus" depart="05:55:50" line="733#3">
        <param key="gtfs.route_name" value="733"/>
        <param key="gtfs.trip_headsign" value="S Königs Wusterhausen Bhf"/>
    </vehicle>
    <vehicle id="96491.0" route="96476" type="light_rail" depart="05:59:50" line="S8">
        <param key="gtfs.route_name" value="S8"/>
        <param key="gtfs.trip_headsign" value="S Birkenwerder Bhf"/>
    </vehicle>
    <vehicle id="68268.0" route="259570" type="tram" depart="06:00:50" line="68">
        <param key="gtfs.route_name" value="68"/>
        <param key="gtfs.trip_headsign" value="Alt-Schmöckwitz"/>
    </vehicle>
    <vehicle id="109313.0" route="109300" type="bus" depart="06:01:50" line="738#1">
        <param key="gtfs.route_name" value="738"/>
        <param key="gtfs.trip_headsign" value="Wildau, Gewerbepark Süd"/>
    </vehicle>
    <vehicle id="93285.0" route="93224" type="light_rail" depart="06:03:50" line="S46#3">
        <param key="gtfs.route_name" value="S46"/>
        <param key="gtfs.trip_headsign" value="S Königs Wusterhausen Bhf"/>
    </vehicle>
    <vehicle id="280370.0" route="280370" type="bus" depart="06:04:50" line="733#4">
        <param key="gtfs.route_name" value="733"/>
        <param key="gtfs.trip_headsign" value="S Zeuthen"/>
    </vehicle>
    <vehicle id="92933.0" route="92929" type="light_rail" depart="06:07:50" line="S46#2">
        <param key="gtfs.route_name" value="S46"/>
        <param key="gtfs.trip_headsign" value="S Westend (Berlin)"/>
    </vehicle>
    <vehicle id="259922.0" route="259780" type="tram" depart="06:07:50" line="68#2">
        <param key="gtfs.route_name" value="68"/>
        <param key="gtfs.trip_headsign" value="S Köpenick"/>
    </vehicle>
    <vehicle id="96609.0" route="96602" type="light_rail" depart="06:12:50" line="S8#1">
        <param key="gtfs.route_name" value="S8"/>
        <param key="gtfs.trip_headsign" value="S Zeuthen"/>
    </vehicle>
    <vehicle id="96492.0" route="96476" type="light_rail" depart="06:19:50" line="S8">
        <param key="gtfs.route_name" value="S8"/>
        <param key="gtfs.trip_headsign" value="S Birkenwerder Bhf"/>
    </vehicle>
    <vehicle id="259578.0" route="259570" type="tram" depart="06:20:50" line="68">
        <param key="gtfs.route_name" value="68"/>
        <param key="gtfs.trip_headsign" value="Alt-Schmöckwitz"/>
    </vehicle>
    <vehicle id="93286.0" route="93224" type="light_rail" depart="06:23:50" line="S46#3">
        <param key="gtfs.route_name" value="S46"/>
        <param key="gtfs.trip_headsign" value="S Königs Wusterhausen Bhf"/>
    </vehicle>
    <vehicle id="92934.0" route="92929" type="light_rail" depart="06:27:50" line="S46#2">
        <param key="gtfs.route_name" value="S46"/>
        <param key="gtfs.trip_headsign" value="S Westend (Berlin)"/>
    </vehicle>
    <vehicle id="259925.0" route="259780" type="tram" depart="06:27:50" line="68#2">
        <param key="gtfs.route_name" value="68"/>
        <param key="gtfs.trip_headsign" value="S Köpenick"/>
    </vehicle>
    <vehicle id="68252.0" route="68252" type="tram" depart="06:30:50" line="68#3">
        <param key="gtfs.route_name" value="68"/>
        <param key="gtfs.trip_headsign" value="Alt-Schmöckwitz"/>
    </vehicle>