<?xml version="1.0" encoding="UTF-8"?>

<!-- generated on 2022-07-18 13:19:19.478739 by gtfs2pt.py v1_14_0+0163-2cc505f9d18
  options: -n data/eichwalde.net.xml.gz <doubleminus>gtfs https://sumo.dlr.de/daily/GTFS_VBB_Juni-Dezember-2016.zip <doubleminus>date 20160713
-->

<additional xmlns:xsi="http://www.w3.org/2001/XMLSchema-instance" xsi:noNamespaceSchemaLocation="http://sumo.dlr.de/xsd/additional_file.xsd">
    <busStop id="19508631#0:5.90" lane="19508631#0_0" startPos="0.00" endPos="18.90" friendlyPos="true" name="Gosen, Schillerhöhe">
    </busStop>
    <busStop id="38417587#2:1587.45" lane="38417587#2_0" startPos="1574.45" endPos="1600.45" friendlyPos="true" name="Niederlehme, Wederdamm">
    </busStop>
    <busStop id="-38417587#2:1266.86" lane="-38417587#2_0" startPos="1253.86" endPos="1279.86" friendlyPos="true" name="Ziegenhals, Friedrich-Engels-Str.">
    </busStop>
    <busStop id="-785847089#1:0.00" lane="-785847089#1_0" startPos="0.00" endPos="13.00" friendlyPos="true" name="Ziegenhals, Neubau">
    </busStop>
    <busStop id="-708450472#1:55.96" lane="-708450472#1_0" startPos="42.96" endPos="68.96" friendlyPos="true" name="Ziegenhals, Schulstr.">
    </busStop>
    <busStop id="-382263640#0:134.05" lane="-382263640#0_0" startPos="121.05" endPos="147.05" friendlyPos="true" name="Ziegenhals, Sporthaus">
    </busStop>
    <busStop id="-206903446#15:58.85" lane="-206903446#15_0" startPos="45.85" endPos="71.85" friendlyPos="true" name="Ziegenhals, Schwarzer Weg">
    </busStop>
    <busStop id="-206903446#7:162.62" lane="-206903446#7_0" startPos="149.62" endPos="175.62" friendlyPos="true" name="Ziegenhals, Erlenweg">
    </busStop>
    <busStop id="-206903446#0:23.98" lane="-206903446#0_0" startPos="10.98" endPos="36.98" friendlyPos="true" name="Ziegenhals, Pappelweg">
    </busStop>
    <busStop id="-35630851#3:113.12" lane="-35630851#3_0" startPos="100.12" endPos="126.12" friendlyPos="true" name="Wernsdorf, Waldeck">
    </busStop>
    <busStop id="35630851#3:62.80" lane="35630851#3_0" startPos="49.80" endPos="75.80" friendlyPos="true" name="Wernsdorf, Waldeck">
    </busStop>
    <busStop id="206903446#0:72.60" lane="206903446#0_0" startPos="59.60" endPos="85.60" friendlyPos="true" name="Ziegenhals, Pappelweg">
    </busStop>
    <busStop id="206903446#7:17.98" lane="206903446#7_0" startPos="4.98" endPos="30.98" friendlyPos="true" name="Ziegenhals, Erlenweg">
    </busStop>
    <busStop id="206903446#15:103.40" lane="206903446#15_0" startPos="90.40" endPos="116.40" friendlyPos="true" name="Ziegenhals, Schwarzer Weg">
    </busStop>
    <busStop id="382263640#0:0.00" lane="382263640#0_0" startPos="0.00" endPos="13.00" friendlyPos="true" name="Ziegenhals, Sporthaus">
    </busStop>
    <busStop id="708450472#1:0.00" lane="708450472#1_0" startPos="0.00" endPos="13.00" friendlyPos="true" name="Ziegenhals, Schulstr.">
    </busStop>
    <busStop id="785847089#1:18.34" lane="785847089#1_0" startPos="5.34" endPos="31.34" friendlyPos="true" name="Ziegenhals, Neubau">
    </busStop>
    <busStop id="38417587#2:332.19" lane="38417587#2_0" startPos="319.19" endPos="345.19" friendlyPos="true" name="Ziegenhals, Friedrich-Engels-Str.">
    </busStop>
    <busStop id="-112698780#1:5.30" lane="-112698780#1_0" startPos="0.00" endPos="18.30" friendlyPos="true" name="S Zeuthen">
    </busStop>
    <busStop id="797340923:8.69" lane="797340923_0" startPos="0.00" endPos="21.69" friendlyPos="true" name="Zeuthen, Schillerstr.">
    </busStop>
    <busStop id="8068171#6:54.76" lane="8068171#6_0" startPos="41.76" endPos="67.76" friendlyPos="true" name="Zeuthen, Heinrich-Heine-Str.">
    </busStop>
    <busStop id="-4045247#4:0.00" lane="-4045247#4_0" startPos="0.00" endPos="13.00" friendlyPos="true" name="Zeuthen, Havellandstr.">
    </busStop>
    <busStop id="4068154#0:5.25" lane="4068154#0_0" startPos="0.00" endPos="18.25" friendlyPos="true" name="Eichwalde, Friedenstr.">
    </busStop>
    <busStop id="4068154#1:30.23" lane="4068154#1_0" startPos="17.23" endPos="43.23" friendlyPos="true" name="Eichwalde, Tschaikowskistr.">
    </busStop>
    <busStop id="355736431#0:18.29" lane="355736431#0_0" startPos="5.29" endPos="31.29" friendlyPos="true" name="Eichwalde, Schmöckwitzer Str.">
    </busStop>
    <busStop id="240539089#4:12.84" lane="240539089#4_0" startPos="0.00" endPos="25.84" friendlyPos="true" name="Zum Seeblick (Berlin)">
    </busStop>
    <busStop id="4463781#1:11.82" lane="4463781#1_0" startPos="0.00" endPos="24.82" friendlyPos="true" name="Alt-Schmöckwitz (Berlin)">
    </busStop>
    <busStop id="4463796#1:393.78" lane="4463796#1_0" startPos="380.78" endPos="406.78" friendlyPos="true" name="Wernsdorfer Str. (Berlin)">
    </busStop>
    <busStop id="4463796#3:94.01" lane="4463796#3_0" startPos="81.01" endPos="107.01" friendlyPos="true" name="Intercamping (Berlin)">
    </busStop>
    <busStop id="38416189#0:0.00" lane="38416189#0_0" startPos="0.00" endPos="13.00" friendlyPos="true" name="Berlin, Schmöckwitzwerder">
    </busStop>
    <busStop id="-38416189#0:46.26" lane="-38416189#0_0" startPos="33.26" endPos="59.26" friendlyPos="true" name="Berlin, Schmöckwitzwerder">
    </busStop>
    <busStop id="-4463796#3:84.75" lane="-4463796#3_0" startPos="71.75" endPos="97.75" friendlyPos="true" name="Intercamping (Berlin)">
    </busStop>
    <busStop id="-4463796#1:91.40" lane="-4463796#1_0" startPos="78.40" endPos="104.40" friendlyPos="true" name="Wernsdorfer Str. (Berlin)">
    </busStop>
    <busStop id="-4463781#1:21.94" lane="-4463781#1_0" startPos="8.94" endPos="34.94" friendlyPos="true" name="Alt-Schmöckwitz (Berlin)">
    </busStop>
    <busStop id="-355736431#1:15.63" lane="-355736431#1_0" startPos="2.63" endPos="28.63" friendlyPos="true" name="Eichwalde, Schmöckwitzer Str.">
    </busStop>
    <busStop id="-4068154#1:0.63" lane="-4068154#1_0" startPos="0.00" endPos="13.63" friendlyPos="true" name="Eichwalde, Tschaikowskistr.">
    </busStop>
    <busStop id="-4068154#0:180.32" lane="-4068154#0_0" startPos="167.32" endPos="193.32" friendlyPos="true" name="Eichwalde, Friedenstr.">
    </busStop>
    <busStop id="4045247#4:27.47" lane="4045247#4_0" startPos="14.47" endPos="40.47" friendlyPos="true" name="Zeuthen, Havellandstr.">
    </busStop>
    <busStop id="-8068139#3:0.00" lane="-8068139#3_0" startPos="0.00" endPos="13.00" friendlyPos="true" name="Zeuthen, Maxim-Gorki-Str.">
    </busStop>
    <busStop id="112698780#1:94.21" lane="112698780#1_0" startPos="81.21" endPos="107.21" friendlyPos="true" name="S Zeuthen">
    </busStop>
    <busStop id="-203010184#1:17.99" lane="-203010184#1_0" startPos="4.99" endPos="30.99" friendlyPos="true" name="Zeuthen, Seegarten">
    </busStop>
    <busStop id="589705321:0.00" lane="589705321_0" startPos="0.00" endPos="13.00" friendlyPos="true" name="Wildau, Blumenkorso">
    </busStop>
    <busStop id="589705321:244.04" lane="589705321_0" startPos="231.04" endPos="257.04" friendlyPos="true" name="Miersdorf, Hoherlehmer Str.">
    </busStop>
    <busStop id="589705321:715.87" lane="589705321_0" startPos="702.87" endPos="728.87" friendlyPos="true" name="Miersdorf, Am Hochwald">
    </busStop>
    <busStop id="-164719886:33.64" lane="-164719886_0" startPos="20.64" endPos="46.64" friendlyPos="true" name="Miersdorf, See">
    </busStop>
    <busStop id="-782714969#9:10.09" lane="-782714969#9_0" startPos="0.00" endPos="23.09" friendlyPos="true" name="Miersdorf, Wüstemarker Weg">
    </busStop>
    <busStop id="-782714969#3:98.46" lane="-782714969#3_0" startPos="85.46" endPos="111.46" friendlyPos="true" name="Schulzendorf (LDS), Bremer Str.">
    </busStop>
    <busStop id="-107422474#2:126.55" lane="-107422474#2_0" startPos="113.55" endPos="139.55" friendlyPos="true" name="Schulzendorf (LDS), Münchener Str.">
    </busStop>
    <busStop id="-9326424#4:21.34" lane="-9326424#4_0" startPos="8.34" endPos="34.34" friendlyPos="true" name="Schulzendorf (LDS), Zum Mühlenschlag">
    </busStop>
    <busStop id="-9326424#0:89.93" lane="-9326424#0_0" startPos="76.93" endPos="102.93" friendlyPos="true" name="Schulzendorf (LDS), Miersdorfer Str.">
    </busStop>
    <busStop id="-155037634#2:13.29" lane="-155037634#2_0" startPos="0.29" endPos="26.29" friendlyPos="true" name="Schulzendorf (LDS), Alt Schulzendorf">
    </busStop>
    <busStop id="155037634#2:37.95" lane="155037634#2_0" startPos="24.95" endPos="50.95" friendlyPos="true" name="Schulzendorf (LDS), Alt Schulzendorf">
    </busStop>
    <busStop id="9326424#0:77.70" lane="9326424#0_0" startPos="64.70" endPos="90.70" friendlyPos="true" name="Schulzendorf (LDS), Miersdorfer Str.">
    </busStop>
    <busStop id="9326424#4:187.61" lane="9326424#4_0" startPos="174.61" endPos="200.61" friendlyPos="true" name="Schulzendorf (LDS), Zum Mühlenschlag">
    </busStop>
    <busStop id="107422474#1:142.87" lane="107422474#1_0" startPos="129.87" endPos="155.87" friendlyPos="true" name="Schulzendorf (LDS), Münchener Str.">
    </busStop>
    <busStop id="782714969#3:7.71" lane="782714969#3_0" startPos="0.00" endPos="20.71" friendlyPos="true" name="Schulzendorf (LDS), Bremer Str.">
    </busStop>
    <busStop id="782714969#9:12.38" lane="782714969#9_0" startPos="0.00" endPos="25.38" friendlyPos="true" name="Miersdorf, Wüstemarker Weg">
    </busStop>
    <busStop id="164719886:42.27" lane="164719886_0" startPos="29.27" endPos="55.27" friendlyPos="true" name="Miersdorf, See">
    </busStop>
    <busStop id="-589705321:240.35" lane="-589705321_0" startPos="227.35" endPos="253.35" friendlyPos="true" name="Miersdorf, Am Hochwald">
    </busStop>
    <busStop id="-589705321:712.18" lane="-589705321_0" startPos="699.18" endPos="725.18" friendlyPos="true" name="Miersdorf, Hoherlehmer Str.">
    </busStop>
    <busStop id="-589705321:956.23" lane="-589705321_0" startPos="943.23" endPos="969.23" friendlyPos="true" name="Wildau, Blumenkorso">
    </busStop>
    <busStop id="-59226983#0:207.81" lane="-59226983#0_0" startPos="194.81" endPos="220.81" friendlyPos="true" name="Wildau, Westkorso">
    </busStop>
    <busStop id="36852342#0:21.42" lane="36852342#0_0" startPos="8.42" endPos="34.42" friendlyPos="true" name="Zeuthen, Fontaneallee">
    </busStop>
    <busStop id="36852342#1:158.99" lane="36852342#1_0" startPos="145.99" endPos="171.99" friendlyPos="true" name="Zeuthen, Seniorenstift">
    </busStop>
    <busStop id="-131942163#0:0.00" lane="-131942163#0_0" startPos="0.00" endPos="13.00" friendlyPos="true" name="Waltersdorf (bei Berlin), Weidenweg">
    </busStop>
    <busStop id="-107370599#2:18.31" lane="-107370599#2_0" startPos="5.31" endPos="31.31" friendlyPos="true" name="Schulzendorf (LDS), Waldstr.">
    </busStop>
    <busStop id="-107370597#8:60.22" lane="-107370597#8_0" startPos="47.22" endPos="73.22" friendlyPos="true" name="Schulzendorf (LDS), Lindenstr.">
    </busStop>
    <busStop id="-107370597#4:138.01" lane="-107370597#4_0" startPos="125.01" endPos="151.01" friendlyPos="true" name="Schulzendorf (LDS), A.-Bebel-Str.">
    </busStop>
    <busStop id="4920440#1:19.54" lane="4920440#1_0" startPos="6.54" endPos="32.54" friendlyPos="true" name="Schulzendorf (LDS), Puschkinstr.">
    </busStop>
    <busStop id="415907064#2:2.28" lane="415907064#2_0" startPos="0.00" endPos="15.28" friendlyPos="true" name="Schulzendorf (LDS), R.-Breitscheid-Str.">
    </busStop>
    <busStop id="782714967#0:6.51" lane="782714967#0_0" startPos="0.00" endPos="19.51" friendlyPos="true" name="S Eichwalde">
    </busStop>
    <busStop id="-415907064#2:29.84" lane="-415907064#2_0" startPos="16.84" endPos="42.84" friendlyPos="true" name="Schulzendorf (LDS), R.-Breitscheid-Str.">
    </busStop>
    <busStop id="-4930561#2:90.53" lane="-4930561#2_0" startPos="77.53" endPos="103.53" friendlyPos="true" name="Schulzendorf (LDS), Dohlenstieg">
    </busStop>
    <busStop id="-783262512:68.38" lane="-783262512_0" startPos="55.38" endPos="81.38" friendlyPos="true" name="Schulzendorf (LDS), Flutgraben">
    </busStop>
    <busStop id="4920409#0:0.00" lane="4920409#0_0" startPos="0.00" endPos="13.00" friendlyPos="true" name="Schulzendorf (LDS), Ortszentrum">
    </busStop>
    <busStop id="-415907032#2:301.80" lane="-415907032#2_0" startPos="288.80" endPos="314.80" friendlyPos="true" name="Schulzendorf (LDS), Illgenstr.">
    </busStop>
    <busStop id="383158977:24.97" lane="383158977_0" startPos="11.97" endPos="37.97" friendlyPos="true" name="Schulzendorf (LDS), Herweghstr.">
    </busStop>
    <busStop id="381307675#2:9.17" lane="381307675#2_0" startPos="0.00" endPos="22.17" friendlyPos="true" name="Schulzendorf (LDS), Kita">
    </busStop>
    <busStop id="-4920748#3:89.96" lane="-4920748#3_0" startPos="76.96" endPos="102.96" friendlyPos="true" name="Schulzendorf (LDS), Otto-Krien-Str.">
    </busStop>
    <busStop id="4935155#4:6.31" lane="4935155#4_0" startPos="0.00" endPos="19.31" friendlyPos="true" name="S Eichwalde">
    </busStop>
    <busStop id="-415907040#3:0.00" lane="-415907040#3_0" startPos="0.00" endPos="13.00" friendlyPos="true" name="Schulzendorf (LDS), K.-Marx-Str.">
    </busStop>
    <busStop id="107370599#2:86.13" lane="107370599#2_0" startPos="73.13" endPos="99.13" friendlyPos="true" name="Schulzendorf (LDS), Waldstr.">
    </busStop>
    <busStop id="131942163#1:9.60" lane="131942163#1_0" startPos="0.00" endPos="22.60" friendlyPos="true" name="Waltersdorf (bei Berlin), Weidenweg">
    </busStop>
    <busStop id="-36852342#0:489.69" lane="-36852342#0_0" startPos="476.69" endPos="502.69" friendlyPos="true" name="Zeuthen, Fontaneallee">
    </busStop>
    <busStop id="-255274251#0:93.57" lane="-255274251#0_0" startPos="80.57" endPos="106.57" friendlyPos="true" name="Wildau, Westkorso">
    </busStop>
    <busStop id="7365284#1:16.48" lane="7365284#1_0" startPos="3.48" endPos="29.48" friendlyPos="true" name="Zeuthen, Große Zeuthener Allee">
    </busStop>
    <busStop id="-627588107#0:50.91" lane="-627588107#0_0" startPos="37.91" endPos="63.91" friendlyPos="true" name="Zeuthen, Friedhof">
    </busStop>
    <busStop id="4054042#3:58.29" lane="4054042#3_0" startPos="45.29" endPos="71.29" friendlyPos="true" name="Miersdorf, Kirche">
    </busStop>
    <busStop id="4920748#3:8.31" lane="4920748#3_0" startPos="0.00" endPos="21.31" friendlyPos="true" name="Schulzendorf (LDS), Otto-Krien-Str.">
    </busStop>
    <busStop id="-381307675#2:111.66" lane="-381307675#2_0" startPos="98.66" endPos="124.66" friendlyPos="true" name="Schulzendorf (LDS), Kita">
    </busStop>
    <busStop id="-383158977:75.37" lane="-383158977_0" startPos="62.37" endPos="88.37" friendlyPos="true" name="Schulzendorf (LDS), Herweghstr.">
    </busStop>
    <busStop id="415907032#2:18.92" lane="415907032#2_0" startPos="5.92" endPos="31.92" friendlyPos="true" name="Schulzendorf (LDS), Illgenstr.">
    </busStop>
    <busStop id="-4920409#0:108.17" lane="-4920409#0_0" startPos="95.17" endPos="121.17" friendlyPos="true" name="Schulzendorf (LDS), Ortszentrum">
    </busStop>
    <busStop id="783262512:11.00" lane="783262512_0" startPos="0.00" endPos="24.00" friendlyPos="true" name="Schulzendorf (LDS), Flutgraben">
    </busStop>
    <busStop id="4930561#2:10.95" lane="4930561#2_0" startPos="0.00" endPos="23.95" friendlyPos="true" name="Schulzendorf (LDS), Dohlenstieg">
    </busStop>
    <busStop id="-415907050:86.27" lane="-415907050_0" startPos="73.27" endPos="99.27" friendlyPos="true" name="Schulzendorf (LDS), K.-Liebknecht-Str.">
    </busStop>
    <busStop id="4920400#0:35.02" lane="4920400#0_0" startPos="22.02" endPos="48.02" friendlyPos="true" name="Schulzendorf (LDS), Freiligrathstr.">
    </busStop>
    <busStop id="-4920400#1:19.42" lane="-4920400#1_0" startPos="6.42" endPos="32.42" friendlyPos="true" name="Schulzendorf (LDS), W.-Rathenau-Str.">
    </busStop>
    <busStop id="-4920400#0:81.35" lane="-4920400#0_0" startPos="68.35" endPos="94.35" friendlyPos="true" name="Schulzendorf (LDS), Freiligrathstr.">
    </busStop>
    <busStop id="4920636#0:0.00" lane="4920636#0_0" startPos="0.00" endPos="13.00" friendlyPos="true" name="Miersdorf, Kirche">
    </busStop>
    <busStop id="-4045249#1:19.69" lane="-4045249#1_0" startPos="6.69" endPos="32.69" friendlyPos="true" name="Miersdorf, Hankelweg">
    </busStop>
    <busStop id="783261313#0:85.16" lane="783261313#0_0" startPos="72.16" endPos="98.16" friendlyPos="true" name="Zeuthen, Miersdorfer Chaussee">
    </busStop>
    <busStop id="114441235#0:9.90" lane="114441235#0_0" startPos="0.00" endPos="22.90" friendlyPos="true" name="Zeuthen, Forstallee">
    </busStop>
    <busStop id="4920400#1:328.18" lane="4920400#1_0" startPos="315.18" endPos="341.18" friendlyPos="true" name="Schulzendorf (LDS), W.-Rathenau-Str.">
    </busStop>
    <busStop id="4935155#5:1.92" lane="4935155#5_0" startPos="0.00" endPos="14.92" friendlyPos="true" name="S Eichwalde">
    </busStop>
    <busStop id="-24278479#5:14.64" lane="-24278479#5_0" startPos="1.64" endPos="27.64" friendlyPos="true" name="Schulzendorf (LDS), Ortszentrum">
    </busStop>
    <busStop id="207086006:16.62" lane="207086006_0" startPos="3.62" endPos="29.62" friendlyPos="true" name="S Altglienicke (Berlin)">
    </busStop>
    <busStop id="156066220#1:11.02" lane="156066220#1_0" startPos="0.00" endPos="24.02" friendlyPos="true" name="S Grünau (Berlin) [Busendstelle]">
    </busStop>
    <busStop id="-220911301#0:49.43" lane="-220911301#0_0" startPos="36.43" endPos="62.43" friendlyPos="true" name="Waltersdorfer Str. (Berlin)">
    </busStop>
    <busStop id="-46101882#3:79.17" lane="-46101882#3_0" startPos="66.17" endPos="92.17" friendlyPos="true" name="Zur Gartenstadt (Berlin)">
    </busStop>
    <busStop id="-46101882#0:61.88" lane="-46101882#0_0" startPos="48.88" endPos="74.88" friendlyPos="true" name="Sausenberger Str. (Berlin)">
    </busStop>
    <busStop id="-450661504#4:8.49" lane="-450661504#4_0" startPos="0.00" endPos="21.49" friendlyPos="true" name="Gartenstadtweg (Berlin)">
    </busStop>
    <busStop id="658716827#0:46.30" lane="658716827#0_0" startPos="33.30" endPos="59.30" friendlyPos="true" name="S Grünau (Berlin) [Richterstr.]">
    </busStop>
    <busStop id="46101882#0:130.09" lane="46101882#0_0" startPos="117.09" endPos="143.09" friendlyPos="true" name="Sausenberger Str. (Berlin)">
    </busStop>
    <busStop id="46101882#3:25.79" lane="46101882#3_0" startPos="12.79" endPos="38.79" friendlyPos="true" name="Zur Gartenstadt (Berlin)">
    </busStop>
    <busStop id="220911301#0:20.50" lane="220911301#0_0" startPos="7.50" endPos="33.50" friendlyPos="true" name="Waltersdorfer Str. (Berlin)">
    </busStop>
    <busStop id="10587012#3:319.16" lane="10587012#3_0" startPos="306.16" endPos="332.16" friendlyPos="true" name="Teikyo-University (Berlin)">
    </busStop>
    <busStop id="10587012#5:409.40" lane="10587012#5_0" startPos="396.40" endPos="422.40" friendlyPos="true" name="Zeltplatz (Berlin)">
    </busStop>
    <busStop id="389273284#1:8.89" lane="389273284#1_0" startPos="0.00" endPos="21.89" friendlyPos="true" name="Fährallee (Berlin)">
    </busStop>
    <busStop id="389273282:101.89" lane="389273282_0" startPos="88.89" endPos="114.89" friendlyPos="true" name="Zeuthener Weg (Berlin)">
    </busStop>
    <busStop id="10587008#1:207.83" lane="10587008#1_0" startPos="194.83" endPos="220.83" friendlyPos="true" name="Moßkopfring (Berlin)">
    </busStop>
    <busStop id="-10587008#1:10.36" lane="-10587008#1_0" startPos="0.00" endPos="23.36" friendlyPos="true" name="Moßkopfring (Berlin)">
    </busStop>
    <busStop id="-389273282:0.00" lane="-389273282_0" startPos="0.00" endPos="13.00" friendlyPos="true" name="Zeuthener Weg (Berlin)">
    </busStop>
    <busStop id="-389273284#1:14.49" lane="-389273284#1_0" startPos="1.49" endPos="27.49" friendlyPos="true" name="Fährallee (Berlin)">
    </busStop>
    <busStop id="-10587012#5:19.98" lane="-10587012#5_0" startPos="6.98" endPos="32.98" friendlyPos="true" name="Zeltplatz (Berlin)">
    </busStop>
    <busStop id="-10587012#4:441.36" lane="-10587012#4_0" startPos="428.36" endPos="454.36" friendlyPos="true" name="Teikyo-University (Berlin)">
    </busStop>
    <busStop id="-658716831#0:0.00" lane="-658716831#0_0" startPos="0.00" endPos="13.00" friendlyPos="true" name="Joachimstr. (Berlin)">
    </busStop>
    <busStop id="-151627032#6:0.00" lane="-151627032#6_0" startPos="0.00" endPos="13.00" friendlyPos="true" name="Neptunstr. (Berlin)">
    </busStop>
    <busStop id="-151627032#3:18.73" lane="-151627032#3_0" startPos="5.73" endPos="31.73" friendlyPos="true" name="Merkurstr. (Berlin)">
    </busStop>
    <busStop id="-51304499#8:0.00" lane="-51304499#8_0" startPos="0.00" endPos="13.00" friendlyPos="true" name="Schulzendorfer Str./Parchwitzer Str. (Berlin)">
    </busStop>
    <busStop id="153260638#0:27.04" lane="153260638#0_0" startPos="14.04" endPos="40.04" friendlyPos="true" name="Eichbuschplatz (Berlin)">
    </busStop>
    <busStop id="-51304499#3:68.02" lane="-51304499#3_0" startPos="55.02" endPos="81.02" friendlyPos="true" name="Reihersteg (Berlin)">
    </busStop>
    <busStop id="-386629497:39.87" lane="-386629497_0" startPos="26.87" endPos="52.87" friendlyPos="true" name="Waltersdorfer Str./Parchwitzer Str. (Berlin)">
    </busStop>
    <busStop id="-377862710#3:0.00" lane="-377862710#3_0" startPos="0.00" endPos="13.00" friendlyPos="true" name="Lindenstr./Waltersdorfer Str. (Berlin)">
    </busStop>
    <busStop id="-377862710#0:7.27" lane="-377862710#0_0" startPos="0.00" endPos="20.27" friendlyPos="true" name="Waldstr./Stadtgrenze (Berlin)">
    </busStop>
    <busStop id="-82212037#1:39.76" lane="-82212037#1_0" startPos="26.76" endPos="52.76" friendlyPos="true" name="Waltersdorf (bei Berlin), Gaspumpstation">
    </busStop>
    <busStop id="-4463790:214.91" lane="-4463790_0" startPos="201.91" endPos="227.91" friendlyPos="true" name="Waltersdorf (bei Berlin), Grünauer Str.">
    </busStop>
    <busStop id="-51304499#2:0.00" lane="-51304499#2_0" startPos="0.00" endPos="13.00" friendlyPos="true" name="Reihersteg (Berlin)">
    </busStop>
    <busStop id="377862710#0:2.48" lane="377862710#0_0" startPos="0.00" endPos="15.48" friendlyPos="true" name="Waldstr./Stadtgrenze (Berlin)">
    </busStop>
    <busStop id="377862710#3:110.19" lane="377862710#3_0" startPos="97.19" endPos="123.19" friendlyPos="true" name="Lindenstr./Waltersdorfer Str. (Berlin)">
    </busStop>
    <busStop id="386629497:0.00" lane="386629497_0" startPos="0.00" endPos="13.00" friendlyPos="true" name="Waltersdorfer Str./Parchwitzer Str. (Berlin)">
    </busStop>
    <busStop id="51304499#3:0.00" lane="51304499#3_0" startPos="0.00" endPos="13.00" friendlyPos="true" name="Reihersteg (Berlin)">
    </busStop>
    <busStop id="51304499#8:192.82" lane="51304499#8_0" startPos="179.82" endPos="205.82" friendlyPos="true" name="Schulzendorfer Str./Parchwitzer Str. (Berlin)">
    </busStop>
    <busStop id="151627032#3:84.30" lane="151627032#3_0" startPos="71.30" endPos="97.30" friendlyPos="true" name="Merkurstr. (Berlin)">
    </busStop>
    <busStop id="151627032#6:81.75" lane="151627032#6_0" startPos="68.75" endPos="94.75" friendlyPos="true" name="Neptunstr. (Berlin)">
    </busStop>
    <busStop id="658716831#0:92.56" lane="658716831#0_0" startPos="79.56" endPos="105.56" friendlyPos="true" name="Joachimstr. (Berlin)">
    </busStop>
    <busStop id="-151627020#0:27.00" lane="-151627020#0_0" startPos="14.00" endPos="40.00" friendlyPos="true" name="S Grünau (Berlin) [Richterstr.]">
    </busStop>
    <busStop id="4463790:273.30" lane="4463790_0" startPos="260.30" endPos="286.30" friendlyPos="true" name="Waltersdorf (bei Berlin), Grünauer Str.">
    </busStop>
    <busStop id="82212037#1:96.89" lane="82212037#1_0" startPos="83.89" endPos="109.89" friendlyPos="true" name="Waltersdorf (bei Berlin), Gaspumpstation">
    </busStop>
    <busStop id="30193970:7.17" lane="30193970_0" startPos="0.00" endPos="20.17" friendlyPos="true" name="Krankenhaus Hedwigshöhe (Berlin)">
    </busStop>
    <busStop id="388188275#0:24.80" lane="388188275#0_0" startPos="11.80" endPos="37.80" friendlyPos="true" name="Müggelheim/Dorf (Berlin)">
    </busStop>
    <busStop id="62450101#0:92.00" lane="62450101#0_0" startPos="79.00" endPos="105.00" friendlyPos="true" name="Alt-Müggelheim (Berlin)">
    </busStop>
    <busStop id="312839304#2:65.74" lane="312839304#2_0" startPos="52.74" endPos="78.74" friendlyPos="true" name="Waldfriedhof Müggelheim (Berlin)">
    </busStop>
    <busStop id="737018349#1:498.01" lane="737018349#1_0" startPos="485.01" endPos="511.01" friendlyPos="true" name="Gosener Kanal (Berlin)">
    </busStop>
    <busStop id="-737018349#1:62.61" lane="-737018349#1_0" startPos="49.61" endPos="75.61" friendlyPos="true" name="Gosener Kanal (Berlin)">
    </busStop>
    <busStop id="-312839304#2:261.13" lane="-312839304#2_0" startPos="248.13" endPos="274.13" friendlyPos="true" name="Waldfriedhof Müggelheim (Berlin)">
    </busStop>
    <busStop id="-62450101#0:33.10" lane="-62450101#0_0" startPos="20.10" endPos="46.10" friendlyPos="true" name="Alt-Müggelheim (Berlin)">
    </busStop>
    <busStop id="-169076541#2:35.49" lane="-169076541#2_0" startPos="22.49" endPos="48.49" friendlyPos="true" name="S Grünau (Berlin) [Wassersportallee]">
    </busStop>
    <busStop id="-52153733#1:6.74" lane="-52153733#1_0" startPos="0.00" endPos="19.74" friendlyPos="true" name="Wassersportallee (Berlin)">
    </busStop>
    <busStop id="52153733#1:52.00" lane="52153733#1_0" startPos="39.00" endPos="65.00" friendlyPos="true" name="Wassersportallee (Berlin)">
    </busStop>
    <busStop id="169076541#2:59.90" lane="169076541#2_0" startPos="46.90" endPos="72.90" friendlyPos="true" name="S Grünau (Berlin) [Wassersportallee]">
    </busStop>
    <busStop id="-40337452#0:156.12" lane="-40337452#0_0" startPos="143.12" endPos="169.12" friendlyPos="true" name="Waltersdorfer Str./Parchwitzer Str. (Berlin)">
    </busStop>
    <busStop id="-32204604#1:24.71" lane="-32204604#1_0" startPos="11.71" endPos="37.71" friendlyPos="true" name="Wendenschloß (Berlin)">
    </busStop>
    <busStop id="32204604#1:14.35" lane="32204604#1_0" startPos="1.35" endPos="27.35" friendlyPos="true" name="Wendenschloß (Berlin)">
    </busStop>
    <busStop id="445947592:104.84" lane="445947592_0" startPos="91.84" endPos="117.84" friendlyPos="true" name="Müggelbergallee (Berlin)">
    </busStop>
    <busStop id="328362698#1:21.96" lane="328362698#1_0" startPos="8.96" endPos="34.96" friendlyPos="true" name="S Grünau (Berlin) [Adlergestell]">
    </busStop>
    <busStop id="511575457#0:0.00" lane="511575457#0_0" startPos="0.00" endPos="13.00" friendlyPos="true" name="Adlergestell/Vetschauer Allee (Berlin)">
    </busStop>
    <busStop id="116171834#3:27.92" lane="116171834#3_0" startPos="14.92" endPos="40.92" friendlyPos="true" name="Lübbenauer Weg (Berlin)">
    </busStop>
    <busStop id="116171834#7:34.19" lane="116171834#7_0" startPos="21.19" endPos="47.19" friendlyPos="true" name="Schappachstr. (Berlin)">
    </busStop>
    <busStop id="26427693#0:445.53" lane="26427693#0_0" startPos="432.53" endPos="458.53" friendlyPos="true" name="Rübezahl (Berlin)">
    </busStop>
    <busStop id="26427693#1:23.08" lane="26427693#1_0" startPos="10.08" endPos="36.08" friendlyPos="true" name="Müggelseeperle (Berlin)">
    </busStop>
    <busStop id="-605914559#0:463.20" lane="-605914559#0_0" startPos="450.20" endPos="476.20" friendlyPos="true" name="Odernheimer Str. (Berlin)">
    </busStop>
    <busStop id="605914559#0:0.00" lane="605914559#0_0" startPos="0.00" endPos="13.00" friendlyPos="true" name="Odernheimer Str. (Berlin)">
    </busStop>
    <busStop id="605914559#0:397.42" lane="605914559#0_0" startPos="384.42" endPos="410.42" friendlyPos="true" name="Raumbacher Str. (Berlin)">
    </busStop>
    <busStop id="605914559#2:57.98" lane="605914559#2_0" startPos="44.98" endPos="70.98" friendlyPos="true" name="Rehborner Str. (Berlin)">
    </busStop>
    <busStop id="605914559#10:24.92" lane="605914559#10_0" startPos="11.92" endPos="37.92" friendlyPos="true" name="Annweilerweg (Berlin)">
    </busStop>
    <busStop id="26427750:41.57" lane="26427750_0" startPos="28.57" endPos="54.57" friendlyPos="true" name="Ludwigshöheweg (Berlin)">
    </busStop>
    <busStop id="-26427693#1:359.51" lane="-26427693#1_0" startPos="346.51" endPos="372.51" friendlyPos="true" name="Müggelseeperle (Berlin)">
    </busStop>
    <busStop id="-26427693#0:825.72" lane="-26427693#0_0" startPos="812.72" endPos="838.72" friendlyPos="true" name="Rübezahl (Berlin)">
    </busStop>
    <busStop id="388188274#0:52.65" lane="388188274#0_0" startPos="39.65" endPos="65.65" friendlyPos="true" name="Müggelheim/Dorf (Berlin)">
    </busStop>
    <busStop id="-605914559#10:35.03" lane="-605914559#10_0" startPos="22.03" endPos="48.03" friendlyPos="true" name="Annweilerweg (Berlin)">
    </busStop>
    <busStop id="-605914559#2:64.89" lane="-605914559#2_0" startPos="51.89" endPos="77.89" friendlyPos="true" name="Rehborner Str. (Berlin)">
    </busStop>
    <busStop id="-605914559#0:65.70" lane="-605914559#0_0" startPos="52.70" endPos="78.70" friendlyPos="true" name="Raumbacher Str. (Berlin)">
    </busStop>
    <busStop id="26427739#2:15.17" lane="26427739#2_0" startPos="2.17" endPos="28.17" friendlyPos="true" name="Ludwigshöheweg (Berlin)">
    </busStop>
    <trainStop id="31094941:102.98" lane="31094941_0" startPos="0.00" endPos="212.98" friendlyPos="true" name="S Grünau (Berlin)">
        <access friendlyPos="true" lane="65421534_0" pos="18.63" length="54.13"/>
        <access friendlyPos="true" lane="-65421534_0" pos="93.20" length="58.93"/>
        <access friendlyPos="true" lane="399203604#2_0" pos="0.21" length="62.83"/>
        <access friendlyPos="true" lane="399203605#2_0" pos="0.00" length="63.36"/>
        <access friendlyPos="true" lane="399203605#1_0" pos="0.19" length="63.35"/>
        <access friendlyPos="true" lane="399203590_0" pos="0.00" length="67.05"/>