<?xml version="1.0" encoding="UTF-8"?>

<!-- generated on 2022-08-10 09:10:32.117961 by gtfs2pt.py v1_14_1+0176-63282600d8d
<configuration>
    <date value="20160713"/>
    <gtfs value="https://sumo.dlr.de/daily/GTFS_VBB_Juni-Dezember-2016.zip"/>
    <network value="data/eichwalde.net.xml.gz"/>
</configuration>
-->

<routes xmlns:xsi="http://www.w3.org/2001/XMLSchema-instance" xsi:noNamespaceSchemaLocation="http://sumo.dlr.de/xsd/routes_file.xsd">
    <vehicle id="S46_92988.0" route="92988" type="train" depart="14630" line="S46_92988"/>
    <vehicle id="S46_92990.0" route="92988" type="train" depart="15830" line="S46_92988"/>
    <vehicle id="S46_92929.0" route="92929" type="train" depart="17030" line="S46_92929"/>
    <vehicle id="S46_92930.0" route="92929" type="train" depart="18230" line="S46_92929"/>
    <vehicle id="S46_92931.0" route="92929" type="train" depart="19430" line="S46_92929"/>
    <vehicle id="S46_92932.0" route="92929" type="train" depart="20630" line="S46_92929"/>
    <vehicle id="S46_92933.0" route="92929" type="train" depart="21830" line="S46_92929"/>
    <vehicle id="S46_92934.0" route="92929" type="train" depart="23030" line="S46_92929"/>
    <vehicle id="S46_92935.0" route="92929" type="train" depart="24230" line="S46_92929"/>
    <vehicle id="S46_92936.0" route="92929" type="train" depart="25430" line="S46_92929"/>
    <vehicle id="S46_92937.0" route="92929" type="train" depart="26630" line="S46_92929"/>
    <vehicle id="S46_92938.0" route="92929" type="train" depart="27830" line="S46_92929"/>
    <vehicle id="S46_92939.0" route="92929" type="train" depart="29030" line="S46_92929"/>
    <vehicle id="S46_92940.0" route="92929" type="train" depart="30230" line="S46_92929"/>
    <vehicle id="S46_92941.0" route="92929" type="train" depart="31430" line="S46_92929"/>
    <vehicle id="S46_92942.0" route="92929" type="train" depart="32630" line="S46_92929"/>
    <vehicle id="S46_92943.0" route="92929" type="train" depart="33830" line="S46_92929"/>
    <vehicle id="S46_92944.0" route="92929" type="train" depart="35030" line="S46_92929"/>
    <vehicle id="S46_92945.0" route="92929" type="train" depart="36230" line="S46_92929"/>
    <vehicle id="S46_92946.0" route="92929" type="train" depart="37430" line="S46_92929"/>
    <vehicle id="S46_92947.0" route="92929" type="train" depart="38630" line="S46_92929"/>
    <vehicle id="S46_92948.0" route="92929" type="train" depart="39830" line="S46_92929"/>
    <vehicle id="S46_92949.0" route="92929" type="train" depart="41030" line="S46_92929"/>
    <vehicle id="S46_92950.0" route="92929" type="train" depart="42230" line="S46_92929"/>
    <vehicle id="S46_92951.0" route="92929" type="train" depart="43430" line="S46_92929"/>
    <vehicle id="S46_92952.0" route="92929" type="train" depart="44630" line="S46_92929"/>
    <vehicle id="S46_92953.0" route="92929" type="train" depart="45830" line="S46_92929"/>
    <vehicle id="S46_92954.0" route="92929" type="train" depart="47030" line="S46_92929"/>
    <vehicle id="S46_92955.0" route="92929" type="train" depart="77030" line="S46_92929"/>
    <vehicle id="S46_92956.0" route="92929" type="train" depart="78230" line="S46_92929"/>
    <vehicle id="S46_92957.0" route="92929" type="train" depart="79430" line="S46_92929"/>
    <vehicle id="S46_92958.0" route="92929" type="train" depart="80630" line="S46_92929"/>
    <vehicle id="S46_92959.0" route="92929" type="train" depart="81830" line="S46_92929"/>
    <vehicle id="S46_92960.0" route="92929" type="train" depart="83030" line="S46_92929"/>
    <vehicle id="S46_92961.0" route="92929" type="train" depart="84230" line="S46_92929"/>
    <vehicle id="S46_92962.0" route="92929" type="train" depart="75830" line="S46_92929"/>
    <vehicle id="S46_92963.0" route="92929" type="train" depart="48230" line="S46_92929"/>
    <vehicle id="S46_92964.0" route="92929" type="train" depart="49430" line="S46_92929"/>
    <vehicle id="S46_92965.0" route="92929" type="train" depart="50630" line="S46_92929"/>
    <vehicle id="S46_92966.0" route="92929" type="train" depart="51830" line="S46_92929"/>
    <vehicle id="S46_92967.0" route="92929" type="train" depart="53030" line="S46_92929"/>
    <vehicle id="S46_92968.0" route="92929" type="train" depart="54230" line="S46_92929"/>
    <vehicle id="S46_92969.0" route="92929" type="train" depart="55430" line="S46_92929"/>
    <vehicle id="S46_92970.0" route="92929" type="train" depart="56630" line="S46_92929"/>
    <vehicle id="S46_92971.0" route="92929" type="train" depart="57830" line="S46_92929"/>
    <vehicle id="S46_92972.0" route="92929" type="train" depart="59030" line="S46_92929"/>
    <vehicle id="S46_92973.0" route="92929" type="train" depart="60230" line="S46_92929"/>
    <vehicle id="S46_92974.0" route="92929" type="train" depart="61430" line="S46_92929"/>
    <vehicle id="S46_92975.0" route="92929" type="train" depart="62630" line="S46_92929"/>
    <vehicle id="S46_92976.0" route="92929" type="train" depart="63830" line="S46_92929"/>
    <vehicle id="S46_92977.0" route="92929" type="train" depart="65030" line="S46_92929"/>
    <vehicle id="S46_92978.0" route="92929" type="train" depart="66230" line="S46_92929"/>
    <vehicle id="S46_92979.0" route="92929" type="train" depart="67430" line="S46_92929"/>
    <vehicle id="S46_92980.0" route="92929" type="train" depart="68630" line="S46_92929"/>
    <vehicle id="S46_92981.0" route="92929" type="train" depart="69830" line="S46_92929"/>
    <vehicle id="S46_92982.0" route="92929" type="train" depart="71030" line="S46_92929"/>
    <vehicle id="S46_92983.0" route="92929" type="train" depart="72230" line="S46_92929"/>
    <vehicle id="S46_92984.0" route="92929" type="train" depart="73430" line="S46_92929"/>
    <vehicle id="S46_92985.0" route="92929" type="train" depart="74630" line="S46_92929"/>
    <vehicle id="S46_93017.0" route="93017" type="train" depart="85430" line="S46_93017"/>
    <vehicle id="S46_93224.0" route="93224" type="train" depart="15470" line="S46_93224"/>
    <vehicle id="S46_93225.0" route="93224" type="train" depart="16670" line="S46_93224"/>
    <vehicle id="S46_93285.0" route="93285" type="train" depart="21470" line="S46_93285"/>
    <vehicle id="S46_93286.0" route="93285" type="train" depart="22670" line="S46_93285"/>
    <vehicle id="S46_93287.0" route="93285" type="train" depart="23870" line="S46_93285"/>
    <vehicle id="S46_93288.0" route="93285" type="train" depart="25070" line="S46_93285"/>
    <vehicle id="S46_93289.0" route="93285" type="train" depart="26270" line="S46_93285"/>
    <vehicle id="S46_93290.0" route="93285" type="train" depart="27470" line="S46_93285"/>
    <vehicle id="S46_93291.0" route="93285" type="train" depart="28670" line="S46_93285"/>
    <vehicle id="S46_93292.0" route="93285" type="train" depart="29870" line="S46_93285"/>
    <vehicle id="S46_93293.0" route="93285" type="train" depart="31070" line="S46_93285"/>
    <vehicle id="S46_93294.0" route="93285" type="train" depart="32270" line="S46_93285"/>
    <vehicle id="S46_93295.0" route="93285" type="train" depart="33470" line="S46_93285"/>
    <vehicle id="S46_93296.0" route="93285" type="train" depart="34670" line="S46_93285"/>
    <vehicle id="S46_93297.0" route="93285" type="train" depart="35870" line="S46_93285"/>
    <vehicle id="S46_93298.0" route="93285" type="train" depart="37070" line="S46_93285"/>
    <vehicle id="S46_93299.0" route="93285" type="train" depart="38270" line="S46_93285"/>
    <vehicle id="S46_93300.0" route="93285" type="train" depart="39470" line="S46_93285"/>
    <vehicle id="S46_93301.0" route="93285" type="train" depart="40670" line="S46_93285"/>
    <vehicle id="S46_93302.0" route="93285" type="train" depart="41870" line="S46_93285"/>
    <vehicle id="S46_93303.0" route="93285" type="train" depart="43070" line="S46_93285"/>
    <vehicle id="S46_93304.0" route="93285" type="train" depart="44270" line="S46_93285"/>
    <vehicle id="S46_93305.0" route="93285" type="train" depart="45470" line="S46_93285"/>
    <vehicle id="S46_93306.0" route="93285" type="train" depart="82670" line="S46_93285"/>
    <vehicle id="S46_93307.0" route="93285" type="train" depart="83870" line="S46_93285"/>
    <vehicle id="S46_93308.0" route="93285" type="train" depart="85070" line="S46_93285"/>
    <vehicle id="S46_93309.0" route="93285" type="train" depart="86270" line="S46_93285"/>
    <vehicle id="S46_93311.0" route="93285" type="train" depart="81470" line="S46_93285"/>
    <vehicle id="S46_93312.0" route="93285" type="train" depart="46670" line="S46_93285"/>
    <vehicle id="S46_93313.0" route="93285" type="train" depart="47870" line="S46_93285"/>
    <vehicle id="S46_93314.0" route="93285" type="train" depart="49070" line="S46_93285"/>
    <vehicle id="S46_93315.0" route="93285" type="train" depart="50270" line="S46_93285"/>
    <vehicle id="S46_93316.0" route="93285" type="train" depart="51470" line="S46_93285"/>
    <vehicle id="S46_93317.0" route="93285" type="train" depart="52670" line="S46_93285"/>
    <vehicle id="S46_93318.0" route="93285" type="train" depart="53870" line="S46_93285"/>
    <vehicle id="S46_93319.0" route="93285" type="train" depart="55070" line="S46_93285"/>
    <vehicle id="S46_93320.0" route="93285" type="train" depart="56270" line="S46_93285"/>
    <vehicle id="S46_93321.0" route="93285" type="train" depart="57470" line="S46_93285"/>
    <vehicle id="S46_93322.0" route="93285" type="train" depart="58670" line="S46_93285"/>
    <vehicle id="S46_93323.0" route="93285" type="train" depart="59870" line="S46_93285"/>
    <vehicle id="S46_93324.0" route="93285" type="train" depart="61070" line="S46_93285"/>
    <vehicle id="S46_93325.0" route="93285" type="train" depart="62270" line="S46_93285"/>
    <vehicle id="S46_93326.0" route="93285" type="train" depart="63470" line="S46_93285"/>
    <vehicle id="S46_93327.0" route="93285" type="train" depart="64670" line="S46_93285"/>
    <vehicle id="S46_93328.0" route="93285" type="train" depart="65870" line="S46_93285"/>
    <vehicle id="S46_93329.0" route="93285" type="train" depart="67070" line="S46_93285"/>
    <vehicle id="S46_93330.0" route="93285" type="train" depart="68270" line="S46_93285"/>
    <vehicle id="S46_93331.0" route="93285" type="train" depart="69470" line="S46_93285"/>
    <vehicle id="S46_93332.0" route="93285" type="train" depart="70670" line="S46_93285"/>
    <vehicle id="S46_93333.0" route="93285" type="train" depart="71870" line="S46_93285"/>
    <vehicle id="S46_93334.0" route="93285" type="train" depart="73070" line="S46_93285"/>
    <vehicle id="S46_93335.0" route="93285" type="train" depart="74270" line="S46_93285"/>
    <vehicle id="S46_93336.0" route="93285" type="train" depart="75470" line="S46_93285"/>
    <vehicle id="S46_93337.0" route="93285" type="train" depart="76670" line="S46_93285"/>
    <vehicle id="S46_93338.0" route="93285" type="train" depart="77870" line="S46_93285"/>
    <vehicle id="S46_93339.0" route="93285" type="train" depart="79070" line="S46_93285"/>
    <vehicle id="S46_93340.0" route="93285" type="train" depart="80270" line="S46_93285"/>
    <vehicle id="S46_93351.0" route="93351" type="train" depart="19070" line="S46_93351"/>
    <vehicle id="S46_93352.0" route="93351" type="train" depart="20270" line="S46_93351"/>
    <vehicle id="S46_93359.0" route="93359" type="train" depart="17870" line="S46_93359"/>
    <vehicle id="S8_96476.0" route="96476" type="train" depart="67190" line="S8_96476"/>
    <vehicle id="S8_96477.0" route="96476" type="train" depart="70790" line="S8_96476"/>
    <vehicle id="S8_96478.0" route="96476" type="train" depart="20390" line="S8_96476"/>
    <vehicle id="S8_96479.0" route="96476" type="train" depart="23990" line="S8_96476"/>
    <vehicle id="S8_96480.0" route="96476" type="train" depart="27590" line="S8_96476"/>
    <vehicle id="S8_96481.0" route="96476" type="train" depart="31190" line="S8_96476"/>
    <vehicle id="S8_96482.0" route="96476" type="train" depart="56390" line="S8_96476"/>
    <vehicle id="S8_96483.0" route="96476" type="train" depart="59990" line="S8_96476"/>
    <vehicle id="S8_96484.0" route="96476" type="train" depart="63590" line="S8_96476"/>
    <vehicle id="S8_96487.0" route="96476" type="train" depart="65990" line="S8_96476"/>
    <vehicle id="S8_96488.0" route="96476" type="train" depart="68390" line="S8_96476"/>
    <vehicle id="S8_96489.0" route="96476" type="train" depart="69590" line="S8_96476"/>
    <vehicle id="S8_96490.0" route="96476" type="train" depart="19190" line="S8_96476"/>
    <vehicle id="S8_96491.0" route="96476" type="train" depart="21590" line="S8_96476"/>
    <vehicle id="S8_96492.0" route="96476" type="train" depart="22790" line="S8_96476"/>
    <vehicle id="S8_96493.0" route="96476" type="train" depart="25190" line="S8_96476"/>
    <vehicle id="S8_96494.0" route="96476" type="train" depart="26390" line="S8_96476"/>
    <vehicle id="S8_96495.0" route="96476" type="train" depart="28790" line="S8_96476"/>
    <vehicle id="S8_96496.0" route="96476" type="train" depart="29990" line="S8_96476"/>
    <vehicle id="S8_96497.0" route="96476" type="train" depart="32390" line="S8_96476"/>
    <vehicle id="S8_96498.0" route="96476" type="train" depart="53990" line="S8_96476"/>
    <vehicle id="S8_96499.0" route="96476" type="train" depart="55190" line="S8_96476"/>
    <vehicle id="S8_96500.0" route="96476" type="train" depart="57590" line="S8_96476"/>
    <vehicle id="S8_96501.0" route="96476" type="train" depart="58790" line="S8_96476"/>
    <vehicle id="S8_96502.0" route="96476" type="train" depart="61190" line="S8_96476"/>
    <vehicle id="S8_96503.0" route="96476" type="train" depart="62390" line="S8_96476"/>
    <vehicle id="S8_96504.0" route="96476" type="train" depart="64790" line="S8_96476"/>
    <vehicle id="S8_96602.0" route="96602" type="train" depart="65270" line="S8_96602"/>
    <vehicle id="S8_96603.0" route="96602" type="train" depart="66470" line="S8_96602"/>
    <vehicle id="S8_96604.0" route="96602" type="train" depart="67670" line="S8_96602"/>
    <vehicle id="S8_96605.0" route="96602" type="train" depart="68870" line="S8_96602"/>
    <vehicle id="S8_96606.0" route="96602" type="train" depart="70070" line="S8_96602"/>
    <vehicle id="S8_96607.0" route="96602" type="train" depart="19670" line="S8_96602"/>
    <vehicle id="S8_96608.0" route="96602" type="train" depart="20870" line="S8_96602"/>
    <vehicle id="S8_96609.0" route="96602" type="train" depart="22070" line="S8_96602"/>
    <vehicle id="S8_96610.0" route="96602" type="train" depart="23270" line="S8_96602"/>
    <vehicle id="S8_96611.0" route="96602" type="train" depart="24470" line="S8_96602"/>
    <vehicle id="S8_96612.0" route="96602" type="train" depart="25670" line="S8_96602"/>
    <vehicle id="S8_96613.0" route="96602" type="train" depart="26870" line="S8_96602"/>
    <vehicle id="S8_96614.0" route="96602" type="train" depart="28070" line="S8_96602"/>
    <vehicle id="S8_96615.0" route="96602" type="train" depart="29270" line="S8_96602"/>
    <vehicle id="S8_96616.0" route="96602" type="train" depart="30470" line="S8_96602"/>
    <vehicle id="S8_96617.0" route="96602" type="train" depart="31670" line="S8_96602"/>
    <vehicle id="S8_96618.0" route="96602" type="train" depart="53270" line="S8_96602"/>
    <vehicle id="S8_96619.0" route="96602" type="train" depart="54470" line="S8_96602"/>
    <vehicle id="S8_96620.0" route="96602" type="train" depart="55670" line="S8_96602"/>
    <vehicle id="S8_96621.0" route="96602" type="train" depart="56870" line="S8_96602"/>
    <vehicle id="S8_96622.0" route="96602" type="train" depart="58070" line="S8_96602"/>
    <vehicle id="S8_96623.0" route="96602" type="train" depart="59270" line="S8_96602"/>
    <vehicle id="S8_96624.0" route="96602" type="train" depart="60470" line="S8_96602"/>
    <vehicle id="S8_96625.0" route="96602" type="train" depart="61670" line="S8_96602"/>
    <vehicle id="S8_96626.0" route="96602" type="train" depart="62870" line="S8_96602"/>
    <vehicle id="S8_96627.0" route="96602" type="train" depart="64070" line="S8_96602"/>
    <vehicle id="S8_96700.0" route="96700" type="train" depart="18470" line="S8_96700"/>
    <vehicle id="733_109241.0" route="109241" type="bus" depart="17150" line="733_109241"/>
    <vehicle id="733_109242.0" route="109242" type="bus" depart="19190" line="733_109242"/>
    <vehicle id="733_109243.0" route="109243" type="bus" depart="24890" line="733_109243"/>
    <vehicle id="733_109244.0" route="109244" type="bus" depart="28550" line="733_109244"/>
    <vehicle id="733_280056.0" route="280056" type="bus" depart="21350" line="733_280056"/>
    <vehicle id="733_280370.0" route="280370" type="bus" depart="21590" line="733_280370"/>
    <vehicle id="733_280860.0" route="280860" type="bus" depart="24950" line="733_280860"/>
    <vehicle id="733_281591.0" route="281591" type="bus" depart="25190" line="733_281591"/>
    <vehicle id="733_281760.0" route="109244" type="bus" depart="28550" line="733_109244"/>
    <vehicle id="733_281867.0" route="281867" type="bus" depart="27590" line="733_281867"/>
    <vehicle id="733_282214.0" route="281867" type="bus" depart="31190" line="733_281867"/>
    <vehicle id="733_282227.0" route="109244" type="bus" depart="32150" line="733_109244"/>
    <vehicle id="733_282519.0" route="109244" type="bus" depart="35750" line="733_109244"/>
    <vehicle id="733_282672.0" route="281867" type="bus" depart="34790" line="733_281867"/>
    <vehicle id="733_283045.0" route="281867" type="bus" depart="38390" line="733_281867"/>
    <vehicle id="733_283061.0" route="109244" type="bus" depart="39350" line="733_109244"/>
    <vehicle id="733_283300.0" route="109244" type="bus" depart="42950" line="733_109244"/>
    <vehicle id="733_283480.0" route="281867" type="bus" depart="41990" line="733_281867"/>
    <vehicle id="733_283895.0" route="281867" type="bus" depart="45590" line="733_281867"/>
    <vehicle id="733_283911.0" route="109244" type="bus" depart="46550" line="733_109244"/>
    <vehicle id="733_284327.0" route="109244" type="bus" depart="50150" line="733_109244"/>
    <vehicle id="733_284493.0" route="281867" type="bus" depart="49190" line="733_281867"/>
    <vehicle id="733_284994.0" route="109244" type="bus" depart="53750" line="733_109244"/>
    <vehicle id="733_285265.0" route="285265" type="bus" depart="56510" line="733_285265"/>
    <vehicle id="733_285272.0" route="109244" type="bus" depart="57350" line="733_109244"/>
    <vehicle id="733_285698.0" route="281867" type="bus" depart="59990" line="733_281867"/>
    <vehicle id="733_285713.0" route="280056" type="bus" depart="60950" line="733_280056"/>
    <vehicle id="733_285921.0" route="280370" type="bus" depart="63590" line="733_280370"/>
    <vehicle id="733_285961.0" route="280056" type="bus" depart="64550" line="733_280056"/>
    <vehicle id="733_286201.0" route="280370" type="bus" depart="67190" line="733_280370"/>
    <vehicle id="733_286205.0" route="280056" type="bus" depart="68150" line="733_280056"/>
    <vehicle id="733_286317.0" route="280056" type="bus" depart="71750" line="733_280056"/>
    <vehicle id="733_286347.0" route="280370" type="bus" depart="70790" line="733_280370"/>
    <vehicle id="733_286497.0" route="280056" type="bus" depart="75350" line="733_280056"/>
    <vehicle id="735_109251.0" route="109251" type="bus" depart="17450" line="735_109251"/>
    <vehicle id="735_109252.0" route="109251" type="bus" depart="21050" line="735_109251"/>
    <vehicle id="735_109253.0" route="109251" type="bus" depart="27950" line="735_109251"/>
    <vehicle id="735_109254.0" route="109254" type="bus" depart="60590" line="735_109254"/>
    <vehicle id="735_109255.0" route="109254" type="bus" depart="64190" line="735_109254"/>
    <vehicle id="735_109258.0" route="109258" type="bus" depart="53570" line="735_109258"/>
    <vehicle id="735_109259.0" route="109258" type="bus" depart="57170" line="735_109258"/>
    <vehicle id="735_109260.0" route="109260" type="bus" depart="24650" line="735_109260"/>
    <vehicle id="735_109261.0" route="109261" type="bus" depart="22250" line="735_109261"/>
    <vehicle id="735_109262.0" route="109261" type="bus" depart="25850" line="735_109261"/>
    <vehicle id="735_281305.0" route="109260" type="bus" depart="24650" line="735_109260"/>
    <vehicle id="735_282164.0" route="282164" type="bus" depart="29690" line="735_282164"/>
    <vehicle id="735_282604.0" route="282164" type="bus" depart="33290" line="735_282164"/>
    <vehicle id="735_282948.0" route="282164" type="bus" depart="36890" line="735_282164"/>
    <vehicle id="735_283347.0" route="282164" type="bus" depart="40490" line="735_282164"/>
    <vehicle id="735_283810.0" route="282164" type="bus" depart="44090" line="735_282164"/>
    <vehicle id="735_284349.0" route="282164" type="bus" depart="47690" line="735_282164"/>
    <vehicle id="735_284892.0" route="282164" type="bus" depart="51290" line="735_282164"/>
    <vehicle id="735_285183.0" route="282164" type="bus" depart="54890" line="735_282164"/>
    <vehicle id="735_285617.0" route="282164" type="bus" depart="58490" line="735_282164"/>
    <vehicle id="735_285870.0" route="282164" type="bus" depart="62090" line="735_282164"/>
    <vehicle id="735_286134.0" route="282164" type="bus" depart="65690" line="735_282164"/>
    <vehicle id="735_286281.0" route="282164" type="bus" depart="69290" line="735_282164"/>
    <vehicle id="736_109264.0" route="109264" type="bus" depart="19610" line="736_109264"/>
    <vehicle id="736_109265.0" route="109264" type="bus" depart="37610" line="736_109264"/>
    <vehicle id="736_109266.0" route="109264" type="bus" depart="41210" line="736_109264"/>
    <vehicle id="736_109267.0" route="109264" type="bus" depart="44810" line="736_109264"/>
    <vehicle id="736_109268.0" route="109264" type="bus" depart="48410" line="736_109264"/>
    <vehicle id="736_109269.0" route="109264" type="bus" depart="52010" line="736_109264"/>
    <vehicle id="736_109270.0" route="109264" type="bus" depart="55610" line="736_109264"/>
    <vehicle id="736_109271.0" route="109264" type="bus" depart="59210" line="736_109264"/>
    <vehicle id="736_109272.0" route="109264" type="bus" depart="62810" line="736_109264"/>
    <vehicle id="736_109273.0" route="109264" type="bus" depart="66410" line="736_109264"/>
    <vehicle id="736_109274.0" route="109264" type="bus" depart="23210" line="736_109264"/>
    <vehicle id="736_109275.0" route="109264" type="bus" depart="26810" line="736_109264"/>
    <vehicle id="736_109276.0" route="109264" type="bus" depart="30410" line="736_109264"/>
    <vehicle id="736_109277.0" route="109264" type="bus" depart="34010" line="736_109264"/>
    <vehicle id="736_281396.0" route="281396" type="bus" depart="24530" line="736_281396"/>
    <vehicle id="736_281695.0" route="281695" type="bus" depart="26930" line="736_281695"/>
    <vehicle id="736_281979.0" route="281979" type="bus" depart="26930" line="736_281979"/>
    <vehicle id="736_282283.0" route="281979" type="bus" depart="30530" line="736_281979"/>
    <vehicle id="736_282493.0" route="281396" type="bus" depart="35330" line="736_281396"/>
    <vehicle id="736_282935.0" route="281396" type="bus" depart="38930" line="736_281396"/>
    <vehicle id="736_283262.0" route="281396" type="bus" depart="42530" line="736_281396"/>
    <vehicle id="736_283753.0" route="281396" type="bus" depart="46130" line="736_281396"/>
    <vehicle id="736_284296.0" route="281396" type="bus" depart="49730" line="736_281396"/>
    <vehicle id="736_284866.0" route="284866" type="bus" depart="52550" line="736_284866"/>
    <vehicle id="736_285145.0" route="284866" type="bus" depart="56150" line="736_284866"/>
    <vehicle id="736_285570.0" route="284866" type="bus" depart="59750" line="736_284866"/>
    <vehicle id="736_285834.0" route="284866" type="bus" depart="63350" line="736_284866"/>
    <vehicle id="736_286098.0" route="284866" type="bus" depart="66950" line="736_284866"/>
    <vehicle id="738_109298.0" route="109298" type="bus" depart="68210" line="738_109298"/>
    <vehicle id="738_109299.0" route="109298" type="bus" depart="71810" line="738_109298"/>
    <vehicle id="738_109300.0" route="109300" type="bus" depart="32210" line="738_109300"/>
    <vehicle id="738_109301.0" route="109300" type="bus" depart="35810" line="738_109300"/>
    <vehicle id="738_109302.0" route="109300" type="bus" depart="39410" line="738_109300"/>
    <vehicle id="738_109303.0" route="109300" type="bus" depart="57410" line="738_109300"/>
    <vehicle id="738_109304.0" route="109300" type="bus" depart="61010" line="738_109300"/>
    <vehicle id="738_109305.0" route="109300" type="bus" depart="64610" line="738_109300"/>
    <vehicle id="738_109306.0" route="109306" type="bus" depart="76190" line="738_109306"/>
    <vehicle id="738_109307.0" route="109300" type="bus" depart="43190" line="738_109300"/>
    <vehicle id="738_109308.0" route="109300" type="bus" depart="46790" line="738_109300"/>
    <vehicle id="738_109309.0" route="109300" type="bus" depart="50390" line="738_109300"/>
    <vehicle id="738_109310.0" route="109300" type="bus" depart="53990" line="738_109300"/>
    <vehicle id="738_109312.0" route="109312" type="bus" depart="28610" line="738_109312"/>
    <vehicle id="738_109313.0" route="109312" type="bus" depart="21410" line="738_109312"/>
    <vehicle id="738_109315.0" route="109315" type="bus" depart="17810" line="738_109315"/>
    <vehicle id="738_109328.0" route="109328" type="bus" depart="28130" line="738_109328"/>
    <vehicle id="738_109329.0" route="109329" type="bus" depart="45650" line="738_109329"/>
    <vehicle id="738_109330.0" route="109329" type="bus" depart="49250" line="738_109329"/>
    <vehicle id="738_109331.0" route="109329" type="bus" depart="52850" line="738_109329"/>
    <vehicle id="738_109332.0" route="109329" type="bus" depart="56450" line="738_109329"/>
    <vehicle id="738_109333.0" route="109329" type="bus" depart="60050" line="738_109329"/>
    <vehicle id="738_109334.0" route="109329" type="bus" depart="63650" line="738_109329"/>
    <vehicle id="738_109335.0" route="109329" type="bus" depart="67250" line="738_109329"/>
    <vehicle id="738_109336.0" route="109329" type="bus" depart="70850" line="738_109329"/>
    <vehicle id="738_109337.0" route="109337" type="bus" depart="74450" line="738_109337"/>
    <vehicle id="738_109344.0" route="109344" type="bus" depart="34850" line="738_109344"/>
    <vehicle id="738_109345.0" route="109344" type="bus" depart="38450" line="738_109344"/>
    <vehicle id="738_109346.0" route="109344" type="bus" depart="42050" line="738_109344"/>
    <vehicle id="738_109347.0" route="109347" type="bus" depart="16850" line="738_109347"/>
    <vehicle id="738_109348.0" route="109347" type="bus" depart="20450" line="738_109347"/>
    <vehicle id="738_109349.0" route="109349" type="bus" depart="27650" line="738_109349"/>
    <vehicle id="738_109350.0" route="109349" type="bus" depart="31250" line="738_109349"/>
    <vehicle id="738_109351.0" route="109349" type="bus" depart="24050" line="738_109349"/>
    <vehicle id="738_281710.0" route="281710" type="bus" depart="25010" line="738_281710"/>
    <vehicle id="738_281995.0" route="109328" type="bus" depart="28130" line="738_109328"/>
    <vehicle id="741_109412.0" route="109412" type="bus" depart="43010" line="741_109412"/>
    <vehicle id="741_109413.0" route="109412" type="bus" depart="46610" line="741_109412"/>
    <vehicle id="741_109414.0" route="109412" type="bus" depart="50210" line="741_109412"/>
    <vehicle id="741_109415.0" route="109412" type="bus" depart="53810" line="741_109412"/>
    <vehicle id="741_281152.0" route="281152" type="bus" depart="25910" line="741_281152"/>
    <vehicle id="428_2437.0" route="2437" type="bus" depart="24350" line="428_2437"/>
    <vehicle id="428_2442.0" route="2442" type="bus" depart="24770" line="428_2442"/>
    <vehicle id="428_280228.0" route="2437" type="bus" depart="22850" line="428_2437"/>
    <vehicle id="428_280229.0" route="280229" type="bus" depart="23090" line="428_280229"/>
    <vehicle id="428_282229.0" route="282229" type="bus" depart="45890" line="428_282229"/>
    <vehicle id="428_282230.0" route="282230" type="bus" depart="46310" line="428_282230"/>
    <vehicle id="428_282554.0" route="282554" type="bus" depart="48950" line="428_282554"/>
    <vehicle id="428_282555.0" route="280229" type="bus" depart="49430" line="428_280229"/>
    <vehicle id="428_283211.0" route="282554" type="bus" depart="52550" line="428_282554"/>
    <vehicle id="428_283212.0" route="283212" type="bus" depart="53570" line="428_283212"/>
    <vehicle id="428_283703.0" route="283703" type="bus" depart="56870" line="428_283703"/>
    <vehicle id="428_283704.0" route="280229" type="bus" depart="57770" line="428_280229"/>
    <vehicle id="734_280055.0" route="280055" type="bus" depart="20570" line="734_280055"/>
    <vehicle id="734_280859.0" route="280055" type="bus" depart="24170" line="734_280055"/>
    <vehicle id="734_281066.0" route="281066" type="bus" depart="24950" line="734_281066"/>
    <vehicle id="734_281759.0" route="281759" type="bus" depart="27830" line="734_281759"/>
    <vehicle id="734_281868.0" route="281868" type="bus" depart="28550" line="734_281868"/>
    <vehicle id="734_282215.0" route="281868" type="bus" depart="32150" line="734_281868"/>
    <vehicle id="734_282226.0" route="282226" type="bus" depart="31370" line="734_282226"/>
    <vehicle id="734_282518.0" route="280055" type="bus" depart="34970" line="734_280055"/>
    <vehicle id="734_282673.0" route="281868" type="bus" depart="35750" line="734_281868"/>
    <vehicle id="734_283046.0" route="281868" type="bus" depart="39350" line="734_281868"/>
    <vehicle id="734_283060.0" route="282226" type="bus" depart="38570" line="734_282226"/>
    <vehicle id="734_283299.0" route="280055" type="bus" depart="42170" line="734_280055"/>