<additional xmlns:xsi="http://www.w3.org/2001/XMLSchema-instance" xsi:noNamespaceSchemaLocation="https://sumo.dlr.de/xsd/additional_file.xsd">

	<!-- Entry without E3 parent -->
	<detEntry lane="gneE1_0" pos="10"/>
	
</additional>
