<?xml version="1.0" encoding="UTF-8"?>

<!-- generated on 2024-06-28 14:29:59 by Eclipse SUMO netedit Version v1_20_0+1039-25f5ab4053c
This data file and the accompanying materials
are made available under the terms of the Eclipse Public License v2.0
which accompanies this distribution, and is available at
http://www.eclipse.org/legal/epl-v20.html
This file may also be made available under the following Secondary
Licenses when the conditions for such availability set forth in the Eclipse
Public License 2.0 are satisfied: GNU General Public License, version 2
or later which is available at
https://www.gnu.org/licenses/old-licenses/gpl-2.0-standalone.html
SPDX-License-Identifier: EPL-2.0 OR GPL-2.0-or-later
<neteditConfiguration xmlns:xsi="http://www.w3.org/2001/XMLSchema-instance" xsi:noNamespaceSchemaLocation="http://sumo.dlr.de/xsd/neteditConfiguration.xsd">

    <input>
        <additional-files value="/home/palcraft/.texttest/tmp/netedit.gui.28Jun141425.2030/netedit.gui/network/junctions/inspect/no_tls/unselected/pos/additionals.add.xml"/>
        <route-files value="/home/palcraft/.texttest/tmp/netedit.gui.28Jun141425.2030/netedit.gui/network/junctions/inspect/no_tls/unselected/pos/routes.rou.xml"/>
        <data-files value="/home/palcraft/.texttest/tmp/netedit.gui.28Jun141425.2030/netedit.gui/network/junctions/inspect/no_tls/unselected/pos/datas.dat.xml"/>
        <sumo-net-file value="/home/palcraft/.texttest/tmp/netedit.gui.28Jun141425.2030/netedit.gui/network/junctions/inspect/no_tls/unselected/pos/net.net.xml"/>
    </input>

    <output>
        <write-license value="true"/>
        <output-file value="/home/palcraft/.texttest/tmp/netedit.gui.28Jun141425.2030/netedit.gui/network/junctions/inspect/no_tls/unselected/pos/net.net.xml"/>
    </output>

    <processing>
        <geometry.min-radius.fix.railways value="false"/>
        <geometry.max-grade.fix value="false"/>
        <offset.disable-normalization value="true"/>
        <lefthand value="0"/>
    </processing>

    <junctions>
        <no-internal-links value="false"/>
        <no-turnarounds value="true"/>
        <junctions.corner-detail value="5"/>
        <junctions.limit-turn-speed value="5.50"/>
        <rectangular-lane-cut value="0"/>
    </junctions>

    <pedestrian>
        <walkingareas value="1"/>
    </pedestrian>

    <netedit>
        <ignore-supermode-question value="true"/>
    </netedit>

    <visualisation>
        <gui-settings-file value="/home/palcraft/.texttest/tmp/netedit.gui.28Jun141425.2030/netedit.gui/network/junctions/inspect/no_tls/unselected/pos/gui-settings.xml"/>
        <window-size value="1280, 720"/>
        <window-pos value="50,50"/>
        <gui-testing value="true"/>
        <gui-testing.setting-output value="/home/palcraft/.texttest/tmp/netedit.gui.28Jun141425.2030/netedit.gui/network/junctions/inspect/no_tls/unselected/pos/guisettingsoutput.xml"/>
    </visualisation>

    <report>
        <no-warnings value="true"/>
        <error-log value="/home/palcraft/.texttest/tmp/netedit.gui.28Jun141425.2030/netedit.gui/network/junctions/inspect/no_tls/unselected/pos/log.txt"/>
    </report>

</neteditConfiguration>
-->

<net version="1.20" junctionCornerDetail="5" walkingareas="true" limitTurnSpeed="5.50" xmlns:xsi="http://www.w3.org/2001/XMLSchema-instance" xsi:noNamespaceSchemaLocation="http://sumo.dlr.de/xsd/net_file.xsd">

    <location netOffset="0.00,0.00" convBoundary="-60.00,-30.00,60.00,50.00" origBoundary="-10000000000.000000,-10000000000.000000,10000000000.000000,10000000000.000000" projParameter="+proj=merc +a=6378137 +b=6378137 +lat_ts=0.0 +lon_0=0.0 +x_0=0.0 +y_0=0 +k=1.0 +units=m +nadgrids=@null +wktext +no_defs"/>

    <edge id=":JunctionBot_w0" function="walkingarea">
        <lane id=":JunctionBot_w0_0" index="0" allow="pedestrian" speed="2.78" length="8.40" width="2.00" shape="3.20,-25.00 5.20,-25.00 -5.20,-25.00 -3.20,-25.00"/>
    </edge>
    <edge id=":JunctionCenter_0" function="internal">
        <lane id=":JunctionCenter_0_0" index="0" disallow="pedestrian" speed="9.67" length="31.60" shape="12.18,29.22 6.67,36.03 0.00,38.30 -6.67,36.03 -12.18,29.22"/>
    </edge>
    <edge id=":JunctionCenter_1" function="internal">
        <lane id=":JunctionCenter_1_0" index="0" disallow="pedestrian" speed="6.48" length="1.86" shape="12.18,29.22 10.61,30.22"/>
    </edge>
    <edge id=":JunctionCenter_2" function="internal">
        <lane id=":JunctionCenter_2_0" index="0" disallow="pedestrian" speed="6.96" length="3.37" shape="12.18,29.22 9.77,31.59"/>
    </edge>
    <edge id=":JunctionCenter_12" function="internal">
        <lane id=":JunctionCenter_12_0" index="0" disallow="pedestrian" speed="6.48" length="14.64" shape="10.61,30.22 9.13,31.16 4.50,30.95 0.26,29.06 -1.60,25.97"/>
    </edge>
    <edge id=":JunctionCenter_13" function="internal">
        <lane id=":JunctionCenter_13_0" index="0" disallow="pedestrian" speed="6.96" length="15.99" shape="9.77,31.59 8.54,32.79 3.97,33.19 0.06,30.79 -1.60,25.97"/>
    </edge>
    <edge id=":JunctionCenter_3" function="internal">
        <lane id=":JunctionCenter_3_0" index="0" disallow="pedestrian" speed="6.90" length="18.97" shape="1.60,25.97 2.08,32.55 3.53,35.05 5.94,33.47 9.31,27.79"/>
    </edge>
    <edge id=":JunctionCenter_4" function="internal">
        <lane id=":JunctionCenter_4_0" index="0" disallow="pedestrian" speed="6.48" length="16.50" shape="1.60,25.97 -0.26,29.06 -4.50,30.95 -9.13,31.16 -12.18,29.22"/>
    </edge>
    <edge id=":JunctionCenter_5" function="internal">
        <lane id=":JunctionCenter_5_0" index="0" disallow="pedestrian" speed="3.24" length="3.20" shape="1.60,25.97 -1.60,25.97"/>
    </edge>
    <edge id=":JunctionCenter_6" function="internal">
        <lane id=":JunctionCenter_6_0" index="0" disallow="pedestrian" speed="6.90" length="18.97" shape="1.60,25.97 2.08,32.55 3.53,35.05 5.94,33.47 9.31,27.79"/>
    </edge>
    <edge id=":JunctionCenter_7" function="internal">
        <lane id=":JunctionCenter_7_0" index="0" disallow="pedestrian" speed="6.96" length="19.36" shape="1.60,25.97 -0.06,30.79 -3.97,33.19 -8.54,32.79 -12.18,29.22"/>
    </edge>
    <edge id=":JunctionCenter_8" function="internal">
        <lane id=":JunctionCenter_8_0" index="0" disallow="pedestrian" speed="3.24" length="3.20" shape="1.60,25.97 -1.60,25.97"/>
    </edge>
    <edge id=":JunctionCenter_9" function="internal">
        <lane id=":JunctionCenter_9_0" index="0" disallow="pedestrian" speed="6.90" length="2.54" shape="-9.31,27.79 -8.02,29.97"/>
    </edge>
    <edge id=":JunctionCenter_10" function="internal">
        <lane id=":JunctionCenter_10_0" index="0" disallow="pedestrian" speed="6.90" length="2.54" shape="-9.31,27.79 -8.02,29.97"/>
    </edge>
    <edge id=":JunctionCenter_11" function="internal">
        <lane id=":JunctionCenter_11_0" index="0" disallow="pedestrian" speed="9.00" length="23.17" shape="-9.31,27.79 -4.66,34.78 0.00,37.11 4.66,34.78 7.08,31.15"/>
    </edge>
    <edge id=":JunctionCenter_14" function="internal">
        <lane id=":JunctionCenter_14_0" index="0" disallow="pedestrian" speed="6.90" length="16.44" shape="-8.02,29.97 -5.94,33.47 -3.53,35.05 -2.08,32.55 -1.60,25.97"/>
    </edge>
    <edge id=":JunctionCenter_15" function="internal">
        <lane id=":JunctionCenter_15_0" index="0" disallow="pedestrian" speed="6.90" length="16.44" shape="-8.02,29.97 -5.94,33.47 -3.53,35.05 -2.08,32.55 -1.60,25.97"/>
    </edge>
    <edge id=":JunctionCenter_16" function="internal">
        <lane id=":JunctionCenter_16_0" index="0" disallow="pedestrian" speed="9.00" length="4.03" shape="7.08,31.15 9.31,27.79"/>
    </edge>
    <edge id=":JunctionCenter_c0" function="crossing" crossingEdges="E6 -E6">
        <lane id=":JunctionCenter_c0_0" index="0" allow="pedestrian" speed="2.78" length="6.40" width="4.00" shape="6.99,28.87 12.71,31.73" outlineShape="7.79,27.03 13.61,29.94 12.37,33.79 15.40,30.83 13.61,29.94 11.82,33.52 6.09,30.66 5.10,27.60 5.27,27.66 6.35,27.79 7.29,27.61"/>
    </edge>
    <edge id=":JunctionCenter_c1" function="crossing" crossingEdges="E5 -E5">
        <lane id=":JunctionCenter_c1_0" index="0" allow="pedestrian" speed="2.78" length="6.40" width="4.00" shape="-3.20,27.97 3.20,27.97" outlineShape="-3.20,25.97 3.30,25.97 3.20,25.97 3.50,26.71 4.25,27.29 5.27,27.66 5.46,27.69 3.20,29.97 -3.20,29.97 -5.46,27.69 -5.27,27.66 -4.25,27.29 -3.50,26.71"/>
    </edge>
    <edge id=":JunctionCenter_c2" function="crossing" crossingEdges="E7 -E7">
        <lane id=":JunctionCenter_c2_0" index="0" allow="pedestrian" speed="2.78" length="6.40" width="4.00" shape="-3.20,27.97 3.20,27.97" outlineShape="-3.20,25.97 3.20,25.97 3.20,29.97 -3.20,29.97"/>
    </edge>
    <edge id=":JunctionCenter_c3" function="crossing" crossingEdges="E4 -E4">
        <lane id=":JunctionCenter_c3_0" index="0" allow="pedestrian" speed="2.78" length="6.40" width="4.00" shape="-12.71,31.73 -6.99,28.87" outlineShape="-13.61,29.94 -7.79,27.03 -7.29,27.61 -6.35,27.79 -5.27,27.66 -5.10,27.60 -6.09,30.66 -11.82,33.52 -10.74,32.98"/>
    </edge>
    <edge id=":JunctionCenter_w0" function="walkingarea">
        <lane id=":JunctionCenter_w0_0" index="0" allow="pedestrian" speed="2.78" length="18.90" width="4.00" shape="-13.61,29.94 -15.40,30.83 -12.01,34.15 -6.53,36.13 0.00,36.80 6.53,36.13 12.01,34.15 15.40,30.83 13.61,29.94 10.49,33.25 5.67,35.24 0.00,35.90 -5.67,35.24 -10.49,33.25"/>
    </edge>
    <edge id=":JunctionCenter_w1" function="walkingarea">
        <lane id=":JunctionCenter_w1_0" index="0" allow="pedestrian" speed="2.78" length="3.21" width="4.00" shape="7.88,27.08 6.09,26.18 5.20,25.97 3.20,25.97 3.50,26.71 4.25,27.29 5.27,27.66 6.35,27.79 7.29,27.61"/>
    </edge>
    <edge id=":JunctionCenter_w2" function="walkingarea">
        <lane id=":JunctionCenter_w2_0" index="0" allow="pedestrian" speed="2.78" length="2.24" width="4.00" shape="5.20,25.97 3.20,25.97 3.20,29.97"/>
    </edge>
    <edge id=":JunctionCenter_w3" function="walkingarea">
        <lane id=":JunctionCenter_w3_0" index="0" allow="pedestrian" speed="2.78" length="2.24" width="4.00" shape="-3.20,29.97 -3.20,25.97 -5.20,25.97"/>
    </edge>
    <edge id=":JunctionCenter_w4" function="walkingarea">
        <lane id=":JunctionCenter_w4_0" index="0" allow="pedestrian" speed="2.78" length="3.21" width="4.00" shape="-3.20,25.97 -5.20,25.97 -6.09,26.18 -7.88,27.08 -7.29,27.61 -6.35,27.79 -5.27,27.66 -4.25,27.29 -3.50,26.71"/>
    </edge>
    <edge id=":JunctionExtern0_0" function="internal">
        <lane id=":JunctionExtern0_0_0" index="0" disallow="pedestrian" speed="3.53" length="4.38" width="3.00" shape="-60.00,1.50 -61.12,0.75 -61.50,0.00 -61.12,-0.75 -60.00,-1.50"/>
    </edge>
    <edge id=":JunctionExtern1_0" function="internal">
        <lane id=":JunctionExtern1_0_0" index="0" disallow="pedestrian" speed="3.53" length="4.38" width="3.00" shape="60.00,-1.50 61.12,-0.75 61.50,0.00 61.12,0.75 60.00,1.50"/>
    </edge>
    <edge id=":JunctionLeft_0" function="internal">
        <lane id=":JunctionLeft_0_0" index="0" disallow="pedestrian" speed="13.89" length="27.26" shape="-26.60,20.03 -26.60,-7.23"/>
    </edge>
    <edge id=":JunctionLeft_1" function="internal">
        <lane id=":JunctionLeft_1_0" index="0" disallow="pedestrian" speed="6.51" length="16.71" shape="-26.60,20.03 -25.19,15.80 -21.85,13.58 -17.94,13.77 -14.82,16.78"/>
    </edge>
    <edge id=":JunctionLeft_2" function="internal">
        <lane id=":JunctionLeft_2_0" index="0" disallow="pedestrian" speed="6.08" length="14.32" shape="-17.69,18.21 -20.19,14.03 -21.97,12.95 -23.04,14.95 -23.40,20.03"/>
    </edge>
    <edge id=":JunctionLeft_3" function="internal">
        <lane id=":JunctionLeft_3_0" index="0" disallow="pedestrian" speed="13.89" length="27.08" shape="-17.69,18.21 -20.97,11.16 -23.82,4.01 -25.84,-2.40 -26.60,-7.23"/>
    </edge>
    <edge id=":JunctionLeft_4" function="internal">
        <lane id=":JunctionLeft_4_0" index="0" disallow="pedestrian" speed="13.89" length="25.62" shape="-23.40,-7.23 -22.69,-2.63 -20.79,3.29 -18.05,9.95 -14.82,16.78"/>
    </edge>
    <edge id=":JunctionLeft_5" function="internal">
        <lane id=":JunctionLeft_5_0" index="0" disallow="pedestrian" speed="13.89" length="27.26" shape="-23.40,-7.23 -23.40,20.03"/>
    </edge>
    <edge id=":JunctionRight_0" function="internal">
        <lane id=":JunctionRight_0_0" index="0" disallow="pedestrian" speed="6.08" length="14.32" shape="23.40,20.03 23.04,14.95 21.97,12.95 20.19,14.03 17.69,18.21"/>
    </edge>
    <edge id=":JunctionRight_1" function="internal">
        <lane id=":JunctionRight_1_0" index="0" disallow="pedestrian" speed="13.89" length="27.26" shape="23.40,20.03 23.40,-7.23"/>
    </edge>
    <edge id=":JunctionRight_2" function="internal">
        <lane id=":JunctionRight_2_0" index="0" disallow="pedestrian" speed="13.89" length="27.26" shape="26.60,-7.23 26.60,20.03"/>
    </edge>
    <edge id=":JunctionRight_3" function="internal">
        <lane id=":JunctionRight_3_0" index="0" disallow="pedestrian" speed="13.89" length="27.08" shape="26.60,-7.23 25.84,-2.40 23.82,4.01 20.97,11.16 17.69,18.21"/>
    </edge>
    <edge id=":JunctionRight_4" function="internal">
        <lane id=":JunctionRight_4_0" index="0" disallow="pedestrian" speed="13.89" length="25.62" shape="14.82,16.78 18.05,9.95 20.79,3.29 22.69,-2.63 23.40,-7.23"/>
    </edge>
    <edge id=":JunctionRight_5" function="internal">
        <lane id=":JunctionRight_5_0" index="0" disallow="pedestrian" speed="6.51" length="2.11" shape="14.82,16.78 16.34,15.31"/>
    </edge>
    <edge id=":JunctionRight_6" function="internal">
        <lane id=":JunctionRight_6_0" index="0" disallow="pedestrian" speed="6.51" length="14.60" shape="16.34,15.31 17.94,13.77 21.85,13.58 25.19,15.80 26.60,20.03"/>
    </edge>
    <edge id=":JunctionTop_w0" function="walkingarea">
        <lane id=":JunctionTop_w0_0" index="0" allow="pedestrian" speed="2.78" length="8.40" width="2.00" shape="3.20,25.00 5.20,25.00 -5.20,25.00 -3.20,25.00"/>
    </edge>

    <edge id="-E0" from="J0" to="JunctionLeft" priority="-1">
        <lane id="-E0_0" index="0" disallow="pedestrian" speed="13.89" length="4.97" shape="-26.60,25.00 -26.60,20.03"/>
    </edge>
    <edge id="-E1" from="J1" to="JunctionLeft" priority="-1">
        <lane id="-E1_0" index="0" disallow="pedestrian" speed="13.89" length="17.77" shape="-23.40,-25.00 -23.40,-7.23"/>
    </edge>
    <edge id="-E2" from="J2" to="JunctionRight" priority="-1">
        <lane id="-E2_0" index="0" disallow="pedestrian" speed="13.89" length="4.97" shape="23.40,25.00 23.40,20.03"/>
    </edge>
    <edge id="-E3" from="J3" to="JunctionRight" priority="-1">
        <lane id="-E3_0" index="0" disallow="pedestrian" speed="13.89" length="17.77" shape="26.60,-25.00 26.60,-7.23"/>
    </edge>
    <edge id="-E4" from="JunctionLeft" to="JunctionCenter" priority="-1">
        <lane id="-E4_0" index="0" allow="pedestrian" speed="13.89" length="12.32" width="2.00" shape="-12.50,15.61 -6.99,26.63"/>
        <lane id="-E4_1" index="1" disallow="pedestrian" speed="13.89" length="12.32" shape="-14.82,16.78 -9.31,27.79"/>
    </edge>
    <edge id="-E5" from="JunctionTop" to="JunctionCenter" priority="-1">
        <lane id="-E5_0" index="0" allow="pedestrian" speed="13.89" length="0.97" width="2.00" shape="4.20,25.00 4.20,25.97"/>
        <lane id="-E5_1" index="1" disallow="pedestrian" speed="13.89" length="0.97" shape="1.60,25.00 1.60,25.97"/>
    </edge>
    <edge id="-E6" from="JunctionRight" to="JunctionCenter" priority="-1">
        <lane id="-E6_0" index="0" allow="pedestrian" speed="13.89" length="12.32" width="2.00" shape="20.01,19.37 14.50,30.39"/>
        <lane id="-E6_1" index="1" disallow="pedestrian" speed="13.89" length="12.32" shape="17.69,18.21 12.18,29.22"/>
    </edge>
    <edge id="-E7" from="JunctionBot" to="JunctionCenter" priority="-1">
        <lane id="-E7_0" index="0" allow="pedestrian" speed="13.89" length="50.97" width="2.00" shape="4.20,-25.00 4.20,25.97"/>
        <lane id="-E7_1" index="1" disallow="pedestrian" speed="13.89" length="50.97" shape="1.60,-25.00 1.60,25.97"/>
    </edge>
    <edge id="E0" from="JunctionLeft" to="J0" priority="-1">
        <lane id="E0_0" index="0" disallow="pedestrian" speed="13.89" length="4.97" shape="-23.40,20.03 -23.40,25.00"/>
    </edge>
    <edge id="E1" from="JunctionLeft" to="J1" priority="-1">
        <lane id="E1_0" index="0" disallow="pedestrian" speed="13.89" length="17.77" shape="-26.60,-7.23 -26.60,-25.00"/>
    </edge>
    <edge id="E2" from="JunctionRight" to="J2" priority="-1">
        <lane id="E2_0" index="0" disallow="pedestrian" speed="13.89" length="4.97" shape="26.60,20.03 26.60,25.00"/>
    </edge>
    <edge id="E3" from="JunctionRight" to="J3" priority="-1">
        <lane id="E3_0" index="0" disallow="pedestrian" speed="13.89" length="17.77" shape="23.40,-7.23 23.40,-25.00"/>
    </edge>
    <edge id="E4" from="JunctionCenter" to="JunctionLeft" priority="-1">
        <lane id="E4_0" index="0" allow="pedestrian" speed="13.89" length="12.32" width="2.00" shape="-14.50,30.39 -20.01,19.37"/>
        <lane id="E4_1" index="1" disallow="pedestrian" speed="13.89" length="12.32" shape="-12.18,29.22 -17.69,18.21"/>
    </edge>
    <edge id="E5" from="JunctionCenter" to="JunctionTop" priority="-1">
        <lane id="E5_0" index="0" allow="pedestrian" speed="13.89" length="0.97" width="2.00" shape="-4.20,25.97 -4.20,25.00"/>
        <lane id="E5_1" index="1" disallow="pedestrian" speed="13.89" length="0.97" shape="-1.60,25.97 -1.60,25.00"/>
    </edge>
    <edge id="E6" from="JunctionCenter" to="JunctionRight" priority="-1">
        <lane id="E6_0" index="0" allow="pedestrian" speed="13.89" length="12.32" width="2.00" shape="6.99,26.63 12.50,15.61"/>
        <lane id="E6_1" index="1" disallow="pedestrian" speed="13.89" length="12.32" shape="9.31,27.79 14.82,16.78"/>
    </edge>
    <edge id="E7" from="JunctionCenter" to="JunctionBot" priority="-1">
        <lane id="E7_0" index="0" allow="pedestrian" speed="13.89" length="50.97" width="2.00" shape="-4.20,25.97 -4.20,-25.00"/>
        <lane id="E7_1" index="1" disallow="pedestrian" speed="13.89" length="50.97" shape="-1.60,25.97 -1.60,-25.00"/>
    </edge>
    <edge id="EdgeExternBot" from="JunctionExtern0" to="JunctionExtern1" priority="-1" length="175.00" shape="-60.00,0.00 -45.00,0.00 -45.00,-25.00 -40.00,-30.00 40.00,-30.00 45.00,-25.00 45.00,0.00 60.00,0.00">
        <lane id="EdgeExternBot_0" index="0" disallow="pedestrian" speed="13.89" length="175.00" width="3.00" shape="-60.00,-1.50 -46.50,-1.50 -46.50,-25.62 -40.62,-31.50 40.62,-31.50 46.50,-25.62 46.50,-1.50 60.00,-1.50"/>
    </edge>
    <edge id="EdgeExternTop" from="JunctionExtern1" to="JunctionExtern0" priority="-1" length="175.00" shape="60.00,0.00 45.00,0.00 45.00,25.00 40.00,30.00 -40.00,30.00 -45.00,25.00 -45.00,0.00 -60.00,0.00">
        <lane id="EdgeExternTop_0" index="0" disallow="pedestrian" speed="13.89" length="175.00" width="3.00" shape="60.00,1.50 46.50,1.50 46.50,25.62 40.62,31.50 -40.62,31.50 -46.50,25.62 -46.50,1.50 -60.00,1.50"/>
    </edge>

    <junction id="J0" type="dead_end" x="-25.00" y="25.00" incLanes="E0_0" intLanes="" shape="-25.00,25.00 -21.80,25.00 -25.00,25.00"/>
    <junction id="J1" type="dead_end" x="-25.00" y="-25.00" incLanes="E1_0" intLanes="" shape="-25.00,-25.00 -28.20,-25.00 -25.00,-25.00"/>
    <junction id="J2" type="dead_end" x="25.00" y="25.00" incLanes="E2_0" intLanes="" shape="25.00,25.00 28.20,25.00 25.00,25.00"/>
    <junction id="J3" type="dead_end" x="25.00" y="-25.00" incLanes="E3_0" intLanes="" shape="25.00,-25.00 21.80,-25.00 25.00,-25.00"/>
    <junction id="JunctionBot" type="dead_end" x="0.00" y="-25.00" incLanes="E7_0 E7_1" intLanes="" shape="0.00,-25.00 -5.20,-25.00 0.00,-25.00"/>
    <junction id="JunctionCenter" type="priority" x="0.00" y="50.00" incLanes="-E6_0 -E6_1 -E5_0 -E5_1 -E7_0 -E7_1 -E4_0 -E4_1 :JunctionCenter_w1_0 :JunctionCenter_w4_0 :JunctionCenter_w3_0 :JunctionCenter_w0_0" intLanes=":JunctionCenter_0_0 :JunctionCenter_12_0 :JunctionCenter_13_0 :JunctionCenter_3_0 :JunctionCenter_4_0 :JunctionCenter_5_0 :JunctionCenter_6_0 :JunctionCenter_7_0 :JunctionCenter_8_0 :JunctionCenter_14_0 :JunctionCenter_15_0 :JunctionCenter_16_0 :JunctionCenter_c0_0 :JunctionCenter_c1_0 :JunctionCenter_c2_0 :JunctionCenter_c3_0" shape="15.40,30.83 6.09,26.18 5.20,25.97 -5.20,25.97 -6.09,26.18 -15.40,30.83 -10.26,39.39 -5.13,44.52 0.00,46.23 5.13,44.52 10.26,39.39" name="center">
        <request index="0"  response="1000000000000000" foes="1001000010010000" cont="0"/>
        <request index="1"  response="0010111000000000" foes="0011111110110000" cont="1"/>
        <request index="2"  response="0100110000000000" foes="0101110110110000" cont="1"/>
        <request index="3"  response="0001100000000000" foes="0011100001000000" cont="0"/>
        <request index="4"  response="1000100100000111" foes="1010100111000111" cont="0"/>
        <request index="5"  response="0100010000000110" foes="0110010111000110" cont="0"/>
        <request index="6"  response="0001100000111000" foes="0101100000111000" cont="0"/>
        <request index="7"  response="1000100000110111" foes="1100100000110111" cont="0"/>
        <request index="8"  response="0010011000100110" foes="0110011000110110" cont="0"/>
        <request index="9"  response="0010000000000000" foes="1010000100000010" cont="1"/>
        <request index="10" response="0100000000000000" foes="1100000100100110" cont="1"/>
        <request index="11" response="0001000000000000" foes="1001000011011110" cont="1"/>
        <request index="12" response="0000000000000111" foes="0000100001001111" cont="0"/>
        <request index="13" response="0000000000111000" foes="0000001100111010" cont="0"/>
        <request index="14" response="0000000111000000" foes="0000010111100100" cont="0"/>
        <request index="15" response="0000111000000000" foes="0000111010010001" cont="0"/>
    </junction>
    <junction id="JunctionExtern0" type="priority" x="-60.00" y="0.00" incLanes="EdgeExternTop_0" intLanes=":JunctionExtern0_0_0" shape="-60.00,0.00 -60.00,3.00 -60.00,0.00">
        <request index="0" response="0" foes="0" cont="0"/>
    </junction>
    <junction id="JunctionExtern1" type="priority" x="60.00" y="0.00" incLanes="EdgeExternBot_0" intLanes=":JunctionExtern1_0_0" shape="60.00,0.00 60.00,-3.00 60.00,0.00">
        <request index="0" response="0" foes="0" cont="0"/>
    </junction>
    <junction id="JunctionLeft" type="left_before_right" x="-25.00" y="0.00" incLanes="-E0_0 E4_0 E4_1 -E1_0" intLanes=":JunctionLeft_0_0 :JunctionLeft_1_0 :JunctionLeft_2_0 :JunctionLeft_3_0 :JunctionLeft_4_0 :JunctionLeft_5_0" shape="-28.20,20.03 -21.80,20.03 -20.91,19.82 -11.60,15.17 -14.27,10.54 -16.69,7.20 -18.76,4.46 -20.38,1.60 -21.43,-2.06 -21.80,-7.23 -28.20,-7.23" radius="2.00" fringe="outer" name="left">
        <request index="0" response="001000" foes="001000" cont="0"/>
        <request index="1" response="001000" foes="111000" cont="0"/>
        <request index="2" response="100000" foes="100000" cont="0"/>
        <request index="3" response="100000" foes="100011" cont="0"/>
        <request index="4" response="000010" foes="000010" cont="0"/>
        <request index="5" response="000010" foes="001110" cont="0"/>
    </junction>
    <junction id="JunctionRight" type="priority" x="25.00" y="0.00" incLanes="-E2_0 -E3_0 E6_0 E6_1" intLanes=":JunctionRight_0_0 :JunctionRight_1_0 :JunctionRight_2_0 :JunctionRight_3_0 :JunctionRight_4_0 :JunctionRight_6_0" shape="21.80,20.03 28.20,20.03 28.20,-7.23 21.80,-7.23 21.43,-2.06 20.38,1.60 18.76,4.46 16.69,7.20 14.27,10.54 11.60,15.17 20.91,19.82">
        <request index="0" response="001000" foes="001000" cont="0"/>
        <request index="1" response="111000" foes="111000" cont="0"/>
        <request index="2" response="000000" foes="100000" cont="0"/>
        <request index="3" response="000000" foes="100011" cont="0"/>
        <request index="4" response="000000" foes="000010" cont="0"/>
        <request index="5" response="001100" foes="001110" cont="1"/>
    </junction>
    <junction id="JunctionTop" type="dead_end" x="0.00" y="25.00" incLanes="E5_0 E5_1" intLanes="" shape="0.00,25.00 -5.20,25.00 0.00,25.00"/>

    <junction id=":JunctionCenter_12_0" type="internal" x="10.61" y="30.22" incLanes=":JunctionCenter_1_0 -E4_1" intLanes=":JunctionCenter_4_0 :JunctionCenter_5_0 :JunctionCenter_7_0 :JunctionCenter_8_0 :JunctionCenter_9_0 :JunctionCenter_10_0 :JunctionCenter_11_0 :JunctionCenter_c0_0 :JunctionCenter_c1_0"/>
    <junction id=":JunctionCenter_13_0" type="internal" x="9.77" y="31.59" incLanes=":JunctionCenter_2_0 -E4_1" intLanes=":JunctionCenter_4_0 :JunctionCenter_5_0 :JunctionCenter_7_0 :JunctionCenter_8_0 :JunctionCenter_10_0 :JunctionCenter_11_0 :JunctionCenter_c0_0 :JunctionCenter_c2_0"/>
    <junction id=":JunctionCenter_14_0" type="internal" x="-8.02" y="29.97" incLanes=":JunctionCenter_9_0" intLanes=":JunctionCenter_1_0 :JunctionCenter_8_0 :JunctionCenter_c1_0 :JunctionCenter_c3_0"/>
    <junction id=":JunctionCenter_15_0" type="internal" x="-8.02" y="29.97" incLanes=":JunctionCenter_10_0" intLanes=":JunctionCenter_1_0 :JunctionCenter_2_0 :JunctionCenter_5_0 :JunctionCenter_8_0 :JunctionCenter_c2_0 :JunctionCenter_c3_0"/>
    <junction id=":JunctionCenter_16_0" type="internal" x="7.08" y="31.15" incLanes=":JunctionCenter_11_0" intLanes=":JunctionCenter_1_0 :JunctionCenter_2_0 :JunctionCenter_3_0 :JunctionCenter_4_0 :JunctionCenter_6_0 :JunctionCenter_7_0 :JunctionCenter_c0_0 :JunctionCenter_c3_0"/>
    <junction id=":JunctionRight_6_0" type="internal" x="16.34" y="15.31" incLanes=":JunctionRight_5_0 -E3_0" intLanes=":JunctionRight_1_0 :JunctionRight_2_0 :JunctionRight_3_0"/>

    <connection from="-E0" to="E1" fromLane="0" toLane="0" via=":JunctionLeft_0_0" dir="s" state="="/>
    <connection from="-E0" to="-E4" fromLane="0" toLane="1" via=":JunctionLeft_1_0" dir="l" state="="/>
    <connection from="-E1" to="-E4" fromLane="0" toLane="1" via=":JunctionLeft_4_0" dir="R" state="="/>
    <connection from="-E1" to="E0" fromLane="0" toLane="0" via=":JunctionLeft_5_0" dir="s" state="="/>
    <connection from="-E2" to="-E6" fromLane="0" toLane="1" via=":JunctionRight_0_0" dir="r" state="m"/>
    <connection from="-E2" to="E3" fromLane="0" toLane="0" via=":JunctionRight_1_0" dir="s" state="m"/>
    <connection from="-E3" to="E2" fromLane="0" toLane="0" via=":JunctionRight_2_0" dir="s" state="M"/>
    <connection from="-E3" to="-E6" fromLane="0" toLane="1" via=":JunctionRight_3_0" dir="L" state="M"/>
    <connection from="-E4" to="E5" fromLane="1" toLane="1" via=":JunctionCenter_9_0" dir="r" state="m"/>
    <connection from="-E4" to="E7" fromLane="1" toLane="1" via=":JunctionCenter_10_0" dir="r" state="m"/>
    <connection from="-E4" to="E6" fromLane="1" toLane="1" via=":JunctionCenter_11_0" dir="r" state="m"/>
    <connection from="-E5" to="E6" fromLane="1" toLane="1" via=":JunctionCenter_3_0" dir="r" state="m"/>
    <connection from="-E5" to="E4" fromLane="1" toLane="1" via=":JunctionCenter_4_0" dir="l" state="m"/>
    <connection from="-E5" to="E7" fromLane="1" toLane="1" via=":JunctionCenter_5_0" dir="l" state="m"/>
    <connection from="-E6" to="E4" fromLane="1" toLane="1" via=":JunctionCenter_0_0" dir="l" state="m"/>
    <connection from="-E6" to="E5" fromLane="1" toLane="1" via=":JunctionCenter_1_0" dir="l" state="m"/>
    <connection from="-E6" to="E7" fromLane="1" toLane="1" via=":JunctionCenter_2_0" dir="l" state="m"/>
    <connection from="-E7" to="E6" fromLane="1" toLane="1" via=":JunctionCenter_6_0" dir="r" state="m"/>
    <connection from="-E7" to="E4" fromLane="1" toLane="1" via=":JunctionCenter_7_0" dir="l" state="m"/>
    <connection from="-E7" to="E5" fromLane="1" toLane="1" via=":JunctionCenter_8_0" dir="l" state="m"/>
    <connection from="E4" to="E0" fromLane="1" toLane="0" via=":JunctionLeft_2_0" dir="r" state="="/>
    <connection from="E4" to="E1" fromLane="1" toLane="0" via=":JunctionLeft_3_0" dir="s" state="="/>
    <connection from="E6" to="E3" fromLane="1" toLane="0" via=":JunctionRight_4_0" dir="s" state="M"/>
    <connection from="E6" to="E2" fromLane="1" toLane="0" via=":JunctionRight_5_0" dir="l" state="m"/>
    <connection from="EdgeExternBot" to="EdgeExternTop" fromLane="0" toLane="0" via=":JunctionExtern1_0_0" dir="t" state="M"/>
    <connection from="EdgeExternTop" to="EdgeExternBot" fromLane="0" toLane="0" via=":JunctionExtern0_0_0" dir="t" state="M"/>

    <connection from=":JunctionCenter_0" to="E4" fromLane="0" toLane="1" dir="l" state="M"/>
    <connection from=":JunctionCenter_1" to="E5" fromLane="0" toLane="1" via=":JunctionCenter_12_0" dir="l" state="m"/>
    <connection from=":JunctionCenter_12" to="E5" fromLane="0" toLane="1" dir="l" state="m"/>
    <connection from=":JunctionCenter_2" to="E7" fromLane="0" toLane="1" via=":JunctionCenter_13_0" dir="l" state="m"/>
    <connection from=":JunctionCenter_13" to="E7" fromLane="0" toLane="1" dir="l" state="m"/>
    <connection from=":JunctionCenter_3" to="E6" fromLane="0" toLane="1" dir="r" state="M"/>
    <connection from=":JunctionCenter_4" to="E4" fromLane="0" toLane="1" dir="l" state="M"/>
    <connection from=":JunctionCenter_5" to="E7" fromLane="0" toLane="1" dir="l" state="M"/>
    <connection from=":JunctionCenter_6" to="E6" fromLane="0" toLane="1" dir="r" state="M"/>
    <connection from=":JunctionCenter_7" to="E4" fromLane="0" toLane="1" dir="l" state="M"/>
    <connection from=":JunctionCenter_8" to="E5" fromLane="0" toLane="1" dir="l" state="M"/>
    <connection from=":JunctionCenter_9" to="E5" fromLane="0" toLane="1" via=":JunctionCenter_14_0" dir="r" state="m"/>
    <connection from=":JunctionCenter_14" to="E5" fromLane="0" toLane="1" dir="r" state="m"/>