<?xml version="1.0" encoding="UTF-8"?>

<!-- generated on 2021-11-18 16:01:03 by Eclipse SUMO netedit Version v1_10_0+2418-91f9be6116e
-->

<additional xmlns:xsi="http://www.w3.org/2001/XMLSchema-instance" xsi:noNamespaceSchemaLocation="http://sumo.dlr.de/xsd/additional_file.xsd">
    <rerouter id="rerouter_0" edges="gneE0 gneE1" pos="0.00,10.00">
        <interval begin="0.00" end="3600.00">
            <closingLaneReroute id="gneE0_0"/>
            <closingLaneReroute id="gneE0_0"/>
            <closingLaneReroute id="gneE0_0" allow="pedestrian passenger"/>
            <closingLaneReroute id="gneE0_0"/>
        </interval>
    </rerouter>
</additional>
