<?xml version="1.0" encoding="UTF-8"?>

<!-- generated on Wed Apr 20 15:40:05 2016 by SUMO netconvert Version dev-SVN-r20491
<?xml version="1.0" encoding="UTF-8"?>

<configuration xmlns:xsi="http://www.w3.org/2001/XMLSchema-instance" xsi:noNamespaceSchemaLocation="http://sumo.dlr.de/xsd/netconvertConfiguration.xsd">

    <input>
        <node-files value="input_plain.nod.xml"/>
        <edge-files value="input_plain.edg.xml"/>
        <connection-files value="input_plain.con.xml"/>
    </input>

    <report>
        <xml-validation value="never"/>
    </report>

</configuration>
-->

<net version="0.27" xmlns:xsi="http://www.w3.org/2001/XMLSchema-instance" xsi:noNamespaceSchemaLocation="http://sumo.dlr.de/xsd/net_file.xsd">

    <location netOffset="0.00,0.00" convBoundary="0.00,0.00,1500.00,0.00" origBoundary="-10000000000.00,-10000000000.00,10000000000.00,10000000000.00" projParameter="!"/>

    <edge id=":gneJ1_0" function="internal">
        <lane id=":gneJ1_0_0" index="0" speed="13.89" length="3.73" shape="398.50,-4.95 401.50,-1.65"/>
        <lane id=":gneJ1_0_1" index="1" speed="13.89" length="3.73" shape="398.50,-1.65 401.50,-1.65"/>
    </edge>

    <edge id="beg" from="gneJ0" to="gneJ1" priority="1">
        <lane id="beg_0" index="0" speed="13.89" length="398.50" shape="0.00,-4.95 398.50,-4.95"/>
        <lane id="beg_1" index="1" speed="13.89" length="398.50" shape="0.00,-1.65 398.50,-1.65"/>
    </edge>
    <edge id="end" from="gneJ1" to="gneJ3" priority="1">
        <lane id="end_0" index="0" speed="13.89" length="1098.50" shape="401.50,-1.65 1500.00,-1.65"/>
    </edge>

    <junction id="gneJ0" type="unregulated" x="0.00" y="0.00" incLanes="" intLanes="" shape="0.00,-0.05 0.00,-6.55"/>
    <junction id="gneJ1" type="zipper" x="400.00" y="0.00" incLanes="beg_0 beg_1" intLanes=":gneJ1_0_0 :gneJ1_0_1" shape="401.50,-0.05 401.50,-3.25 398.50,-6.55 398.50,-0.05">
        <request index="0" response="10" foes="10" cont="0"/>
        <request index="1" response="01" foes="01" cont="0"/>
    </junction>
    <junction id="gneJ3" type="unregulated" x="1500.00" y="0.00" incLanes="end_0" intLanes="" shape="1500.00,-3.25 1500.00,-0.05"/>

    <connection from="beg" to="end" fromLane="0" toLane="0" via=":gneJ1_0_0" dir="s" state="Z"/>
    <connection from="beg" to="end" fromLane="1" toLane="0" via=":gneJ1_0_1" dir="s" state="Z"/>

    <connection from=":gneJ1_0" to="end" fromLane="0" toLane="0" dir="s" state="M"/>
    <connection from=":gneJ1_0" to="end" fromLane="1" toLane="0" dir="s" state="M"/>

</net>
