<?xml version="1.0" encoding="UTF-8"?>

<!-- generated on 2023-11-15 13:50:23 by Eclipse SUMO netconvert Version v1_19_0+0153-31580b44f9e
This data file and the accompanying materials
are made available under the terms of the Eclipse Public License v2.0
which accompanies this distribution, and is available at
http://www.eclipse.org/legal/epl-v20.html
This file may also be made available under the following Secondary
Licenses when the conditions for such availability set forth in the Eclipse
Public License 2.0 are satisfied: GNU General Public License, version 2
or later which is available at
https://www.gnu.org/licenses/old-licenses/gpl-2.0-standalone.html
SPDX-License-Identifier: EPL-2.0 OR GPL-2.0-or-later
<configuration xmlns:xsi="http://www.w3.org/2001/XMLSchema-instance" xsi:noNamespaceSchemaLocation="http://sumo.dlr.de/xsd/netconvertConfiguration.xsd">

    <input>
        <osm-files value="osm.xml.gz"/>
    </input>

    <output>
        <write-license value="true"/>
        <output.original-names value="true"/>
    </output>

    <projection>
        <proj.utm value="true"/>
    </projection>

    <processing>
        <offset.disable-normalization value="false"/>
        <edges.join value="true"/>
        <edges.join-tram-dist value="2.0"/>
    </processing>

    <edge_removal>
        <keep-edges.by-type value="highway.motorway,highway.motorway_link,highway.trunk,highway.trunk_link,highway.primary,highway.primary_link,highway.secondary,highway.secondary_link,highway.tertiary,highway.tertiary_link,highway.unclassified,highway.residential,highway.living_street,highway.service,railway.rail,railway.tram"/>
    </edge_removal>

    <junctions>
        <junctions.join-same value="true"/>
    </junctions>

    <formats>
        <osm.lane-access value="true"/>
        <osm.turn-lanes value="true"/>
        <osm.stop-output.length value="20"/>
    </formats>

    <report>
        <xml-validation value="never"/>
        <error-log value="errorlog.log"/>
    </report>

</configuration>
-->

<net version="1.16" junctionCornerDetail="5" limitTurnSpeed="5.50" xmlns:xsi="http://www.w3.org/2001/XMLSchema-instance" xsi:noNamespaceSchemaLocation="http://sumo.dlr.de/xsd/net_file.xsd">

    <location netOffset="-465372.80,-5250716.39" convBoundary="0.00,0.00,602.99,443.84" origBoundary="8.541007,47.409008,8.548998,47.412993" projParameter="+proj=utm +zone=32 +ellps=WGS84 +datum=WGS84 +units=m +no_defs"/>

    <type id="highway.living_street" priority="2" numLanes="1" speed="2.78" disallow="tram rail_urban rail rail_electric rail_fast ship" oneway="0"/>
    <type id="highway.primary" priority="12" numLanes="2" speed="27.78" disallow="tram rail_urban rail rail_electric rail_fast ship" oneway="0"/>
    <type id="highway.residential" priority="3" numLanes="1" speed="13.89" disallow="tram rail_urban rail rail_electric rail_fast ship" oneway="0"/>
    <type id="highway.service" priority="1" numLanes="1" speed="5.56" allow="pedestrian delivery bicycle" oneway="0"/>
    <type id="highway.tertiary" priority="10" numLanes="1" speed="22.22" disallow="tram rail_urban rail rail_electric rail_fast ship" oneway="0"/>
    <type id="highway.unclassified" priority="4" numLanes="1" speed="13.89" disallow="tram rail_urban rail rail_electric rail_fast ship" oneway="0"/>
    <type id="railway.rail" priority="20" numLanes="1" speed="44.44" allow="rail" oneway="1"/>
    <type id="railway.tram" priority="17" numLanes="1" speed="13.89" allow="tram" oneway="1"/>

    <edge id=":10008601122_0" function="internal">
        <lane id=":10008601122_0_0" index="0" disallow="pedestrian tram rail_urban rail rail_electric rail_fast ship" speed="8.33" length="1.96" shape="21.06,104.16 22.77,103.20"/>
    </edge>
    <edge id=":10034858518_0" function="internal">
        <lane id=":10034858518_0_0" index="0" allow="pedestrian delivery bicycle" speed="8.33" length="0.29" shape="31.76,318.61 31.62,318.87"/>
    </edge>
    <edge id=":10034858518_1" function="internal">
        <lane id=":10034858518_1_0" index="0" allow="pedestrian delivery bicycle" speed="8.33" length="0.31" shape="28.83,317.30 28.98,317.04"/>
    </edge>
    <edge id=":10098040544_0" function="internal">
        <lane id=":10098040544_0_0" index="0" allow="pedestrian delivery bicycle" speed="5.56" length="0.30" shape="34.60,28.91 34.49,28.63"/>
    </edge>
    <edge id=":10098040544_1" function="internal">
        <lane id=":10098040544_1_0" index="0" allow="pedestrian delivery bicycle" speed="5.56" length="0.30" shape="37.47,27.48 37.58,27.76"/>
    </edge>
    <edge id=":10113512560_0" function="internal">
        <lane id=":10113512560_0_0" index="0" disallow="pedestrian tram rail_urban rail rail_electric rail_fast ship" speed="8.33" length="0.30" shape="171.77,31.29 171.48,31.35"/>
    </edge>
    <edge id=":10113514150_0" function="internal">
        <lane id=":10113514150_0_0" index="0" allow="pedestrian delivery bicycle" speed="5.56" length="0.10" shape="62.50,80.05 62.51,80.05"/>
    </edge>
    <edge id=":10113514150_1" function="internal">
        <lane id=":10113514150_1_0" index="0" allow="pedestrian delivery bicycle" speed="5.56" length="0.10" shape="65.19,78.30 65.16,78.27"/>
    </edge>
    <edge id=":10113560539_0" function="internal">
        <lane id=":10113560539_0_0" index="0" disallow="tram rail_urban rail rail_electric rail_fast ship" speed="8.33" length="0.10" shape="178.06,205.98 178.06,205.98"/>
    </edge>
    <edge id=":10113560541_0" function="internal">
        <lane id=":10113560541_0_0" index="0" disallow="tram rail_urban rail rail_electric rail_fast ship" speed="8.33" length="0.10" shape="173.05,203.48 173.05,203.48"/>
    </edge>
    <edge id=":10118589212_0" function="internal">
        <lane id=":10118589212_0_0" index="0" allow="pedestrian delivery bicycle" speed="3.65" length="4.67" shape="579.53,140.57 578.10,140.72 577.28,140.36 577.07,139.49 577.48,138.11"/>
    </edge>
    <edge id=":10118606626_0" function="internal">
        <lane id=":10118606626_0_0" index="0" allow="pedestrian delivery bicycle" speed="3.65" length="4.67" shape="399.14,301.84 400.18,300.84 401.04,300.62 401.74,301.18 402.27,302.52"/>
    </edge>
    <edge id=":10118606627_0" function="internal">
        <lane id=":10118606627_0_0" index="0" allow="pedestrian delivery bicycle" speed="5.56" length="9.52" shape="401.30,321.62 392.03,319.44"/>
    </edge>
    <edge id=":10118606627_1" function="internal">
        <lane id=":10118606627_1_0" index="0" allow="pedestrian delivery bicycle" speed="5.56" length="10.23" shape="401.30,321.62 398.71,320.63 397.05,319.03 396.32,316.83 396.52,314.01"/>
    </edge>
    <edge id=":10118606627_2" function="internal">
        <lane id=":10118606627_2_0" index="0" allow="pedestrian delivery bicycle" speed="3.65" length="4.67" shape="401.30,321.62 400.30,320.57 400.08,319.71 400.65,319.01 401.99,318.49"/>
    </edge>
    <edge id=":10118606627_3" function="internal">
        <lane id=":10118606627_3_0" index="0" allow="pedestrian delivery bicycle" speed="5.09" length="5.09" shape="399.65,314.68 399.55,316.10 399.90,317.20 400.72,318.00 401.99,318.49"/>
    </edge>
    <edge id=":10118606627_4" function="internal">
        <lane id=":10118606627_4_0" index="0" allow="pedestrian delivery bicycle" speed="5.56" length="10.32" shape="399.65,314.68 398.67,317.34 397.07,319.02 394.86,319.72 392.03,319.44"/>
    </edge>
    <edge id=":10118606627_5" function="internal">
        <lane id=":10118606627_5_0" index="0" allow="pedestrian delivery bicycle" speed="3.65" length="4.67" shape="399.65,314.68 398.62,315.69 397.75,315.91 397.05,315.35 396.52,314.01"/>
    </edge>
    <edge id=":10118606627_6" function="internal">
        <lane id=":10118606627_6_0" index="0" allow="pedestrian delivery bicycle" speed="5.01" length="5.04" shape="392.80,316.33 394.18,316.47 395.26,316.13 396.04,315.31 396.52,314.01"/>
    </edge>
    <edge id=":10118606627_7" function="internal">
        <lane id=":10118606627_7_0" index="0" allow="pedestrian delivery bicycle" speed="5.56" length="9.44" shape="392.80,316.33 401.99,318.49"/>
    </edge>
    <edge id=":10118606627_8" function="internal">
        <lane id=":10118606627_8_0" index="0" allow="pedestrian delivery bicycle" speed="3.65" length="4.67" shape="392.80,316.33 393.78,317.40 393.97,318.27 393.39,318.95 392.03,319.44"/>
    </edge>
    <edge id=":10118606628_0" function="internal">
        <lane id=":10118606628_0_0" index="0" allow="pedestrian delivery bicycle" speed="3.65" length="4.67" shape="409.36,268.79 410.38,269.82 410.61,270.68 410.05,271.38 408.72,271.92"/>
    </edge>
    <edge id=":10118606630_0" function="internal">
        <lane id=":10118606630_0_0" index="0" allow="pedestrian delivery bicycle" speed="5.56" length="7.45" shape="390.65,268.19 389.96,268.50 389.27,269.71 388.58,271.81 387.88,274.82"/>
    </edge>
    <edge id=":10118606630_1" function="internal">
        <lane id=":10118606630_1_0" index="0" allow="pedestrian delivery bicycle" speed="5.56" length="8.99" shape="390.65,268.19 388.14,268.29 386.47,269.33 384.79,270.38 382.27,270.57"/>
    </edge>
    <edge id=":10118606630_2" function="internal">
        <lane id=":10118606630_2_0" index="0" allow="pedestrian delivery bicycle" speed="5.56" length="7.44" shape="390.65,268.19 388.57,269.15 387.15,269.03 386.40,267.82 386.31,265.52"/>
    </edge>
    <edge id=":10118606630_3" function="internal">
        <lane id=":10118606630_3_0" index="0" allow="pedestrian delivery bicycle" speed="4.82" length="4.53" shape="382.81,267.41 384.20,267.50 385.25,267.21 385.95,266.55 386.31,265.52"/>
    </edge>
    <edge id=":10118606630_4" function="internal">
        <lane id=":10118606630_4_0" index="0" allow="pedestrian delivery bicycle" speed="5.56" length="10.30" shape="382.81,267.41 385.51,268.29 387.25,269.81 388.04,271.99 387.88,274.82"/>
    </edge>
    <edge id=":10118606630_5" function="internal">
        <lane id=":10118606630_5_0" index="0" allow="pedestrian delivery bicycle" speed="3.65" length="4.67" shape="382.81,267.41 383.86,268.41 384.12,269.26 383.59,269.98 382.27,270.57"/>
    </edge>
    <edge id=":10118606630_6" function="internal">
        <lane id=":10118606630_6_0" index="0" allow="pedestrian delivery bicycle" speed="5.01" length="5.03" shape="384.74,274.19 384.82,272.80 384.44,271.74 383.59,270.99 382.27,270.57"/>
    </edge>
    <edge id=":10118606630_7" function="internal">
        <lane id=":10118606630_7_0" index="0" allow="pedestrian delivery bicycle" speed="5.56" length="8.80" shape="384.74,274.19 386.31,265.52"/>
    </edge>
    <edge id=":10118606630_8" function="internal">
        <lane id=":10118606630_8_0" index="0" allow="pedestrian delivery bicycle" speed="3.65" length="4.67" shape="384.74,274.19 385.77,273.17 386.63,272.94 387.33,273.49 387.88,274.82"/>
    </edge>
    <edge id=":10118606631_0" function="internal">
        <lane id=":10118606631_0_0" index="0" allow="pedestrian delivery bicycle" speed="5.56" length="5.98" shape="379.01,314.50 378.26,313.63 377.15,312.88 375.68,312.25 373.86,311.74"/>
    </edge>
    <edge id=":10118606631_1" function="internal">
        <lane id=":10118606631_1_0" index="0" allow="pedestrian delivery bicycle" speed="5.56" length="8.65" shape="379.01,314.50 377.85,312.29 377.50,310.57 377.72,308.75 378.25,306.24"/>
    </edge>
    <edge id=":10118606631_2" function="internal">
        <lane id=":10118606631_2_0" index="0" allow="pedestrian delivery bicycle" speed="3.65" length="4.67" shape="379.01,314.50 379.06,313.05 379.53,312.29 380.42,312.21 381.73,312.81"/>
    </edge>
    <edge id=":10118606631_3" function="internal">
        <lane id=":10118606631_3_0" index="0" allow="pedestrian delivery bicycle" speed="5.56" length="6.20" shape="381.39,306.87 380.97,308.67 380.75,309.99 380.93,311.22 381.73,312.81"/>
    </edge>
    <edge id=":10118606631_4" function="internal">
        <lane id=":10118606631_4_0" index="0" allow="pedestrian delivery bicycle" speed="5.56" length="10.29" shape="381.39,306.87 380.44,309.54 378.87,311.24 376.67,311.97 373.86,311.74"/>
    </edge>
    <edge id=":10118606631_5" function="internal">
        <lane id=":10118606631_5_0" index="0" allow="pedestrian delivery bicycle" speed="3.65" length="4.67" shape="381.39,306.87 380.37,307.89 379.51,308.12 378.80,307.57 378.25,306.24"/>
    </edge>
    <edge id=":10118606631_6" function="internal">
        <lane id=":10118606631_6_0" index="0" allow="pedestrian delivery bicycle" speed="5.01" length="5.03" shape="374.57,308.62 375.95,308.73 377.02,308.37 377.79,307.54 378.25,306.24"/>
    </edge>
    <edge id=":10118606631_7" function="internal">
        <lane id=":10118606631_7_0" index="0" allow="pedestrian delivery bicycle" speed="5.56" length="8.50" shape="374.57,308.62 377.01,309.33 379.02,310.27 380.59,311.43 381.73,312.81"/>
    </edge>
    <edge id=":10118606631_8" function="internal">
        <lane id=":10118606631_8_0" index="0" allow="pedestrian delivery bicycle" speed="3.65" length="4.67" shape="374.57,308.62 375.56,309.66 375.77,310.53 375.20,311.22 373.86,311.74"/>
    </edge>
    <edge id=":10118606648_0" function="internal">
        <lane id=":10118606648_0_0" index="0" disallow="tram rail_urban rail rail_electric rail_fast ship" speed="8.33" length="1.08" shape="555.84,347.10 555.96,348.18"/>
    </edge>
    <edge id=":10118606648_1" function="internal">
        <lane id=":10118606648_1_0" index="0" disallow="tram rail_urban rail rail_electric rail_fast ship" speed="8.33" length="1.08" shape="559.14,347.82 559.02,346.74"/>
    </edge>
    <edge id=":1022550614_0" function="internal">
        <lane id=":1022550614_0_0" index="0" allow="tram" speed="13.89" length="2.99" shape="519.74,26.30 522.03,24.38"/>
    </edge>
    <edge id=":1022550614_1" function="internal">
        <lane id=":1022550614_1_0" index="0" allow="tram" speed="13.89" length="2.99" shape="519.74,26.30 522.09,24.45"/>
    </edge>
    <edge id=":1022550624_0" function="internal">
        <lane id=":1022550624_0_0" index="0" allow="tram" speed="13.89" length="3.00" shape="510.29,34.29 512.59,32.36"/>
    </edge>
    <edge id=":1022550636_0" function="internal">
        <lane id=":1022550636_0_0" index="0" allow="tram" speed="13.89" length="3.01" shape="471.35,81.86 472.39,84.68"/>
    </edge>
    <edge id=":1022550636_1" function="internal">
        <lane id=":1022550636_1_0" index="0" allow="tram" speed="13.89" length="2.75" shape="471.35,81.86 472.17,84.49"/>
    </edge>
    <edge id=":1022550644_0" function="internal">
        <lane id=":1022550644_0_0" index="0" allow="tram" speed="13.89" length="0.10" shape="487.33,95.78 487.33,95.78"/>
    </edge>
    <edge id=":1022550707_0" function="internal">
        <lane id=":1022550707_0_0" index="0" allow="tram" speed="13.89" length="2.77" shape="581.34,18.81 578.72,19.72"/>
    </edge>
    <edge id=":1022550707_1" function="internal">
        <lane id=":1022550707_1_0" index="0" allow="tram" speed="13.89" length="2.77" shape="581.34,18.81 580.57,19.10 580.03,19.28 579.49,19.43 578.69,19.63"/>
    </edge>
    <edge id=":1022550711_0" function="internal">
        <lane id=":1022550711_0_0" index="0" allow="tram" speed="13.89" length="3.00" shape="485.36,46.35 482.48,47.19"/>
    </edge>
    <edge id=":1022550711_1" function="internal">
        <lane id=":1022550711_1_0" index="0" allow="tram" speed="13.89" length="2.99" shape="485.33,46.27 482.48,47.19"/>
    </edge>
    <edge id=":1022565317_0" function="internal">
        <lane id=":1022565317_0_0" index="0" allow="tram" speed="13.89" length="2.98" shape="266.11,262.88 268.73,264.30"/>
    </edge>
    <edge id=":1022565317_1" function="internal">
        <lane id=":1022565317_1_0" index="0" allow="tram" speed="13.89" length="2.98" shape="266.06,262.98 268.73,264.30"/>
    </edge>
    <edge id=":1022565318_0" function="internal">
        <lane id=":1022565318_0_0" index="0" disallow="pedestrian tram rail_urban rail rail_electric rail_fast ship" speed="8.33" length="0.20" shape="357.14,257.14 357.09,257.33"/>
    </edge>
    <edge id=":1022565318_1" function="internal">
        <lane id=":1022565318_1_0" index="0" disallow="pedestrian tram rail_urban rail rail_electric rail_fast ship" speed="8.33" length="0.30" shape="354.00,256.51 354.08,256.22"/>
    </edge>
    <edge id=":1023304230_0" function="internal">
        <lane id=":1023304230_0_0" index="0" allow="delivery bicycle" speed="6.08" length="7.76" shape="33.99,27.35 33.87,25.94 34.62,24.61 36.24,23.35 38.75,22.18"/>
    </edge>
    <edge id=":1023304230_1" function="internal">
        <lane id=":1023304230_1_0" index="0" allow="pedestrian delivery bicycle" speed="3.65" length="4.67" shape="33.99,27.35 34.30,25.94 34.90,25.28 35.79,25.36 36.97,26.19"/>
    </edge>
    <edge id=":1023304560_0" function="internal">
        <lane id=":1023304560_0_0" index="0" disallow="pedestrian tram rail_urban rail rail_electric rail_fast ship" speed="8.33" length="9.46" shape="69.78,79.98 61.32,84.19"/>
    </edge>
    <edge id=":1023304560_1" function="internal">
        <lane id=":1023304560_1_0" index="0" allow="delivery bicycle" speed="6.37" length="7.78" shape="69.78,79.98 67.28,81.02 65.25,81.41 63.69,81.14 62.62,80.22"/>
    </edge>
    <edge id=":1023304560_2" function="internal">
        <lane id=":1023304560_2_0" index="0" allow="delivery bicycle" speed="5.89" length="7.94" shape="65.27,78.43 65.74,79.86 65.24,81.30 63.76,82.74 61.32,84.19"/>
    </edge>
    <edge id=":1023304560_3" function="internal">
        <lane id=":1023304560_3_0" index="0" allow="pedestrian delivery bicycle" speed="3.65" length="4.67" shape="65.27,78.43 65.28,79.88 64.84,80.65 63.95,80.77 62.62,80.22"/>
    </edge>
    <edge id=":1025304325_0" function="internal">
        <lane id=":1025304325_0_0" index="0" disallow="tram rail_urban rail rail_electric rail_fast ship" speed="5.56" length="9.14" shape="360.54,42.70 363.07,43.67 364.83,44.26 366.63,44.71 369.29,45.26"/>
    </edge>
    <edge id=":1025304325_1" function="internal">
        <lane id=":1025304325_1_0" index="0" allow="pedestrian delivery bicycle" speed="5.56" length="7.61" shape="360.54,42.70 362.99,43.84 364.65,45.04 365.52,46.30 365.60,47.62"/>
    </edge>
    <edge id=":1025304325_2" function="internal">
        <lane id=":1025304325_2_0" index="0" allow="pedestrian delivery bicycle" speed="5.56" length="7.66" shape="362.49,46.89 363.17,45.71 364.53,45.05 366.57,44.90 369.29,45.26"/>
    </edge>
    <edge id=":1025304325_3" function="internal">
        <lane id=":1025304325_3_0" index="0" allow="pedestrian delivery bicycle" speed="3.65" length="4.67" shape="362.49,46.89 363.54,45.90 364.41,45.70 365.10,46.27 365.60,47.62"/>
    </edge>
    <edge id=":10257712346_0" function="internal">
        <lane id=":10257712346_0_0" index="0" allow="pedestrian bus delivery bicycle tram" speed="5.56" length="0.30" shape="409.48,397.98 409.41,398.28"/>
    </edge>
    <edge id=":10257712346_1" function="internal">
        <lane id=":10257712346_1_0" index="0" allow="pedestrian bus delivery bicycle tram" speed="5.56" length="0.30" shape="406.30,397.54 406.37,397.25"/>
    </edge>
    <edge id=":10268308584_0" function="internal">
        <lane id=":10268308584_0_0" index="0" allow="tram" speed="13.89" length="4.68" shape="398.41,138.91 397.06,139.20 396.13,139.42 395.22,139.70 393.91,140.15"/>
    </edge>
    <edge id=":10268308584_1" function="internal">
        <lane id=":10268308584_1_0" index="0" allow="tram" speed="13.89" length="6.70" shape="394.24,136.65 394.89,138.53 395.43,139.78 396.06,140.99 397.02,142.73"/>
    </edge>
    <edge id=":10268336874_0" function="internal">
        <lane id=":10268336874_0_0" index="0" allow="tram" speed="13.89" length="14.66" shape="388.42,131.01 387.89,127.35 387.48,123.73 387.22,120.11 387.13,116.41"/>
    </edge>
    <edge id=":10268336874_1" function="internal">
        <lane id=":10268336874_1_0" index="0" allow="tram" speed="13.89" length="11.55" shape="389.83,119.61 386.38,130.63"/>
    </edge>
    <edge id=":10268336886_0" function="internal">
        <lane id=":10268336886_0_0" index="0" allow="tram" speed="13.89" length="9.53" shape="384.83,145.23 382.75,147.15 381.39,148.54 380.25,150.11 378.84,152.55"/>
    </edge>
    <edge id=":10268336886_1" function="internal">
        <lane id=":10268336886_1_0" index="0" allow="tram" speed="13.89" length="5.95" shape="381.73,149.67 383.20,148.78 384.35,148.46 385.61,148.42 387.38,148.40"/>
    </edge>
    <edge id=":10268336891_0" function="internal">
        <lane id=":10268336891_0_0" index="0" allow="tram" speed="13.89" length="12.60" shape="400.89,155.69 394.28,144.95"/>
    </edge>
    <edge id=":10268336891_1" function="internal">
        <lane id=":10268336891_1_0" index="0" allow="tram" speed="13.89" length="12.90" shape="391.62,148.39 395.32,149.04 398.46,150.15 401.02,151.69 403.02,153.69"/>
    </edge>
    <edge id=":10268336899_0" function="internal">
        <lane id=":10268336899_0_0" index="0" allow="tram" speed="13.89" length="13.47" shape="386.31,130.82 381.36,143.34"/>
    </edge>
    <edge id=":10268336899_1" function="internal">
        <lane id=":10268336899_1_0" index="0" allow="tram" speed="13.89" length="9.88" shape="382.52,137.78 384.17,135.36 385.46,133.79 387.03,132.53 389.55,131.08"/>
    </edge>
    <edge id=":10268336902_0" function="internal">
        <lane id=":10268336902_0_0" index="0" allow="tram" speed="13.89" length="3.85" shape="389.72,134.82 389.28,133.76 388.95,133.05 388.68,132.31 388.45,131.20"/>
    </edge>
    <edge id=":10268336902_1" function="internal">
        <lane id=":10268336902_1_0" index="0" allow="tram" speed="5.88" length="5.71" shape="389.72,134.82 389.37,133.25 389.61,132.00 390.45,131.05 391.87,130.40"/>
    </edge>
    <edge id=":10268336902_2" function="internal">
        <lane id=":10268336902_2_0" index="0" allow="tram" speed="3.98" length="1.29" shape="389.73,130.98 388.45,131.20"/>
    </edge>
    <edge id=":10268336902_3" function="internal">
        <lane id=":10268336902_3_0" index="0" allow="tram" speed="13.89" length="2.24" shape="389.73,130.98 390.32,130.71 390.77,130.61 391.22,130.55 391.87,130.40"/>
    </edge>
    <edge id=":10268336904_0" function="internal">
        <lane id=":10268336904_0_0" index="0" allow="tram" speed="5.94" length="5.25" shape="393.62,143.75 392.73,142.51 391.71,141.82 390.56,141.68 389.29,142.09"/>
    </edge>
    <edge id=":10268336904_1" function="internal">
        <lane id=":10268336904_1_0" index="0" allow="tram" speed="13.89" length="6.47" shape="393.62,143.75 392.70,142.07 392.09,140.90 391.56,139.70 390.87,137.91"/>
    </edge>
    <edge id=":10268336904_2" function="internal">
        <lane id=":10268336904_2_0" index="0" allow="tram" speed="13.89" length="4.82" shape="393.72,140.22 392.38,140.70 391.46,141.05 390.57,141.45 389.29,142.09"/>
    </edge>
    <edge id=":10268336904_3" function="internal">
        <lane id=":10268336904_3_0" index="0" allow="tram" speed="5.32" length="4.10" shape="393.72,140.22 392.89,140.31 392.13,139.95 391.46,139.15 390.87,137.91"/>
    </edge>
    <edge id=":10268340139_0" function="internal">
        <lane id=":10268340139_0_0" index="0" allow="tram" speed="13.89" length="0.40" shape="526.44,20.68 526.75,20.42"/>
    </edge>
    <edge id=":10268340139_1" function="internal">
        <lane id=":10268340139_1_0" index="0" allow="tram" speed="13.89" length="3.00" shape="526.44,20.68 528.77,18.78"/>
    </edge>
    <edge id=":10268349458_0" function="internal">
        <lane id=":10268349458_0_0" index="0" allow="tram" speed="13.89" length="6.74" shape="596.36,3.34 594.53,2.57 593.20,2.20 591.82,2.11 589.83,2.18"/>
    </edge>
    <edge id=":10268349458_1" function="internal">
        <lane id=":10268349458_1_0" index="0" allow="tram" speed="13.89" length="6.09" shape="593.20,-0.25 593.26,1.56 593.28,2.80 593.15,4.03 592.78,5.80"/>
    </edge>
    <edge id=":10268349467_0" function="internal">
        <lane id=":10268349467_0_0" index="0" allow="tram" speed="13.89" length="9.89" shape="572.35,20.49 569.49,20.67 567.60,21.31 565.82,22.38 563.29,23.89"/>
    </edge>
    <edge id=":10268349467_1" function="internal">
        <lane id=":10268349467_1_0" index="0" allow="tram" speed="13.89" length="10.44" shape="572.35,20.49 561.91,20.25"/>
    </edge>
    <edge id=":10268349467_2" function="internal">
        <lane id=":10268349467_2_0" index="0" allow="tram" speed="13.89" length="10.52" shape="570.67,16.60 568.86,19.09 567.50,20.85 565.87,22.31 563.29,23.89"/>
    </edge>
    <edge id=":10268349467_3" function="internal">
        <lane id=":10268349467_3_0" index="0" allow="tram" speed="13.40" length="9.83" shape="570.67,16.60 569.10,18.18 567.12,19.32 564.72,20.01 561.91,20.25"/>
    </edge>
    <edge id=":1052078755_0" function="internal">
        <lane id=":1052078755_0_0" index="0" disallow="pedestrian tram rail_urban rail rail_electric rail_fast ship" speed="8.15" length="8.24" shape="393.70,154.06 392.03,152.13 390.36,150.78 388.68,150.02 387.00,149.84"/>
    </edge>
    <edge id=":1052078755_1" function="internal">
        <lane id=":1052078755_1_0" index="0" allow="bus" speed="13.89" length="9.28" shape="393.70,154.06 392.66,151.67 392.82,149.67 393.01,147.64 392.09,145.18"/>
    </edge>
    <edge id=":1052078755_2" function="internal">
        <lane id=":1052078755_2_0" index="0" allow="bus bicycle" speed="3.65" length="1.44" shape="396.26,152.13 396.18,150.69"/>
    </edge>
    <edge id=":1052078755_6" function="internal">
        <lane id=":1052078755_6_0" index="0" allow="bus bicycle" speed="3.65" length="3.23" shape="396.18,150.69 396.58,149.89 397.46,149.73 398.82,150.21"/>
    </edge>
    <edge id=":1052078755_3" function="internal">
        <lane id=":1052078755_3_0" index="0" allow="bus bicycle" speed="13.89" length="7.93" shape="394.75,143.40 398.82,150.21"/>
    </edge>
    <edge id=":1052078755_4" function="internal">
        <lane id=":1052078755_4_0" index="0" allow="pedestrian bus delivery bicycle" speed="6.56" length="3.12" shape="394.75,143.40 395.68,145.93 395.49,146.31"/>
    </edge>
    <edge id=":1052078755_5" function="internal">
        <lane id=":1052078755_5_0" index="0" allow="pedestrian bus delivery bicycle" speed="3.65" length="1.44" shape="394.75,143.40 394.75,144.85"/>
    </edge>
    <edge id=":1052078755_7" function="internal">
        <lane id=":1052078755_7_0" index="0" allow="pedestrian bus delivery bicycle" speed="6.56" length="9.77" shape="395.49,146.31 394.70,147.85 391.81,149.15 387.00,149.84"/>
    </edge>
    <edge id=":1052078755_8" function="internal">
        <lane id=":1052078755_8_0" index="0" allow="pedestrian bus delivery bicycle" speed="3.65" length="3.23" shape="394.75,144.85 394.30,145.62 393.42,145.73 392.09,145.18"/>
    </edge>
    <edge id=":10599531929_0" function="internal">
        <lane id=":10599531929_0_0" index="0" disallow="pedestrian tram rail_urban rail rail_electric rail_fast ship" speed="13.89" length="1.75" shape="389.30,119.44 388.88,121.14"/>
    </edge>
    <edge id=":10599531929_1" function="internal">
        <lane id=":10599531929_1_0" index="0" allow="tram" speed="13.89" length="0.59" shape="389.30,119.44 389.89,119.42"/>
    </edge>
    <edge id=":10599531929_2" function="internal">
        <lane id=":10599531929_2_0" index="0" allow="tram" speed="3.28" length="3.21" shape="389.30,119.44 388.81,120.03 388.03,120.03 387.35,119.57 387.12,118.75"/>
    </edge>
    <edge id=":10599531929_3" function="internal">
        <lane id=":10599531929_3_0" index="0" disallow="pedestrian rail_urban rail rail_electric rail_fast ship" speed="3.65" length="1.45" shape="389.30,119.44 388.17,120.35"/>
    </edge>
    <edge id=":10599531929_8" function="internal">
        <lane id=":10599531929_8_0" index="0" disallow="pedestrian rail_urban rail rail_electric rail_fast ship" speed="3.65" length="3.24" shape="388.17,120.35 387.29,120.49 386.64,119.87 386.24,118.48"/>
    </edge>
    <edge id=":10599531929_4" function="internal">
        <lane id=":10599531929_4_0" index="0" disallow="pedestrian rail_urban rail rail_electric rail_fast ship" speed="13.89" length="1.99" shape="385.77,120.42 386.24,118.48"/>
    </edge>
    <edge id=":10599531929_5" function="internal">
        <lane id=":10599531929_5_0" index="0" allow="tram" speed="13.89" length="2.14" shape="385.77,120.42 387.12,118.75"/>
    </edge>
    <edge id=":10599531929_6" function="internal">
        <lane id=":10599531929_6_0" index="0" allow="tram" speed="3.55" length="4.24" shape="385.77,120.42 389.89,119.42"/>
    </edge>
    <edge id=":10599531929_7" function="internal">
        <lane id=":10599531929_7_0" index="0" disallow="pedestrian tram rail_urban rail rail_electric rail_fast ship" speed="3.65" length="1.44" shape="385.77,120.42 386.82,119.43"/>
    </edge>
    <edge id=":10599531929_9" function="internal">
        <lane id=":10599531929_9_0" index="0" disallow="pedestrian tram rail_urban rail rail_electric rail_fast ship" speed="3.65" length="3.23" shape="386.82,119.43 387.69,119.22 388.37,119.79 388.88,121.14"/>
    </edge>
    <edge id=":107149759_0" function="internal">
        <lane id=":107149759_0_0" index="0" allow="bus delivery bicycle" speed="8.33" length="4.38" shape="250.93,239.74 250.52,240.97 250.37,241.85 250.40,242.75 250.57,244.03"/>
    </edge>
    <edge id=":107149759_1" function="internal">
        <lane id=":107149759_1_0" index="0" allow="bus delivery bicycle" speed="8.33" length="5.36" shape="250.93,239.74 250.31,241.16 249.64,242.01 248.71,242.67 247.35,243.49"/>
    </edge>
    <edge id=":107149759_2" function="internal">
        <lane id=":107149759_2_0" index="0" allow="tram" speed="11.11" length="5.49" shape="250.93,239.74 250.13,240.99 249.11,241.47 247.90,241.83 246.58,242.76"/>
    </edge>
    <edge id=":107154350_0" function="internal">