<?xml version="1.0" encoding="UTF-8"?>

<!-- generated on 2024-06-06 10:24:33 by Eclipse SUMO netedit Version v1_20_0+0411-7e8e9082b48
-->

<additional xmlns:xsi="http://www.w3.org/2001/XMLSchema-instance" xsi:noNamespaceSchemaLocation="http://sumo.dlr.de/xsd/additional_file.xsd">
    <!-- StoppingPlaces -->
    <containerStop id="containerStop_01" name="containerStop" lane="EdgeCenter1_1" startPos="25.00" endPos="35.00"/>
    <containerStop id="containerStop_04" name="containerStop" lane="EdgeCenter1_1" startPos="25.00" endPos="35.00" color="255,120,240"/>
    <containerStop id="containerStop_05" name="containerStop" lane="EdgeCenter1_1" startPos="25.00" endPos="35.00" color="red"/>
</additional>
