<connections>

	<connection from="1i" to="2o"/>
	<connection from="2i" to="1o"/>

	<connection from="3i" to="4o"/>
	<connection from="4i" to="3o"/>

</connections>