<?xml version="1.0" encoding="UTF-8"?>

<!-- generated on Fri Mar 12 14:49:20 2021 by Eclipse SUMO marouter Version v1_8_0+1620-1d485d3
This data file and the accompanying materials
are made available under the terms of the Eclipse Public License v2.0
which accompanies this distribution, and is available at
http://www.eclipse.org/legal/epl-v20.html
SPDX-License-Identifier: EPL-2.0
<configuration xmlns:xsi="http://www.w3.org/2001/XMLSchema-instance" xsi:noNamespaceSchemaLocation="http://sumo.dlr.de/xsd/marouterConfiguration.xsd">

    <input>
        <net-file value="input_net.net.xml"/>
        <additional-files value="input_taz.taz.xml"/>
        <route-files value="input_trips.trips.xml"/>
    </input>

    <output>
        <output-file value="routes.rou.xml"/>
        <write-license value="true"/>
    </output>

    <processing>
        <scale value="0.25"/>
    </processing>

    <report>
        <xml-validation value="never"/>
        <xml-validation.routes value="never"/>
    </report>

</configuration>
-->

<routes xmlns:xsi="http://www.w3.org/2001/XMLSchema-instance" xsi:noNamespaceSchemaLocation="http://sumo.dlr.de/xsd/routes_file.xsd">
    <vehicle id="63" depart="0.79" type="DEFAULT_VEHTYPE" fromTaz="1" toTaz="2" departLane="free" departSpeed="max">
        <routeDistribution>
            <route cost="91.00" probability="16.25000000" edges="middle end"/>
            <route cost="91.03" probability="8.75000000" edges="beg2left left left2end end"/>
        </routeDistribution>
    </vehicle>
    <vehicle id="19" depart="163.02" type="DEFAULT_VEHTYPE" fromTaz="1" toTaz="2" departLane="free" departSpeed="max">
        <routeDistribution>
            <route cost="91.00" probability="16.25000000" edges="middle end"/>
            <route cost="91.03" probability="8.75000000" edges="beg2left left left2end end"/>
        </routeDistribution>
    </vehicle>
    <vehicle id="68" depart="212.57" type="DEFAULT_VEHTYPE" fromTaz="1" toTaz="2" departLane="free" departSpeed="max">
        <routeDistribution>
            <route cost="91.00" probability="16.25000000" edges="middle end"/>
            <route cost="91.03" probability="8.75000000" edges="beg2left left left2end end"/>
        </routeDistribution>
    </vehicle>
    <vehicle id="49" depart="353.09" type="DEFAULT_VEHTYPE" fromTaz="1" toTaz="2" departLane="free" departSpeed="max">
        <routeDistribution>
            <route cost="91.00" probability="16.25000000" edges="middle end"/>
            <route cost="91.03" probability="8.75000000" edges="beg2left left left2end end"/>
        </routeDistribution>
    </vehicle>
    <vehicle id="7" depart="381.92" type="DEFAULT_VEHTYPE" fromTaz="1" toTaz="2" departLane="free" departSpeed="max">
        <routeDistribution>
            <route cost="91.00" probability="16.25000000" edges="middle end"/>
            <route cost="91.03" probability="8.75000000" edges="beg2left left left2end end"/>
        </routeDistribution>
    </vehicle>
    <vehicle id="33" depart="423.68" type="DEFAULT_VEHTYPE" fromTaz="1" toTaz="2" departLane="free" departSpeed="max">
        <routeDistribution>
            <route cost="91.00" probability="16.25000000" edges="middle end"/>
            <route cost="91.03" probability="8.75000000" edges="beg2left left left2end end"/>
        </routeDistribution>
    </vehicle>
    <vehicle id="61" depart="587.90" type="DEFAULT_VEHTYPE" fromTaz="1" toTaz="2" departLane="free" departSpeed="max">
        <routeDistribution>
            <route cost="91.00" probability="16.25000000" edges="middle end"/>
            <route cost="91.03" probability="8.75000000" edges="beg2left left left2end end"/>
        </routeDistribution>
    </vehicle>
    <vehicle id="91" depart="688.48" type="DEFAULT_VEHTYPE" fromTaz="1" toTaz="2" departLane="free" departSpeed="max">
        <routeDistribution>
            <route cost="91.00" probability="16.25000000" edges="middle end"/>
            <route cost="91.03" probability="8.75000000" edges="beg2left left left2end end"/>
        </routeDistribution>
    </vehicle>
    <vehicle id="60" depart="782.98" type="DEFAULT_VEHTYPE" fromTaz="1" toTaz="2" departLane="free" departSpeed="max">
        <routeDistribution>
            <route cost="91.00" probability="16.25000000" edges="middle end"/>
            <route cost="91.03" probability="8.75000000" edges="beg2left left left2end end"/>
        </routeDistribution>
    </vehicle>
    <vehicle id="40" depart="927.91" type="DEFAULT_VEHTYPE" fromTaz="1" toTaz="2" departLane="free" departSpeed="max">
        <routeDistribution>
            <route cost="91.00" probability="16.25000000" edges="middle end"/>
            <route cost="91.03" probability="8.75000000" edges="beg2left left left2end end"/>
        </routeDistribution>
    </vehicle>
    <vehicle id="39" depart="1038.84" type="DEFAULT_VEHTYPE" fromTaz="1" toTaz="2" departLane="free" departSpeed="max">
        <routeDistribution>
            <route cost="91.00" probability="16.25000000" edges="middle end"/>
            <route cost="91.03" probability="8.75000000" edges="beg2left left left2end end"/>
        </routeDistribution>
    </vehicle>
    <vehicle id="85" depart="1247.62" type="DEFAULT_VEHTYPE" fromTaz="1" toTaz="2" departLane="free" departSpeed="max">
        <routeDistribution>
            <route cost="91.00" probability="16.25000000" edges="middle end"/>
            <route cost="91.03" probability="8.75000000" edges="beg2left left left2end end"/>
        </routeDistribution>
    </vehicle>
    <vehicle id="89" depart="1312.47" type="DEFAULT_VEHTYPE" fromTaz="1" toTaz="2" departLane="free" departSpeed="max">
        <routeDistribution>
            <route cost="91.00" probability="16.25000000" edges="middle end"/>
            <route cost="91.03" probability="8.75000000" edges="beg2left left left2end end"/>
        </routeDistribution>
    </vehicle>
    <vehicle id="22" depart="1651.42" type="DEFAULT_VEHTYPE" fromTaz="1" toTaz="2" departLane="free" departSpeed="max">
        <routeDistribution>
            <route cost="91.00" probability="16.25000000" edges="middle end"/>
            <route cost="91.03" probability="8.75000000" edges="beg2left left left2end end"/>
        </routeDistribution>
    </vehicle>
    <vehicle id="32" depart="1763.21" type="DEFAULT_VEHTYPE" fromTaz="1" toTaz="2" departLane="free" departSpeed="max">
        <routeDistribution>
            <route cost="91.00" probability="16.25000000" edges="middle end"/>
            <route cost="91.03" probability="8.75000000" edges="beg2left left left2end end"/>
        </routeDistribution>
    </vehicle>
    <vehicle id="18" depart="1848.48" type="DEFAULT_VEHTYPE" fromTaz="1" toTaz="2" departLane="free" departSpeed="max">
        <routeDistribution>
            <route cost="91.00" probability="16.25000000" edges="middle end"/>
            <route cost="91.03" probability="8.75000000" edges="beg2left left left2end end"/>
        </routeDistribution>
    </vehicle>
    <vehicle id="57" depart="1972.95" type="DEFAULT_VEHTYPE" fromTaz="1" toTaz="2" departLane="free" departSpeed="max">
        <routeDistribution>
            <route cost="91.00" probability="16.25000000" edges="middle end"/>
            <route cost="91.03" probability="8.75000000" edges="beg2left left left2end end"/>
        </routeDistribution>
    </vehicle>
    <vehicle id="66" depart="2137.39" type="DEFAULT_VEHTYPE" fromTaz="1" toTaz="2" departLane="free" departSpeed="max">
        <routeDistribution>
            <route cost="91.00" probability="16.25000000" edges="middle end"/>
            <route cost="91.03" probability="8.75000000" edges="beg2left left left2end end"/>
        </routeDistribution>
    </vehicle>
    <vehicle id="20" depart="2239.54" type="DEFAULT_VEHTYPE" fromTaz="1" toTaz="2" departLane="free" departSpeed="max">
        <routeDistribution>
            <route cost="91.00" probability="16.25000000" edges="middle end"/>
            <route cost="91.03" probability="8.75000000" edges="beg2left left left2end end"/>
        </routeDistribution>
    </vehicle>
    <vehicle id="10" depart="2300.46" type="DEFAULT_VEHTYPE" fromTaz="1" toTaz="2" departLane="free" departSpeed="max">
        <routeDistribution>
            <route cost="91.00" probability="16.25000000" edges="middle end"/>
            <route cost="91.03" probability="8.75000000" edges="beg2left left left2end end"/>
        </routeDistribution>
    </vehicle>
    <vehicle id="79" depart="2440.80" type="DEFAULT_VEHTYPE" fromTaz="1" toTaz="2" departLane="free" departSpeed="max">
        <routeDistribution>
            <route cost="91.00" probability="16.25000000" edges="middle end"/>
            <route cost="91.03" probability="8.75000000" edges="beg2left left left2end end"/>
        </routeDistribution>
    </vehicle>
    <vehicle id="74" depart="2571.59" type="DEFAULT_VEHTYPE" fromTaz="1" toTaz="2" departLane="free" departSpeed="max">
        <routeDistribution>
            <route cost="91.00" probability="16.25000000" edges="middle end"/>
            <route cost="91.03" probability="8.75000000" edges="beg2left left left2end end"/>
        </routeDistribution>
    </vehicle>
    <vehicle id="71" depart="2853.62" type="DEFAULT_VEHTYPE" fromTaz="1" toTaz="2" departLane="free" departSpeed="max">
        <routeDistribution>
            <route cost="91.00" probability="16.25000000" edges="middle end"/>
            <route cost="91.03" probability="8.75000000" edges="beg2left left left2end end"/>
        </routeDistribution>
    </vehicle>
    <vehicle id="90" depart="3029.70" type="DEFAULT_VEHTYPE" fromTaz="1" toTaz="2" departLane="free" departSpeed="max">
        <routeDistribution>
            <route cost="91.00" probability="16.25000000" edges="middle end"/>
            <route cost="91.03" probability="8.75000000" edges="beg2left left left2end end"/>
        </routeDistribution>
    </vehicle>
    <vehicle id="31" depart="3381.69" type="DEFAULT_VEHTYPE" fromTaz="1" toTaz="2" departLane="free" departSpeed="max">
        <routeDistribution>
            <route cost="91.00" probability="16.25000000" edges="middle end"/>
            <route cost="91.03" probability="8.75000000" edges="beg2left left left2end end"/>
        </routeDistribution>
    </vehicle>
</routes>
