<?xml version="1.0" encoding="UTF-8"?>

<!-- generated on 2025-03-20 14:23:53 by Eclipse SUMO sumo Version v1_22_0+0925-e8e5fe25557
This data file and the accompanying materials
are made available under the terms of the Eclipse Public License v2.0
which accompanies this distribution, and is available at
http://www.eclipse.org/legal/epl-v20.html
This file may also be made available under the following Secondary
Licenses when the conditions for such availability set forth in the Eclipse
Public License 2.0 are satisfied: GNU General Public License, version 2
or later which is available at
https://www.gnu.org/licenses/old-licenses/gpl-2.0-standalone.html
SPDX-License-Identifier: EPL-2.0 OR GPL-2.0-or-later
<sumoConfiguration xmlns:xsi="http://www.w3.org/2001/XMLSchema-instance" xsi:noNamespaceSchemaLocation="http://sumo.dlr.de/xsd/sumoConfiguration.xsd">

    <input>
        <net-file value="net.net.xml"/>
        <route-files value="input_routes.rou.xml"/>
    </input>

    <output>
        <write-license value="true"/>
    </output>

    <time>
        <step-length value="0.25"/>
    </time>

    <processing>
        <extrapolate-departpos value="true"/>
    </processing>

    <report>
        <xml-validation value="never"/>
        <no-step-log value="true"/>
    </report>

    <ssm_device>
        <device.ssm.probability value="1"/>
        <device.ssm.measures value="TTC"/>
        <device.ssm.range value="200"/>
        <device.ssm.file value="ssm.xml"/>
    </ssm_device>

</sumoConfiguration>
-->

<SSMLog>
    <conflict begin="170.75" end="174.75" ego="flow_1.26" foe="flow_0.2">
        <minTTC time="174.25" position="4273.25,101.78" type="20" value="0.40" speed="21.21"/>
    </conflict>
    <conflict begin="172.25" end="174.75" ego="flow_1.26" foe="flow_0.5">
        <minTTC time="174.25" position="4238.98,101.79" type="20" value="1.69" speed="21.21"/>
    </conflict>
    <conflict begin="170.75" end="174.75" ego="flow_0.2" foe="flow_1.26">
        <minTTC time="174.25" position="4273.25,101.78" type="20" value="0.40" speed="22.57"/>
    </conflict>
    <conflict begin="172.25" end="174.75" ego="flow_0.5" foe="flow_1.26">
        <minTTC time="174.25" position="4238.98,101.79" type="20" value="1.69" speed="29.70"/>
    </conflict>
    <conflict begin="482.75" end="486.50" ego="flow_0.110" foe="flow_1.89">
        <minTTC time="486.00" position="1779.90,101.92" type="20" value="0.72" speed="20.05"/>
    </conflict>
    <conflict begin="482.75" end="486.50" ego="flow_1.89" foe="flow_0.110">
        <minTTC time="486.00" position="1779.90,101.92" type="20" value="0.72" speed="24.73"/>
    </conflict>
</SSMLog>
