<?xml version="1.0" encoding="UTF-8"?>

<!-- generated on Thu Apr 25 22:44:37 2019 by Eclipse SUMO netconvert Version v1_2_0+0022-5179cc2293
This data file and the accompanying materials
are made available under the terms of the Eclipse Public License v2.0
which accompanies this distribution, and is available at
http://www.eclipse.org/legal/epl-v20.html
SPDX-License-Identifier: EPL-2.0
<configuration xmlns:xsi="http://www.w3.org/2001/XMLSchema-instance" xsi:noNamespaceSchemaLocation="http://sumo.dlr.de/xsd/netconvertConfiguration.xsd">

    <input>
        <sumo-net-file value="input_net.net.xml"/>
    </input>

    <output>
        <write-license value="true"/>
        <output.street-names value="true"/>
    </output>

    <processing>
        <geometry.max-grade.fix value="false"/>
        <offset.disable-normalization value="true"/>
        <lefthand value="false"/>
    </processing>

    <junctions>
        <no-turnarounds value="true"/>
        <junctions.corner-detail value="0"/>
        <junctions.limit-turn-speed value="-1"/>
        <rectangular-lane-cut value="false"/>
    </junctions>

    <pedestrian>
        <walkingareas value="false"/>
    </pedestrian>

    <report>
        <xml-validation value="never"/>
    </report>

</configuration>
-->

<net version="1.1" xmlns:xsi="http://www.w3.org/2001/XMLSchema-instance" xsi:noNamespaceSchemaLocation="http://sumo.dlr.de/xsd/net_file.xsd">

    <location netOffset="-457072.80,-3110686.91" convBoundary="0.00,0.00,340.83,612.25" origBoundary="-15.437094,28.121036,-15.433625,28.126563" projParameter="+proj=utm +zone=28 +ellps=WGS84 +datum=WGS84 +units=m +no_defs"/>

    <edge id=":1553017429_0" function="internal">
        <lane id=":1553017429_0_0" index="0" disallow="tram rail_urban rail rail_electric pedestrian ship" speed="11.11" length="12.85" shape="231.72,504.11 224.46,514.71"/>
    </edge>
    <edge id=":1553017429_1" function="internal">
        <lane id=":1553017429_1_0" index="0" disallow="tram rail_urban rail rail_electric pedestrian ship" speed="11.11" length="2.34" shape="231.72,504.11 230.34,504.53 229.47,504.33"/>
    </edge>
    <edge id=":1553017429_5" function="internal">
        <lane id=":1553017429_5_0" index="0" disallow="tram rail_urban rail rail_electric pedestrian ship" speed="11.11" length="2.34" shape="229.47,504.33 229.10,503.51 229.25,502.08"/>
    </edge>
    <edge id=":1553017429_2" function="internal">
        <lane id=":1553017429_2_0" index="0" disallow="tram rail_urban rail rail_electric pedestrian ship" speed="11.11" length="14.10" shape="216.90,508.28 220.85,506.81 223.77,506.07 226.35,504.88 229.25,502.08"/>
    </edge>
    <edge id=":1553017429_3" function="internal">
        <lane id=":1553017429_3_0" index="0" disallow="tram rail_urban rail rail_electric pedestrian ship" speed="11.11" length="13.10" shape="221.84,512.85 224.19,509.78 225.57,507.49 226.93,505.19 229.25,502.08"/>
    </edge>
    <edge id=":1553017429_4" function="internal">
        <lane id=":1553017429_4_0" index="0" disallow="tram rail_urban rail rail_electric pedestrian ship" speed="11.11" length="2.35" shape="221.84,512.85 223.19,512.34 224.08,512.47"/>
    </edge>
    <edge id=":1553017429_6" function="internal">
        <lane id=":1553017429_6_0" index="0" disallow="tram rail_urban rail rail_electric pedestrian ship" speed="11.11" length="2.35" shape="224.08,512.47 224.50,513.26 224.46,514.71"/>
    </edge>
    <edge id=":1553017429_c0" function="crossing" crossingEdges="-324751736 324751736">
        <lane id=":1553017429_c0_0" index="0" allow="pedestrian" speed="1.00" length="6.40" width="4.00" shape="226.74,502.61 231.69,506.67"/>
    </edge>
    <edge id=":1553017429_c1" function="crossing" crossingEdges="175999152">
        <lane id=":1553017429_c1_0" index="0" allow="pedestrian" speed="1.00" length="3.25" width="4.00" shape="219.41,508.88 218.01,505.96"/>
    </edge>
    <edge id=":1553017429_c2" function="crossing" crossingEdges="182175776 -324751734#0">
        <lane id=":1553017429_c2_0" index="0" allow="pedestrian" speed="1.00" length="6.41" width="4.00" shape="226.97,514.22 221.91,510.29"/>
    </edge>
    <edge id=":1553017429_w0" function="walkingarea">
        <lane id=":1553017429_w0_0" index="0" allow="pedestrian" speed="1.00" length="8.01" width="4.00" shape="228.20,512.64 225.75,515.80 225.85,515.54 228.14,517.48 235.28,507.02 232.96,505.12 230.42,508.21"/>
    </edge>
    <edge id=":1553017429_w1" function="walkingarea">
        <lane id=":1553017429_w1_0" index="0" allow="pedestrian" speed="1.00" length="8.18" width="4.00" shape="225.47,504.16 228.01,501.06 225.69,499.16 215.21,505.11 216.07,506.91 216.20,506.82 219.81,505.09"/>
    </edge>
    <edge id=":1553017429_w2" function="walkingarea">
        <lane id=":1553017429_w2_0" index="0" allow="pedestrian" speed="1.00" length="2.59" width="4.00" shape="221.21,508.02 217.60,509.75 218.15,510.09 220.44,512.02 220.68,511.88 223.13,508.71"/>
    </edge>
    <edge id=":1865620718_0" function="internal">
        <lane id=":1865620718_0_0" index="0" disallow="tram rail_urban rail rail_electric pedestrian ship" speed="11.11" length="4.09" shape="154.32,484.49 155.89,486.30 156.73,487.77"/>
    </edge>
    <edge id=":1865620718_1" function="internal">
        <lane id=":1865620718_1_0" index="0" disallow="tram rail_urban rail rail_electric pedestrian ship" speed="11.11" length="8.09" shape="154.32,484.49 156.03,486.11 157.16,487.25 158.25,488.44 159.80,490.21"/>
        <lane id=":1865620718_1_1" index="1" disallow="tram rail_urban rail rail_electric pedestrian ship" speed="11.11" length="8.09" shape="152.12,486.81 153.89,488.50 155.07,489.70 156.19,490.94 157.80,492.78"/>
    </edge>
    <edge id=":1865620718_3" function="internal">
        <lane id=":1865620718_3_0" index="0" disallow="tram rail_urban rail rail_electric pedestrian ship" speed="11.11" length="4.04" shape="156.73,487.77 157.61,489.18 159.34,490.81"/>
    </edge>
    <edge id=":1865620718_c0" function="crossing" crossingEdges="175999152">
        <lane id=":1865620718_c0_0" index="0" allow="pedestrian" speed="1.00" length="3.20" width="4.00" shape="158.72,488.32 156.78,490.87"/>
    </edge>
    <edge id=":1865620718_w0" function="walkingarea">
        <lane id=":1865620718_w0_0" index="0" allow="pedestrian" speed="1.00" length="5.40" width="4.00" shape="160.68,488.78 162.18,487.46 158.37,492.08 155.19,489.66"/>
    </edge>
    <edge id=":1865620718_w1" function="walkingarea">
        <lane id=":1865620718_w1_0" index="0" allow="pedestrian" speed="1.00" length="5.56" width="4.00" shape="157.12,487.11 160.33,489.55 161.54,487.96 157.48,481.15 155.42,483.33"/>
    </edge>
    <edge id=":1865620843_0" function="internal">
        <lane id=":1865620843_0_0" index="0" disallow="tram rail_urban rail rail_electric pedestrian ship" speed="11.11" length="16.38" shape="205.86,536.95 195.38,549.54"/>
    </edge>
    <edge id=":1865620843_1" function="internal">
        <lane id=":1865620843_1_0" index="0" disallow="tram rail_urban rail rail_electric pedestrian ship" speed="11.11" length="17.24" shape="200.02,533.54 199.99,538.65 199.64,542.26 198.33,545.51 195.38,549.54"/>
    </edge>
    <edge id=":1865620843_2" function="internal">
        <lane id=":1865620843_2_0" index="0" disallow="tram rail_urban rail rail_electric pedestrian ship" speed="11.11" length="15.66" shape="192.92,547.50 202.93,535.46"/>
    </edge>
    <edge id=":1865620843_c1" function="crossing" crossingEdges="175999132#2">
        <lane id=":1865620843_c1_0" index="0" allow="pedestrian" speed="1.00" length="6.98" width="4.00" shape="195.23,532.68 201.59,535.56"/>
    </edge>
    <edge id=":1865620843_c3" function="crossing" crossingEdges="181961196 -181961196">
        <lane id=":1865620843_c3_0" index="0" allow="pedestrian" speed="1.00" length="6.40" width="4.00" shape="197.89,549.02 192.96,544.94"/>
    </edge>
    <edge id=":1865620843_w0" function="walkingarea">
        <lane id=":1865620843_w0_0" index="0" allow="pedestrian" speed="1.00" length="10.59" width="4.00" shape="199.16,547.48 196.61,550.56 198.92,552.48 209.58,539.67 207.30,537.72 207.07,537.99 204.47,541.03"/>
    </edge>
    <edge id=":1865620843_w1" function="walkingarea">
        <lane id=":1865620843_w1_0" index="0" allow="pedestrian" speed="1.00" length="2.42" width="4.00" shape="199.14,537.51 201.69,534.44 202.46,533.54 200.18,531.59 203.58,535.86 201.58,535.83 202.42,533.74 200.76,537.39"/>
    </edge>
    <edge id=":1865620843_w2" function="walkingarea">
        <lane id=":1865620843_w2_0" index="0" allow="pedestrian" speed="1.00" length="9.55" width="4.00" shape="194.41,534.50 196.06,530.86 189.37,544.57 191.68,546.48 194.23,543.40"/>
    </edge>
    <edge id=":1912278054_0" function="internal">
        <lane id=":1912278054_0_0" index="0" disallow="tram rail_urban rail rail_electric pedestrian ship" speed="11.11" length="4.67" shape="217.14,543.60 216.22,542.49 216.07,541.61 216.68,540.96 218.06,540.54"/>
    </edge>
    <edge id=":1912278054_w0" function="walkingarea">
        <lane id=":1912278054_w0_0" index="0" allow="pedestrian" speed="1.00" length="8.40" width="2.00" shape="218.52,539.00 219.09,537.09 216.11,547.05 216.68,545.14"/>
    </edge>
    <edge id=":1921719392_0" function="internal">
        <lane id=":1921719392_0_0" index="0" disallow="tram rail_urban rail rail_electric pedestrian ship" speed="11.11" length="2.95" shape="214.36,526.62 212.50,528.90"/>
    </edge>
    <edge id=":1921719392_1" function="internal">
        <lane id=":1921719392_1_0" index="0" disallow="tram rail_urban rail rail_electric pedestrian ship" speed="11.11" length="12.33" shape="214.36,526.62 212.14,528.72 209.57,530.18 206.65,531.00 203.38,531.19"/>
    </edge>
    <edge id=":1921719392_2" function="internal">
        <lane id=":1921719392_2_0" index="0" disallow="tram rail_urban rail rail_electric pedestrian ship" speed="11.11" length="4.67" shape="214.36,526.62 212.98,527.02 212.11,526.80 211.76,525.98 211.92,524.55"/>
    </edge>
    <edge id=":1921719392_3" function="internal">
        <lane id=":1921719392_3_0" index="0" disallow="tram rail_urban rail rail_electric pedestrian ship" speed="11.11" length="7.88" shape="209.99,526.91 203.38,531.19"/>
    </edge>
    <edge id=":1921719392_4" function="internal">
        <lane id=":1921719392_4_0" index="0" disallow="tram rail_urban rail rail_electric pedestrian ship" speed="11.11" length="3.05" shape="209.99,526.91 211.92,524.55"/>
    </edge>
    <edge id=":1921719392_5" function="internal">
        <lane id=":1921719392_5_0" index="0" disallow="tram rail_urban rail rail_electric pedestrian ship" speed="11.11" length="4.67" shape="209.99,526.91 211.36,526.47 212.24,526.65 212.62,527.46 212.50,528.90"/>
    </edge>
    <edge id=":1921719392_c0" function="crossing" crossingEdges="-324751734#1 324751734#1">
        <lane id=":1921719392_c0_0" index="0" allow="pedestrian" speed="1.00" length="6.40" width="4.00" shape="209.41,525.04 214.29,529.18"/>
    </edge>
    <edge id=":1921719392_c1" function="crossing" crossingEdges="181738145#0">
        <lane id=":1921719392_c1_0" index="0" allow="pedestrian" speed="1.00" length="3.20" width="4.00" shape="205.31,532.87 205.43,529.67"/>
    </edge>
    <edge id=":1921719392_c2" function="crossing" crossingEdges="-324751734#2">
        <lane id=":1921719392_c2_0" index="0" allow="pedestrian" speed="1.00" length="3.20" width="4.00" shape="212.49,526.34 209.98,524.35"/>
    </edge>
    <edge id=":1921719392_c3" function="crossing" crossingEdges="324751734#2">
        <lane id=":1921719392_c3_0" index="0" allow="pedestrian" speed="1.00" length="3.20" width="4.00" shape="214.99,528.33 212.49,526.34"/>
    </edge>
    <edge id=":1921719392_w0" function="walkingarea">
        <lane id=":1921719392_w0_0" index="0" allow="pedestrian" speed="1.00" length="2.08" width="4.00" shape="216.24,526.76 213.75,529.89 216.10,531.76 217.87,529.60 215.58,527.65 213.00,530.71"/>
    </edge>
    <edge id=":1921719392_w1" function="walkingarea">
        <lane id=":1921719392_w1_0" index="0" allow="pedestrian" speed="1.00" length="5.61" width="4.00" shape="208.12,526.56 210.70,523.51 208.42,521.57 203.43,529.59 207.43,529.74"/>
    </edge>
    <edge id=":1921719392_w2" function="walkingarea">
        <lane id=":1921719392_w2_0" index="0" allow="pedestrian" speed="1.00" length="7.13" width="4.00" shape="207.31,532.94 203.32,532.79 204.02,532.82 203.95,534.82 206.39,524.05 208.74,525.92 211.22,522.78"/>
    </edge>
    <edge id=":1921719392_w3" function="walkingarea">
        <lane id=":1921719392_w3_0" index="0" allow="pedestrian" speed="1.00" length="0.10" width="4.00" shape="213.73,524.77 211.24,527.91 211.24,527.91 213.73,524.77"/>
    </edge>
    <edge id=":1921719395_0" function="internal">
        <lane id=":1921719395_0_0" index="0" disallow="tram rail_urban rail rail_electric pedestrian ship" speed="11.11" length="6.93" shape="129.04,480.82 123.82,475.86"/>
        <lane id=":1921719395_0_1" index="1" disallow="tram rail_urban rail rail_electric pedestrian ship" speed="11.11" length="6.93" shape="130.84,478.12 126.02,473.54"/>
    </edge>
    <edge id=":1921719395_2" function="internal">
        <lane id=":1921719395_2_0" index="0" disallow="tram rail_urban rail rail_electric pedestrian ship" speed="11.11" length="6.97" shape="130.29,478.96 128.76,477.65 128.01,476.43 127.34,475.12 126.02,473.54"/>
    </edge>
    <edge id=":1921719395_c0" function="crossing" crossingEdges="176906141#0">
        <lane id=":1921719395_c0_0" index="0" allow="pedestrian" speed="1.00" length="6.42" width="4.00" shape="130.50,475.58 126.49,480.61"/>
    </edge>
    <edge id=":1921719395_w0" function="walkingarea">
        <lane id=":1921719395_w0_0" index="0" allow="pedestrian" speed="1.00" length="5.37" width="4.00" shape="122.71,477.02 120.65,479.20 126.26,484.53 128.33,482.35 128.05,481.85 124.92,479.36"/>
    </edge>
    <edge id=":1921719395_w1" function="walkingarea">
        <lane id=":1921719395_w1_0" index="0" allow="pedestrian" speed="1.00" length="5.78" width="4.00" shape="128.93,474.34 132.06,476.83 128.29,481.96 129.39,480.29"/>
    </edge>
    <edge id=":2108790991_0" function="internal">
        <lane id=":2108790991_0_0" index="0" disallow="tram rail_urban rail rail_electric pedestrian ship" speed="13.89" length="4.67" shape="152.33,543.31 152.27,544.75 151.79,545.51 150.90,545.58 149.59,544.97"/>
    </edge>
    <edge id=":2108790991_w0" function="walkingarea">
        <lane id=":2108790991_w0_0" index="0" allow="pedestrian" speed="1.00" length="8.40" width="2.00" shape="148.23,545.80 146.52,546.84 155.40,541.44 153.69,542.48"/>
    </edge>
    <edge id=":2108790992_0" function="internal">
        <lane id=":2108790992_0_0" index="0" disallow="tram rail_urban rail rail_electric pedestrian ship" speed="13.89" length="4.67" shape="-1.16,313.17 -1.41,311.75 -1.10,310.91 -0.25,310.65 1.16,310.97"/>
    </edge>
    <edge id=":2108790992_w0" function="walkingarea">
        <lane id=":2108790992_w0_0" index="0" allow="pedestrian" speed="1.00" length="8.40" width="2.00" shape="2.32,309.86 3.77,308.48 -3.77,315.66 -2.32,314.28"/>
    </edge>
    <edge id=":3314305186_0" function="internal">
        <lane id=":3314305186_0_0" index="0" disallow="tram rail_urban rail rail_electric pedestrian ship" speed="11.11" length="0.96" shape="226.03,513.59 226.21,513.53 226.33,513.48 226.44,513.42 226.60,513.32"/>
        <lane id=":3314305186_0_1" index="1" disallow="tram rail_urban rail rail_electric pedestrian ship" speed="11.11" length="0.96" shape="226.99,516.64 227.36,516.52 227.60,516.42 227.84,516.30 228.17,516.11"/>
    </edge>
    <edge id=":3314305186_w0" function="walkingarea">
        <lane id=":3314305186_w0_0" index="0" allow="pedestrian" speed="1.00" length="0.10" width="2.00" shape="225.82,511.93 224.83,510.19 224.96,510.15 225.55,512.06"/>
    </edge>
    <edge id=":337270654_0" function="internal">
        <lane id=":337270654_0_0" index="0" disallow="tram rail_urban rail rail_electric pedestrian ship" speed="11.11" length="3.70" shape="173.15,523.75 172.86,522.88 172.75,522.22 172.55,521.63 171.99,520.96"/>
        <lane id=":337270654_0_1" index="1" disallow="tram rail_urban rail rail_electric pedestrian ship" speed="11.11" length="3.70" shape="176.05,522.40 175.59,521.19 175.35,520.31 174.98,519.52 174.15,518.60"/>
    </edge>
    <edge id=":337270654_w0" function="walkingarea">
        <lane id=":337270654_w0_0" index="0" allow="pedestrian" speed="1.00" length="1.82" width="3.00" shape="170.92,522.15 168.89,524.36 169.88,525.26 171.70,524.42"/>
    </edge>
    <edge id=":337272586_w0" function="walkingarea">
        <lane id=":337272586_w0_0" index="0" allow="pedestrian" speed="1.00" length="9.40" width="3.00" shape="343.57,332.86 346.14,334.41 335.52,328.01 338.09,329.56"/>
    </edge>
    <edge id=":337745510_c0" function="crossing" crossingEdges="-181961196 181961196">
        <lane id=":337745510_c0_0" index="0" allow="pedestrian" speed="1.00" length="6.40" width="4.00" shape="146.13,612.08 151.68,615.28"/>
    </edge>
    <edge id=":337745510_w0" function="walkingarea">
        <lane id=":337745510_w0_0" index="0" allow="pedestrian" speed="1.00" length="6.27" width="4.00" shape="147.12,610.32 145.27,609.55 155.07,615.49 152.51,613.92 152.68,613.55 150.68,617.01"/>
    </edge>
    <edge id=":337745510_w1" function="walkingarea">
        <lane id=":337745510_w1_0" index="0" allow="pedestrian" speed="1.00" length="2.31" width="4.00" shape="145.13,613.81 147.13,610.35 147.05,610.58 144.49,609.01"/>
    </edge>
    <edge id=":338535930_0" function="internal">
        <lane id=":338535930_0_0" index="0" disallow="tram rail_urban rail rail_electric pedestrian ship" speed="11.11" length="4.67" shape="282.34,559.77 283.26,560.88 283.41,561.76 282.80,562.41 281.42,562.83"/>
    </edge>
    <edge id=":338535930_w0" function="walkingarea">
        <lane id=":338535930_w0_0" index="0" allow="pedestrian" speed="1.00" length="8.40" width="2.00" shape="280.96,564.37 280.39,566.28 283.37,556.32 282.80,558.23"/>
    </edge>
    <edge id=":3526736114_0" function="internal">
        <lane id=":3526736114_0_0" index="0" disallow="tram rail_urban rail rail_electric pedestrian ship" speed="11.11" length="6.00" shape="222.55,516.97 218.67,521.54"/>
    </edge>
    <edge id=":3526736114_1" function="internal">
        <lane id=":3526736114_1_0" index="0" disallow="tram rail_urban rail rail_electric pedestrian ship" speed="11.11" length="2.34" shape="222.55,516.97 221.17,517.37 220.30,517.15"/>
    </edge>
    <edge id=":3526736114_2" function="internal">
        <lane id=":3526736114_2_0" index="0" disallow="tram rail_urban rail rail_electric pedestrian ship" speed="11.11" length="5.19" shape="222.55,516.97 222.36,517.49 223.02,517.62 224.52,517.35 226.87,516.68"/>
    </edge>
    <edge id=":3526736114_9" function="internal">
        <lane id=":3526736114_9_0" index="0" disallow="tram rail_urban rail rail_electric pedestrian ship" speed="11.11" length="2.34" shape="220.30,517.15 219.94,516.33 220.11,514.90"/>
    </edge>
    <edge id=":3526736114_3" function="internal">
        <lane id=":3526736114_3_0" index="0" disallow="tram rail_urban rail rail_electric pedestrian ship" speed="11.11" length="5.41" shape="215.27,516.96 216.85,516.59 217.99,516.39 218.99,515.96 220.11,514.90"/>
    </edge>
    <edge id=":3526736114_4" function="internal">
        <lane id=":3526736114_4_0" index="0" disallow="tram rail_urban rail rail_electric pedestrian ship" speed="11.11" length="11.15" shape="215.27,516.96 225.91,513.62"/>
    </edge>
    <edge id=":3526736114_5" function="internal">
        <lane id=":3526736114_5_0" index="0" disallow="tram rail_urban rail rail_electric pedestrian ship" speed="11.11" length="5.44" shape="216.23,520.01 218.29,519.51 219.39,519.60 219.51,520.27 218.67,521.54"/>
    </edge>
    <edge id=":3526736114_6" function="internal">
        <lane id=":3526736114_6_0" index="0" disallow="tram rail_urban rail rail_electric pedestrian ship" speed="11.11" length="6.00" shape="216.23,519.47 220.11,514.90"/>
    </edge>
    <edge id=":3526736114_7" function="internal">
        <lane id=":3526736114_7_0" index="0" disallow="tram rail_urban rail rail_electric pedestrian ship" speed="11.11" length="11.42" shape="216.23,519.47 218.66,517.50 220.92,517.12 223.49,517.22 226.87,516.68"/>
    </edge>
    <edge id=":3526736114_8" function="internal">
        <lane id=":3526736114_8_0" index="0" disallow="tram rail_urban rail rail_electric pedestrian ship" speed="11.11" length="2.34" shape="216.23,519.47 217.62,519.08 218.48,519.29"/>
    </edge>
    <edge id=":3526736114_10" function="internal">
        <lane id=":3526736114_10_0" index="0" disallow="tram rail_urban rail rail_electric pedestrian ship" speed="11.11" length="2.34" shape="218.48,519.29 218.84,520.11 218.67,521.54"/>
    </edge>
    <edge id=":3526736114_c1" function="crossing" crossingEdges="-324751734#0 182175776">
        <lane id=":3526736114_c1_0" index="0" allow="pedestrian" speed="1.00" length="6.40" width="4.00" shape="217.59,515.39 222.48,519.53"/>
    </edge>
    <edge id=":3526736114_c2" function="crossing" crossingEdges="175999143#0">
        <lane id=":3526736114_c2_0" index="0" allow="pedestrian" speed="1.00" length="6.40" width="4.00" shape="218.62,520.94 216.70,514.83"/>
    </edge>
    <edge id=":3526736114_c3" function="crossing" crossingEdges="-324751734#1">
        <lane id=":3526736114_c3_0" index="0" allow="pedestrian" speed="1.00" length="3.20" width="4.00" shape="218.74,518.98 216.30,516.91"/>
    </edge>
    <edge id=":3526736114_c4" function="crossing" crossingEdges="324751734#1">
        <lane id=":3526736114_c4_0" index="0" allow="pedestrian" speed="1.00" length="3.20" width="4.00" shape="221.18,521.05 218.74,518.98"/>
    </edge>
    <edge id=":3526736114_w0" function="walkingarea">
        <lane id=":3526736114_w0_0" index="0" allow="pedestrian" speed="1.00" length="2.24" width="4.00" shape="221.62,513.29 225.43,512.10 224.83,510.19"/>
    </edge>
    <edge id=":3526736114_w1" function="walkingarea">
        <lane id=":3526736114_w1_0" index="0" allow="pedestrian" speed="1.00" length="2.47" width="4.00" shape="216.30,516.92 218.89,513.87 216.60,511.93 214.20,513.52 214.79,515.43 218.61,514.23"/>
    </edge>
    <edge id=":3526736114_w2" function="walkingarea">
        <lane id=":3526736114_w2_0" index="0" allow="pedestrian" speed="1.00" length="4.34" width="4.00" shape="220.53,520.34 216.71,521.54 212.72,516.50 215.01,518.44 217.60,515.39"/>
    </edge>
    <edge id=":3526736114_w3" function="walkingarea">
        <lane id=":3526736114_w3_0" index="0" allow="pedestrian" speed="1.00" length="3.59" width="4.00" shape="222.48,519.53 219.89,522.58 222.18,524.52 226.06,519.94 223.77,518.00 221.19,521.05"/>
    </edge>
    <edge id=":3526736114_w4" function="walkingarea">
        <lane id=":3526736114_w4_0" index="0" allow="pedestrian" speed="1.00" length="0.10" width="4.00" shape="220.04,517.46 217.45,520.51 217.45,520.51 220.04,517.46"/>
    </edge>
    <edge id=":cluster_1865620626_3314305185_0" function="internal">
        <lane id=":cluster_1865620626_3314305185_0_0" index="0" disallow="tram rail_urban rail rail_electric pedestrian ship" speed="11.11" length="4.34" shape="203.18,531.19 201.81,531.28 200.83,531.67 200.23,532.35 200.02,533.34"/>
    </edge>
    <edge id=":cluster_1865620626_3314305185_1" function="internal">
        <lane id=":cluster_1865620626_3314305185_1_0" index="0" disallow="tram rail_urban rail rail_electric pedestrian ship" speed="11.11" length="41.00" shape="203.18,531.19 194.60,528.67 184.92,523.00 175.71,516.15 168.55,510.10"/>
    </edge>
    <edge id=":cluster_1865620626_3314305185_2" function="internal">
        <lane id=":cluster_1865620626_3314305185_2_0" index="0" disallow="tram rail_urban rail rail_electric pedestrian ship" speed="11.11" length="47.84" shape="203.18,531.19 165.93,501.16"/>
    </edge>
    <edge id=":cluster_1865620626_3314305185_3" function="internal">
        <lane id=":cluster_1865620626_3314305185_3_0" index="0" disallow="tram rail_urban rail rail_electric pedestrian ship" speed="11.11" length="2.23" shape="166.00,497.31 166.47,497.76 166.85,498.01 167.26,498.22 167.81,498.58"/>
    </edge>
    <edge id=":cluster_1865620626_3314305185_4" function="internal">
        <lane id=":cluster_1865620626_3314305185_4_0" index="0" disallow="tram rail_urban rail rail_electric pedestrian ship" speed="11.11" length="50.74" shape="166.00,497.31 175.51,505.59 186.80,513.93 196.20,522.97 200.02,533.34"/>
    </edge>
    <edge id=":cluster_1865620626_3314305185_5" function="internal">
        <lane id=":cluster_1865620626_3314305185_5_0" index="0" disallow="tram rail_urban rail rail_electric pedestrian ship" speed="11.11" length="46.92" shape="163.59,499.41 172.99,506.93 184.02,513.57 193.16,520.91 196.87,530.50"/>
    </edge>
    <edge id=":cluster_1865620626_3314305185_6" function="internal">
        <lane id=":cluster_1865620626_3314305185_6_0" index="0" disallow="tram rail_urban rail rail_electric pedestrian ship" speed="11.11" length="15.61" shape="163.59,499.41 166.87,503.77 169.52,508.24 170.45,510.96 168.55,510.10"/>
    </edge>
    <edge id=":cluster_1865620626_3314305185_c0" function="crossing" crossingEdges="175999143#0">
        <lane id=":cluster_1865620626_3314305185_c0_0" index="0" allow="pedestrian" speed="1.00" length="6.40" width="4.00" shape="167.15,496.11 163.37,501.27"/>
    </edge>
    <edge id=":cluster_1865620626_3314305185_c1" function="crossing" crossingEdges="175999132#2">
        <lane id=":cluster_1865620626_3314305185_c1_0" index="0" allow="pedestrian" speed="1.00" length="6.98" width="4.00" shape="201.65,531.36 195.30,528.48"/>
    </edge>
    <edge id=":cluster_1865620626_3314305185_c2" function="crossing" crossingEdges="181738145#0">
        <lane id=":cluster_1865620626_3314305185_c2_0" index="0" allow="pedestrian" speed="1.00" length="3.20" width="4.00" shape="201.24,529.51 201.12,532.71"/>
    </edge>
    <edge id=":cluster_1865620626_3314305185_w0" function="walkingarea">
        <lane id=":cluster_1865620626_3314305185_w0_0" index="0" allow="pedestrian" speed="1.00" length="1.62" width="4.00" shape="165.53,494.93 168.76,497.29 169.94,495.68 168.71,494.94 167.21,496.25"/>
    </edge>
    <edge id=":cluster_1865620626_3314305185_w1" function="walkingarea">
        <lane id=":cluster_1865620626_3314305185_w1_0" index="0" allow="pedestrian" speed="1.00" length="31.11" width="4.00" shape="168.84,512.50 167.51,513.99 194.47,530.30 196.13,526.66"/>
    </edge>
    <edge id=":cluster_1865620626_3314305185_w2" function="walkingarea">
        <lane id=":cluster_1865620626_3314305185_w2_0" index="0" allow="pedestrian" speed="1.00" length="2.90" width="4.00" shape="202.48,529.54 200.83,533.19 201.59,535.63 203.59,535.66 203.75,534.81 203.82,532.81 203.12,532.78 199.12,532.64"/>
    </edge>
    <edge id=":cluster_1865620626_3314305185_w3" function="walkingarea">
        <lane id=":cluster_1865620626_3314305185_w3_0" index="0" allow="pedestrian" speed="1.00" length="47.24" width="4.00" shape="161.75,500.09 164.98,502.45 203.23,529.59 199.24,529.44"/>
    </edge>

    <edge id="-180762426" from="338535930" to="1912278054" name="Calle Jovellanos" priority="4" type="highway.residential">
        <lane id="-180762426_0" index="0" allow="pedestrian" speed="11.11" length="67.09" width="2.00" shape="280.68,565.32 216.40,546.09"/>
        <lane id="-180762426_1" index="1" disallow="tram rail_urban rail rail_electric pedestrian ship" speed="11.11" length="67.09" shape="281.42,562.83 217.14,543.60"/>
    </edge>
    <edge id="-181961196" from="337745510" to="1865620843" name="Paseo de Chil" priority="6" type="highway.tertiary" shape="149.78,612.25 162.84,590.94 171.78,576.93 192.51,550.50 195.11,547.36">
        <lane id="-181961196_0" index="0" allow="pedestrian" speed="11.11" length="78.10" width="3.00" shape="145.77,609.79 158.85,588.45 167.94,574.21 188.85,547.55 190.53,545.52"/>
        <lane id="-181961196_1" index="1" disallow="tram rail_urban rail rail_electric pedestrian ship" speed="11.11" length="78.10" shape="148.54,611.21 161.48,590.09 170.47,576.00 191.26,549.50 192.92,547.50"/>
    </edge>
    <edge id="-200916232" from="2108790992" to="2108790991" priority="4" type="highway.residential" shape="0.00,312.07 5.35,317.69 8.18,323.57 45.19,433.93 51.83,446.75 61.36,457.99 73.51,470.52 139.06,530.03 145.40,534.99 150.96,544.14">
        <lane id="-200916232_0" index="0" allow="pedestrian" speed="13.89" length="285.24" width="2.00" shape="3.04,309.17 8.85,315.27 12.08,321.99 49.07,432.29 55.34,444.40 64.47,455.17 76.43,467.50 141.77,526.82 148.59,532.15 154.55,541.96"/>
        <lane id="-200916232_1" index="1" disallow="tram rail_urban rail rail_electric pedestrian ship" speed="13.89" length="285.24" shape="1.16,310.97 6.68,316.77 9.67,322.97 46.67,433.30 53.17,445.85 62.55,456.91 74.62,469.37 140.09,528.81 146.62,533.91 152.33,543.31"/>
    </edge>
    <edge id="-324751734#0" from="3526736114" to="1553017429" name="Paseo de Chil" priority="6" type="highway.tertiary" shape="220.41,517.02 224.03,512.74 233.28,499.68">
        <lane id="-324751734#0_0" index="0" allow="pedestrian" speed="11.11" length="2.55" width="3.00" shape="217.74,512.90 219.30,511.06"/>
        <lane id="-324751734#0_1" index="1" disallow="tram rail_urban rail rail_electric pedestrian ship" speed="11.11" length="2.55" shape="220.11,514.90 221.84,512.85"/>
    </edge>
    <edge id="-324751734#1" from="1921719392" to="3526736114" name="Paseo de Chil" priority="6" type="highway.tertiary">
        <lane id="-324751734#1_0" index="0" allow="pedestrian" speed="11.11" length="6.66" width="3.00" shape="209.56,522.54 213.87,517.47"/>