<?xml version="1.0" encoding="UTF-8"?>

<!-- generated on Mon Nov 28 14:38:28 2016 by SUMO netconvert Version dev-SVN-r22106
<?xml version="1.0" encoding="UTF-8"?>

<configuration xmlns:xsi="http://www.w3.org/2001/XMLSchema-instance" xsi:noNamespaceSchemaLocation="http://sumo.dlr.de/xsd/netconvertConfiguration.xsd">

    <input>
        <sumo-net-file value="input_net.net.xml"/>
    </input>

    <output>
        <output.street-names value="true"/>
    </output>

    <processing>
        <no-turnarounds value="true"/>
        <offset.disable-normalization value="true"/>
        <lefthand value="false"/>
        <junctions.corner-detail value="0"/>
    </processing>

    <report>
        <xml-validation value="never"/>
    </report>

</configuration>
-->

<net version="0.27" xmlns:xsi="http://www.w3.org/2001/XMLSchema-instance" xsi:noNamespaceSchemaLocation="http://sumo.dlr.de/xsd/net_file.xsd">

    <location netOffset="-457072.80,-3110686.91" convBoundary="0.00,0.00,340.83,612.25" origBoundary="-15.437094,28.121036,-15.433625,28.126563" projParameter="+proj=utm +zone=28 +ellps=WGS84 +datum=WGS84 +units=m +no_defs"/>

    <edge id=":1553017429_0" function="internal">
        <lane id=":1553017429_0_0" index="0" disallow="tram rail_urban rail rail_electric pedestrian ship" speed="11.11" length="13.05" shape="231.60,504.33 224.21,515.08"/>
    </edge>
    <edge id=":1553017429_1" function="internal">
        <lane id=":1553017429_1_0" index="0" disallow="tram rail_urban rail rail_electric pedestrian ship" speed="11.11" length="2.41" shape="231.60,504.33 230.18,504.76 229.28,504.56"/>
    </edge>
    <edge id=":1553017429_5" function="internal">
        <lane id=":1553017429_5_0" index="0" speed="11.11" length="2.41" shape="229.28,504.56 228.91,503.71 229.05,502.23"/>
    </edge>
    <edge id=":1553017429_2" function="internal">
        <lane id=":1553017429_2_0" index="0" disallow="tram rail_urban rail rail_electric pedestrian ship" speed="11.11" length="14.33" shape="216.50,508.53 220.51,507.04 223.48,506.29 226.10,505.09 229.05,502.23"/>
    </edge>
    <edge id=":1553017429_3" function="internal">
        <lane id=":1553017429_3_0" index="0" disallow="tram rail_urban rail rail_electric pedestrian ship" speed="11.11" length="13.29" shape="221.51,513.16 223.91,510.04 225.31,507.72 226.70,505.40 229.05,502.23"/>
    </edge>
    <edge id=":1553017429_4" function="internal">
        <lane id=":1553017429_4_0" index="0" disallow="tram rail_urban rail rail_electric pedestrian ship" speed="11.11" length="2.42" shape="221.51,513.16 222.91,512.63 223.82,512.77"/>
    </edge>
    <edge id=":1553017429_6" function="internal">
        <lane id=":1553017429_6_0" index="0" speed="11.11" length="2.42" shape="223.82,512.77 224.26,513.58 224.21,515.08"/>
    </edge>
    <edge id=":1553017429_c0" function="crossing" crossingEdges="-324751736 324751736">
        <lane id=":1553017429_c0_0" index="0" allow="pedestrian" speed="1.00" length="6.50" width="4.00" shape="226.55,502.77 231.57,506.89"/>
    </edge>
    <edge id=":1553017429_c1" function="crossing" crossingEdges="175999152">
        <lane id=":1553017429_c1_0" index="0" allow="pedestrian" speed="1.00" length="3.42" width="4.00" shape="219.01,509.16 217.53,506.08"/>
    </edge>
    <edge id=":1553017429_c2" function="crossing" crossingEdges="182175776 -324751734#0">
        <lane id=":1553017429_c2_0" index="0" allow="pedestrian" speed="1.00" length="6.51" width="4.00" shape="226.73,514.58 221.58,510.60"/>
    </edge>
    <edge id=":1553017429_w0" function="walkingarea">
        <lane id=":1553017429_w0_0" index="0" allow="pedestrian" speed="1.00" length="8.16" width="4.00" shape="227.95,513.00 225.50,516.16 225.69,515.96 227.98,517.90 235.24,507.31 232.92,505.40 230.31,508.43"/>
    </edge>
    <edge id=":1553017429_w1" function="walkingarea">
        <lane id=":1553017429_w1_0" index="0" allow="pedestrian" speed="1.00" length="8.34" width="4.00" shape="225.28,504.31 227.74,501.16 225.42,499.26 214.85,505.22 215.51,507.11 215.73,506.94 219.34,505.21"/>
    </edge>
    <edge id=":1553017429_w2" function="walkingarea">
        <lane id=":1553017429_w2_0" index="0" allow="pedestrian" speed="1.00" length="2.63" width="4.00" shape="220.81,508.29 217.21,510.02 217.75,510.34 220.04,512.27 220.36,512.18 222.81,509.02"/>
    </edge>
    <edge id=":1865620718_0" function="internal">
        <lane id=":1865620718_0_0" index="0" disallow="tram rail_urban rail rail_electric pedestrian ship" speed="11.11" length="2.88" shape="156.16,486.22 156.89,489.01"/>
    </edge>
    <edge id=":1865620718_1" function="internal">
        <lane id=":1865620718_1_0" index="0" disallow="tram rail_urban rail rail_electric pedestrian ship" speed="11.11" length="2.42" shape="156.16,486.22 156.71,486.75 157.08,487.12 157.44,487.51 157.94,488.08"/>
        <lane id=":1865620718_1_1" index="1" disallow="tram rail_urban rail rail_electric pedestrian ship" speed="11.11" length="2.42" shape="153.89,488.62 154.38,489.08 154.70,489.41 155.01,489.75 155.46,490.25"/>
    </edge>
    <edge id=":1865620718_c0" function="crossing" crossingEdges="175999152">
        <lane id=":1865620718_c0_0" index="0" allow="pedestrian" speed="1.00" length="3.20" width="4.00" shape="156.26,486.52 154.33,489.07"/>
    </edge>
    <edge id=":1865620718_w0" function="walkingarea">
        <lane id=":1865620718_w0_0" index="0" allow="pedestrian" speed="1.00" length="6.29" width="4.00" shape="159.22,486.96 160.73,485.65 155.92,490.28 152.73,487.86"/>
    </edge>
    <edge id=":1865620718_w1" function="walkingarea">
        <lane id=":1865620718_w1_0" index="0" allow="pedestrian" speed="1.00" length="3.16" width="4.00" shape="154.67,485.31 157.86,487.73 158.36,487.99 159.57,486.40 159.39,482.81 157.32,484.99"/>
    </edge>
    <edge id=":1865620843_0" function="internal">
        <lane id=":1865620843_0_0" index="0" disallow="tram rail_urban rail rail_electric pedestrian ship" speed="11.11" length="3.00" shape="197.34,547.26 195.42,549.57"/>
    </edge>
    <edge id=":1865620843_1" function="internal">
        <lane id=":1865620843_1_0" index="0" disallow="tram rail_urban rail rail_electric pedestrian ship" speed="11.11" length="3.02" shape="197.09,547.06 196.67,547.85 196.35,548.38 195.99,548.87 195.42,549.57"/>
    </edge>
    <edge id=":1865620843_2" function="internal">
        <lane id=":1865620843_2_0" index="0" disallow="tram rail_urban rail rail_electric pedestrian ship" speed="11.11" length="3.00" shape="192.88,547.46 194.80,545.15"/>
    </edge>
    <edge id=":1865620843_c0" function="crossing" crossingEdges="324751734#2">
        <lane id=":1865620843_c0_0" index="0" allow="pedestrian" speed="1.00" length="3.20" width="4.00" shape="194.83,547.78 197.29,549.82"/>
    </edge>
    <edge id=":1865620843_c1" function="crossing" crossingEdges="175999132#2">
        <lane id=":1865620843_c1_0" index="0" allow="pedestrian" speed="1.00" length="6.53" width="4.00" shape="192.15,545.91 197.55,549.58"/>
    </edge>
    <edge id=":1865620843_c2" function="crossing" crossingEdges="-324751734#2">
        <lane id=":1865620843_c2_0" index="0" allow="pedestrian" speed="1.00" length="3.20" width="4.00" shape="192.29,545.67 194.75,547.71"/>
    </edge>
    <edge id=":1865620843_c3" function="crossing" crossingEdges="181961196 -181961196">
        <lane id=":1865620843_c3_0" index="0" allow="pedestrian" speed="1.00" length="6.50" width="4.00" shape="197.93,549.05 192.93,544.90"/>
    </edge>
    <edge id=":1865620843_w0" function="walkingarea">
        <lane id=":1865620843_w0_0" index="0" allow="pedestrian" speed="1.00" length="2.15" width="4.00" shape="199.21,547.51 196.73,550.65 199.04,552.57 200.95,550.27 198.64,548.35 198.57,548.28 196.01,551.36"/>
    </edge>
    <edge id=":1865620843_w1" function="walkingarea">
        <lane id=":1865620843_w1_0" index="0" allow="pedestrian" speed="1.00" length="3.20" width="4.00" shape="193.55,549.31 196.11,546.24 200.09,549.30 198.33,548.34 198.68,547.93 196.43,551.23"/>
    </edge>
    <edge id=":1865620843_w2" function="walkingarea">
        <lane id=":1865620843_w2_0" index="0" allow="pedestrian" speed="1.00" length="2.15" width="4.00" shape="191.01,547.20 193.49,544.06 191.19,542.15 189.26,544.47 191.57,546.38 194.20,543.36"/>
    </edge>
    <edge id=":1865620843_w3" function="walkingarea">
        <lane id=":1865620843_w3_0" index="0" allow="pedestrian" speed="1.00" length="3.17" width="4.00" shape="193.47,549.25 196.03,546.17 193.27,544.25 191.02,547.56"/>
    </edge>
    <edge id=":1912278054_0" function="internal">
        <lane id=":1912278054_0_0" index="0" disallow="tram rail_urban rail rail_electric pedestrian ship" speed="11.11" length="4.82" shape="217.13,543.65 216.18,542.51 216.02,541.60 216.65,540.92 218.07,540.49"/>
    </edge>
    <edge id=":1912278054_w0" function="walkingarea">
        <lane id=":1912278054_w0_0" index="0" allow="pedestrian" speed="1.00" length="8.70" width="2.00" shape="218.56,538.86 219.13,536.94 216.07,547.20 216.64,545.28"/>
    </edge>
    <edge id=":1921719392_0" function="internal">
        <lane id=":1921719392_0_0" index="0" disallow="tram rail_urban rail rail_electric pedestrian ship" speed="11.11" length="6.04" shape="212.49,528.90 208.75,533.65"/>
    </edge>
    <edge id=":1921719392_1" function="internal">
        <lane id=":1921719392_1_0" index="0" disallow="tram rail_urban rail rail_electric pedestrian ship" speed="11.11" length="12.14" shape="212.49,528.90 210.97,529.97 208.51,530.69 205.13,531.05 200.81,531.05"/>
    </edge>
    <edge id=":1921719392_2" function="internal">
        <lane id=":1921719392_2_0" index="0" disallow="tram rail_urban rail rail_electric pedestrian ship" speed="11.11" length="4.82" shape="212.49,528.90 211.08,529.36 210.18,529.17 209.78,528.33 209.91,526.85"/>
    </edge>
    <edge id=":1921719392_3" function="internal">
        <lane id=":1921719392_3_0" index="0" disallow="tram rail_urban rail rail_electric pedestrian ship" speed="11.11" length="5.58" shape="206.24,531.51 205.81,531.12 204.14,531.01 202.17,531.03 200.81,531.05"/>
    </edge>
    <edge id=":1921719392_4" function="internal">
        <lane id=":1921719392_4_0" index="0" disallow="tram rail_urban rail rail_electric pedestrian ship" speed="11.11" length="5.93" shape="206.24,531.51 209.91,526.85"/>
    </edge>
    <edge id=":1921719392_5" function="internal">
        <lane id=":1921719392_5_0" index="0" disallow="tram rail_urban rail rail_electric pedestrian ship" speed="11.11" length="4.82" shape="206.24,531.51 207.67,531.10 208.56,531.32 208.93,532.17 208.75,533.65"/>
    </edge>
    <edge id=":1921719392_c0" function="crossing" crossingEdges="-324751734#1 324751734#1">
        <lane id=":1921719392_c0_0" index="0" allow="pedestrian" speed="1.00" length="6.50" width="4.00" shape="207.39,527.34 212.42,531.46"/>
    </edge>
    <edge id=":1921719392_c1" function="crossing" crossingEdges="181738145#0">
        <lane id=":1921719392_c1_0" index="0" allow="pedestrian" speed="1.00" length="3.20" width="4.00" shape="202.75,532.72 202.87,529.52"/>
    </edge>
    <edge id=":1921719392_c2" function="crossing" crossingEdges="-324751734#2">
        <lane id=":1921719392_c2_0" index="0" allow="pedestrian" speed="1.00" length="3.20" width="4.00" shape="208.75,531.03 206.33,528.95"/>
    </edge>
    <edge id=":1921719392_c3" function="crossing" crossingEdges="324751734#2">
        <lane id=":1921719392_c3_0" index="0" allow="pedestrian" speed="1.00" length="3.20" width="4.00" shape="211.27,533.17 208.84,531.09"/>
    </edge>
    <edge id=":1921719392_w0" function="walkingarea">
        <lane id=":1921719392_w0_0" index="0" allow="pedestrian" speed="1.00" length="3.70" width="4.00" shape="212.57,531.65 209.97,534.69 210.06,534.74 212.33,536.69 216.15,531.86 213.86,529.92 213.69,529.91 211.15,533.01"/>
    </edge>
    <edge id=":1921719392_w1" function="walkingarea">
        <lane id=":1921719392_w1_0" index="0" allow="pedestrian" speed="1.00" length="4.67" width="4.00" shape="206.13,528.89 208.66,525.79 208.54,525.83 206.25,523.89 200.87,529.45 204.87,529.60"/>
    </edge>
    <edge id=":1921719392_w2" function="walkingarea">
        <lane id=":1921719392_w2_0" index="0" allow="pedestrian" speed="1.00" length="3.65" width="4.00" shape="204.75,532.80 200.75,532.65 202.18,532.80 202.11,534.80 200.25,531.27 202.53,533.22 205.02,530.47 207.63,527.43"/>
    </edge>
    <edge id=":1921719392_w3" function="walkingarea">
        <lane id=":1921719392_w3_0" index="0" allow="pedestrian" speed="1.00" length="0.10" width="4.00" shape="210.14,529.57 207.54,532.61 207.45,532.55 210.06,529.52"/>
    </edge>
    <edge id=":1921719395_0" function="internal">
        <lane id=":1921719395_0_0" index="0" disallow="tram rail_urban rail rail_electric pedestrian ship" speed="11.11" length="3.00" shape="127.37,479.24 125.19,477.17"/>
        <lane id=":1921719395_0_1" index="1" disallow="tram rail_urban rail rail_electric pedestrian ship" speed="11.11" length="3.00" shape="129.64,476.84 127.47,474.78"/>
    </edge>
    <edge id=":1921719395_2" function="internal">
        <lane id=":1921719395_2_0" index="0" disallow="tram rail_urban rail rail_electric pedestrian ship" speed="11.11" length="3.44" shape="128.69,477.85 128.08,477.14 128.01,476.40 127.97,475.61 127.47,474.78"/>
    </edge>
    <edge id=":1921719395_c0" function="crossing" crossingEdges="176906141#0">
        <lane id=":1921719395_c0_0" index="0" allow="pedestrian" speed="1.00" length="6.50" width="4.00" shape="129.29,474.31 124.82,479.02"/>
    </edge>
    <edge id=":1921719395_w0" function="walkingarea">
        <lane id=":1921719395_w0_0" index="0" allow="pedestrian" speed="1.00" length="2.48" width="4.00" shape="124.02,478.40 121.96,480.58 124.13,482.64 126.20,480.47 126.27,480.40 123.37,477.64"/>
    </edge>
    <edge id=":1921719395_w1" function="walkingarea">
        <lane id=":1921719395_w1_0" index="0" allow="pedestrian" speed="1.00" length="6.07" width="4.00" shape="127.84,472.93 130.74,475.68 126.25,480.67 127.35,479.00"/>
    </edge>
    <edge id=":2108790991_0" function="internal">
        <lane id=":2108790991_0_0" index="0" disallow="tram rail_urban rail rail_electric pedestrian ship" speed="13.89" length="4.82" shape="152.37,543.28 152.31,544.77 151.82,545.55 150.90,545.63 149.55,545.00"/>
    </edge>
    <edge id=":2108790991_w0" function="walkingarea">
        <lane id=":2108790991_w0_0" index="0" allow="pedestrian" speed="1.00" length="8.70" width="2.00" shape="148.10,545.88 146.39,546.92 155.53,541.36 153.82,542.40"/>
    </edge>
    <edge id=":2108790992_0" function="internal">
        <lane id=":2108790992_0_0" index="0" disallow="tram rail_urban rail rail_electric pedestrian ship" speed="13.89" length="4.82" shape="-1.20,313.21 -1.45,311.74 -1.14,310.87 -0.26,310.60 1.20,310.93"/>
    </edge>
    <edge id=":2108790992_w0" function="walkingarea">
        <lane id=":2108790992_w0_0" index="0" allow="pedestrian" speed="1.00" length="8.70" width="2.00" shape="2.43,309.76 3.87,308.38 -3.87,315.76 -2.43,314.38"/>
    </edge>
    <edge id=":3314305186_0" function="internal">
        <lane id=":3314305186_0_0" index="0" disallow="tram rail_urban rail rail_electric pedestrian ship" speed="11.11" length="0.79" shape="226.22,513.53 226.34,513.48 226.42,513.44 226.50,513.39 226.61,513.32"/>
        <lane id=":3314305186_0_1" index="1" disallow="tram rail_urban rail rail_electric pedestrian ship" speed="11.11" length="0.79" shape="227.20,516.68 227.52,516.57 227.74,516.48 227.94,516.36 228.23,516.19"/>
    </edge>
    <edge id=":3314305186_w0" function="walkingarea">
        <lane id=":3314305186_w0_0" index="0" allow="pedestrian" speed="1.00" length="0.13" width="2.00" shape="225.78,511.84 224.79,510.10 225.11,510.00 225.71,511.90"/>
    </edge>
    <edge id=":337270654_0" function="internal">
        <lane id=":337270654_0_0" index="0" disallow="tram rail_urban rail rail_electric pedestrian ship" speed="11.11" length="2.52" shape="173.16,523.77 172.97,521.85"/>
        <lane id=":337270654_0_1" index="1" disallow="tram rail_urban rail rail_electric pedestrian ship" speed="11.11" length="2.52" shape="176.15,522.37 175.19,519.41"/>
    </edge>
    <edge id=":337270654_w0" function="walkingarea">
        <lane id=":337270654_w0_0" index="0" allow="pedestrian" speed="1.00" length="0.69" width="3.00" shape="171.82,523.11 169.80,525.32 169.80,525.32 171.61,524.48"/>
    </edge>
    <edge id=":337272586_w0" function="walkingarea">
        <lane id=":337272586_w0_0" index="0" allow="pedestrian" speed="1.00" length="9.70" width="3.00" shape="343.70,332.94 346.27,334.48 335.39,327.94 337.96,329.48"/>
    </edge>
    <edge id=":337745510_c0" function="crossing" crossingEdges="-181961196 181961196">
        <lane id=":337745510_c0_0" index="0" allow="pedestrian" speed="1.00" length="6.50" width="4.00" shape="146.09,612.05 151.73,615.29"/>
    </edge>
    <edge id=":337745510_w0" function="walkingarea">
        <lane id=":337745510_w0_0" index="0" allow="pedestrian" speed="1.00" length="6.42" width="4.00" shape="147.03,610.26 145.19,609.49 155.19,615.57 152.64,614.00 152.73,613.56 150.73,617.03"/>
    </edge>
    <edge id=":337745510_w1" function="walkingarea">
        <lane id=":337745510_w1_0" index="0" allow="pedestrian" speed="1.00" length="2.37" width="4.00" shape="145.09,613.78 147.09,610.31 146.92,610.50 144.37,608.93"/>
    </edge>
    <edge id=":338535930_0" function="internal">
        <lane id=":338535930_0_0" index="0" disallow="tram rail_urban rail rail_electric pedestrian ship" speed="11.11" length="4.82" shape="282.35,559.72 283.30,560.86 283.46,561.77 282.83,562.45 281.41,562.88"/>
    </edge>
    <edge id=":338535930_w0" function="walkingarea">
        <lane id=":338535930_w0_0" index="0" allow="pedestrian" speed="1.00" length="8.70" width="2.00" shape="280.92,564.51 280.35,566.43 283.41,556.17 282.84,558.09"/>
    </edge>
    <edge id=":3526736114_0" function="internal">
        <lane id=":3526736114_0_0" index="0" disallow="tram rail_urban rail rail_electric pedestrian ship" speed="11.11" length="0.99" shape="223.19,516.28 222.56,517.04"/>
    </edge>
    <edge id=":3526736114_1" function="internal">
        <lane id=":3526736114_1_0" index="0" disallow="tram rail_urban rail rail_electric pedestrian ship" speed="11.11" length="2.41" shape="223.19,516.28 221.77,516.69 220.87,516.47"/>
    </edge>
    <edge id=":3526736114_2" function="internal">
        <lane id=":3526736114_2_0" index="0" disallow="tram rail_urban rail rail_electric pedestrian ship" speed="11.11" length="5.50" shape="223.19,516.28 222.72,517.15 223.20,517.52 224.63,517.38 227.01,516.74"/>
    </edge>
    <edge id=":3526736114_9" function="internal">
        <lane id=":3526736114_9_0" index="0" speed="11.11" length="2.41" shape="220.87,516.47 220.51,515.62 220.68,514.15"/>
    </edge>
    <edge id=":3526736114_3" function="internal">
        <lane id=":3526736114_3_0" index="0" disallow="tram rail_urban rail rail_electric pedestrian ship" speed="11.11" length="6.37" shape="215.16,516.99 216.99,516.49 218.28,516.11 219.39,515.46 220.68,514.15"/>
    </edge>
    <edge id=":3526736114_4" function="internal">
        <lane id=":3526736114_4_0" index="0" disallow="tram rail_urban rail rail_electric pedestrian ship" speed="11.11" length="11.39" shape="215.16,516.99 226.03,513.59"/>
    </edge>
    <edge id=":3526736114_5" function="internal">
        <lane id=":3526736114_5_0" index="0" disallow="tram rail_urban rail rail_electric pedestrian ship" speed="11.11" length="7.19" shape="216.14,520.14 218.48,519.34 220.32,518.56 221.68,517.79 222.56,517.04"/>
    </edge>
    <edge id=":3526736114_6" function="internal">
        <lane id=":3526736114_6_0" index="0" disallow="tram rail_urban rail rail_electric pedestrian ship" speed="11.11" length="7.24" shape="216.00,519.67 220.68,514.15"/>
    </edge>
    <edge id=":3526736114_7" function="internal">
        <lane id=":3526736114_7_0" index="0" disallow="tram rail_urban rail rail_electric pedestrian ship" speed="11.11" length="11.83" shape="216.00,519.67 218.51,517.62 220.85,517.21 223.52,517.30 227.01,516.74"/>
    </edge>
    <edge id=":3526736114_8" function="internal">
        <lane id=":3526736114_8_0" index="0" disallow="tram rail_urban rail rail_electric pedestrian ship" speed="11.11" length="5.16" shape="216.00,519.67 216.65,516.55 217.96,515.07"/>
    </edge>
    <edge id=":3526736114_10" function="internal">
        <lane id=":3526736114_10_0" index="0" speed="11.11" length="5.16" shape="217.96,515.07 219.93,515.24 222.56,517.04"/>
    </edge>
    <edge id=":3526736114_c1" function="crossing" crossingEdges="-324751734#0 182175776">
        <lane id=":3526736114_c1_0" index="0" allow="pedestrian" speed="1.00" length="6.50" width="4.00" shape="218.17,514.64 223.13,518.84"/>
    </edge>
    <edge id=":3526736114_c2" function="crossing" crossingEdges="175999143#0">
        <lane id=":3526736114_c2_0" index="0" allow="pedestrian" speed="1.00" length="6.50" width="4.00" shape="218.53,521.07 216.59,514.87"/>
    </edge>
    <edge id=":3526736114_c3" function="crossing" crossingEdges="-324751734#1">
        <lane id=":3526736114_c3_0" index="0" allow="pedestrian" speed="1.00" length="3.20" width="4.00" shape="218.51,519.18 216.07,517.11"/>
    </edge>
    <edge id=":3526736114_c4" function="crossing" crossingEdges="324751734#1">
        <lane id=":3526736114_c4_0" index="0" allow="pedestrian" speed="1.00" length="3.20" width="4.00" shape="225.07,516.55 222.63,514.48"/>
    </edge>
    <edge id=":3526736114_w0" function="walkingarea">
        <lane id=":3526736114_w0_0" index="0" allow="pedestrian" speed="1.00" length="2.28" width="4.00" shape="221.73,513.26 225.55,512.06 225.52,511.96 224.92,510.06"/>
    </edge>
    <edge id=":3526736114_w1" function="walkingarea">
        <lane id=":3526736114_w1_0" index="0" allow="pedestrian" speed="1.00" length="3.01" width="4.00" shape="216.87,516.17 219.46,513.12 219.38,513.05 217.09,511.11 214.05,513.46 214.65,515.37 214.68,515.47 218.49,514.27"/>
    </edge>
    <edge id=":3526736114_w2" function="walkingarea">
        <lane id=":3526736114_w2_0" index="0" allow="pedestrian" speed="1.00" length="4.16" width="4.00" shape="220.44,520.47 216.62,521.67 213.72,515.09 216.01,517.03 214.78,518.64 217.36,515.59"/>
    </edge>
    <edge id=":3526736114_w3" function="walkingarea">
        <lane id=":3526736114_w3_0" index="0" allow="pedestrian" speed="1.00" length="2.27" width="4.00" shape="226.37,515.02 223.78,518.07 223.86,518.13 226.15,520.07 227.12,518.92 224.83,516.98 224.42,517.32 221.83,520.37"/>
    </edge>
    <edge id=":3526736114_w4" function="walkingarea">
        <lane id=":3526736114_w4_0" index="0" allow="pedestrian" speed="1.00" length="6.26" width="4.00" shape="223.93,512.95 221.34,516.00 217.22,520.71 219.80,517.66"/>
    </edge>
    <edge id=":cluster_1865620626_3314305185_0" function="internal">
        <lane id=":cluster_1865620626_3314305185_0_0" index="0" disallow="tram rail_urban rail rail_electric pedestrian ship" speed="11.11" length="5.26" shape="200.37,531.03 199.89,531.67 199.81,533.19 199.91,534.90 199.98,536.12"/>
    </edge>
    <edge id=":cluster_1865620626_3314305185_1" function="internal">
        <lane id=":cluster_1865620626_3314305185_1_0" index="0" disallow="tram rail_urban rail rail_electric pedestrian ship" speed="11.11" length="39.25" shape="200.37,531.03 192.16,528.46 183.28,522.67 174.87,515.71 168.08,509.61"/>
    </edge>
    <edge id=":cluster_1865620626_3314305185_2" function="internal">
        <lane id=":cluster_1865620626_3314305185_2_0" index="0" disallow="tram rail_urban rail rail_electric pedestrian ship" speed="11.11" length="11.36" shape="200.37,531.03 206.99,521.79"/>
    </edge>
    <edge id=":cluster_1865620626_3314305185_3" function="internal">
        <lane id=":cluster_1865620626_3314305185_3_0" index="0" disallow="tram rail_urban rail rail_electric pedestrian ship" speed="11.11" length="40.45" shape="172.13,504.32 179.09,510.55 187.51,514.99 197.38,517.64 208.72,518.49"/>
    </edge>
    <edge id=":cluster_1865620626_3314305185_4" function="internal">
        <lane id=":cluster_1865620626_3314305185_4_0" index="0" disallow="tram rail_urban rail rail_electric pedestrian ship" speed="11.11" length="42.49" shape="172.13,504.32 180.68,511.95 189.85,518.83 197.12,526.41 199.98,536.12"/>
        <lane id=":cluster_1865620626_3314305185_4_1" index="1" disallow="tram rail_urban rail rail_electric pedestrian ship" speed="11.11" length="42.49" shape="169.65,506.49 178.07,513.77 186.95,519.89 193.94,526.71 196.68,536.07"/>
    </edge>
    <edge id=":cluster_1865620626_3314305185_6" function="internal">
        <lane id=":cluster_1865620626_3314305185_6_0" index="0" disallow="tram rail_urban rail rail_electric pedestrian ship" speed="11.11" length="26.36" shape="169.65,506.49 176.13,514.23 178.03,517.32 175.35,515.79 168.08,509.61"/>
    </edge>
    <edge id=":cluster_1865620626_3314305185_c0" function="crossing" crossingEdges="175999143#0">
        <lane id=":cluster_1865620626_3314305185_c0_0" index="0" allow="pedestrian" speed="1.00" length="6.73" width="4.00" shape="206.71,516.89 205.00,523.40"/>
    </edge>
    <edge id=":cluster_1865620626_3314305185_c1" function="crossing" crossingEdges="175999132#2">
        <lane id=":cluster_1865620626_3314305185_c1_0" index="0" allow="pedestrian" speed="1.00" length="6.50" width="4.00" shape="201.61,534.15 195.11,534.04"/>
    </edge>
    <edge id=":cluster_1865620626_3314305185_c2" function="crossing" crossingEdges="181738145#0">
        <lane id=":cluster_1865620626_3314305185_c2_0" index="0" allow="pedestrian" speed="1.00" length="3.20" width="4.00" shape="198.43,529.36 198.32,532.56"/>
    </edge>
    <edge id=":cluster_1865620626_3314305185_w0" function="walkingarea">
        <lane id=":cluster_1865620626_3314305185_w0_0" index="0" allow="pedestrian" speed="1.00" length="25.85" width="4.00" shape="204.78,516.38 208.65,517.40 210.46,516.69 209.86,514.78 174.92,501.89 173.41,503.20"/>
    </edge>
    <edge id=":cluster_1865620626_3314305185_w1" function="walkingarea">
        <lane id=":cluster_1865620626_3314305185_w1_0" index="0" allow="pedestrian" speed="1.00" length="34.65" width="4.00" shape="168.35,512.13 167.02,513.62 195.08,536.04 195.14,532.04"/>
    </edge>
    <edge id=":cluster_1865620626_3314305185_w2" function="walkingarea">
        <lane id=":cluster_1865620626_3314305185_w2_0" index="0" allow="pedestrian" speed="1.00" length="3.06" width="4.00" shape="201.64,532.15 201.68,536.15 203.68,536.18 200.71,534.75 200.79,532.75 200.31,532.63 196.32,532.48"/>
    </edge>
    <edge id=":cluster_1865620626_3314305185_w3" function="walkingarea">
        <lane id=":cluster_1865620626_3314305185_w3_0" index="0" allow="pedestrian" speed="1.00" length="8.86" width="4.00" shape="203.07,522.89 206.93,523.91 200.43,529.43 196.44,529.28"/>
    </edge>

    <edge id="-180762426" from="338535930" to="1912278054" name="Calle Jovellanos" priority="4" type="highway.residential">
        <lane id="-180762426_0" index="0" allow="pedestrian" speed="11.11" length="67.09" width="2.00" shape="280.63,565.47 216.35,546.24"/>
        <lane id="-180762426_1" index="1" disallow="tram rail_urban rail rail_electric pedestrian ship" speed="11.11" length="67.09" shape="281.41,562.88 217.13,543.65"/>
    </edge>
    <edge id="-181961196" from="337745510" to="1865620843" name="Paseo de Chil" priority="6" type="highway.tertiary" shape="149.78,612.25 162.84,590.94 171.78,576.93 192.51,550.50 195.11,547.36">
        <lane id="-181961196_0" index="0" allow="pedestrian" speed="11.11" length="78.12" width="3.00" shape="145.64,609.72 158.73,588.37 167.82,574.12 188.73,547.46 190.42,545.42"/>
        <lane id="-181961196_1" index="1" disallow="tram rail_urban rail rail_electric pedestrian ship" speed="11.11" length="78.12" shape="148.50,611.18 161.44,590.07 170.43,575.97 191.23,549.46 192.88,547.46"/>
    </edge>
    <edge id="-200916232" from="2108790992" to="2108790991" priority="4" type="highway.residential" shape="0.00,312.07 5.35,317.69 8.18,323.57 45.19,433.93 51.83,446.75 61.36,457.99 73.51,470.52 139.06,530.03 145.40,534.99 150.96,544.14">
        <lane id="-200916232_0" index="0" allow="pedestrian" speed="13.89" length="285.26" width="2.00" shape="3.15,309.07 8.97,315.19 12.22,321.93 49.21,432.23 55.47,444.31 64.58,455.07 76.54,467.39 141.87,526.70 148.71,532.05 154.68,541.88"/>
        <lane id="-200916232_1" index="1" disallow="tram rail_urban rail rail_electric pedestrian ship" speed="13.89" length="285.26" shape="1.20,310.93 6.72,316.74 9.71,322.95 46.71,433.28 53.21,445.83 62.58,456.88 74.66,469.33 140.12,528.77 146.65,533.88 152.37,543.28"/>
    </edge>
    <edge id="-324751734#0" from="3526736114" to="1553017429" name="Paseo de Chil" priority="6" type="highway.tertiary" shape="220.41,517.02 224.03,512.74 233.28,499.68">
        <lane id="-324751734#0_0" index="0" allow="pedestrian" speed="11.11" length="1.15" width="3.00" shape="218.24,512.08 218.89,511.31"/>
        <lane id="-324751734#0_1" index="1" disallow="tram rail_urban rail rail_electric pedestrian ship" speed="11.11" length="1.15" shape="220.68,514.15 221.51,513.16"/>
    </edge>
    <edge id="-324751734#1" from="1921719392" to="3526736114" name="Paseo de Chil" priority="6" type="highway.tertiary">
        <lane id="-324751734#1_0" index="0" allow="pedestrian" speed="11.11" length="10.48" width="3.00" shape="207.40,524.86 214.86,516.06"/>
        <lane id="-324751734#1_1" index="1" disallow="tram rail_urban rail rail_electric pedestrian ship" speed="11.11" length="10.48" shape="209.91,526.85 216.00,519.67"/>
    </edge>
    <edge id="-324751734#2" from="1865620843" to="1921719392" name="Paseo de Chil" priority="6" type="highway.tertiary" shape="195.11,547.36 204.35,536.25 208.07,531.91 212.24,526.65">