<?xml version="1.0" encoding="UTF-8"?>

<!-- generated on 2022-07-07 12:37:33 by Eclipse SUMO netedit Version v1_13_0+1461-64db35494f1
-->

<routes xmlns:xsi="http://www.w3.org/2001/XMLSchema-instance" xsi:noNamespaceSchemaLocation="http://sumo.dlr.de/xsd/routes_file.xsd">
    <!-- Vehicles, persons and containers (sorted by depart) -->
    <flow id="f_0" begin="0.00" arrivalLane="0" fromJunction="gneJ4" toJunction="gneJ7" end="3600.00" vehsPerHour="1800.00"/>
</routes>
