<?xml version="1.0" encoding="UTF-8"?>

<!-- generated on 19.11.2018 10:52:19 by Eclipse SUMO netedit Version v1_0_0+0979-5758048824
-->

<additional xmlns:xsi="http://www.w3.org/2001/XMLSchema-instance" xsi:noNamespaceSchemaLocation="http://sumo.dlr.de/xsd/additional_file.xsd">
    <e1Detector id="e1_0" lane="gneE0_0" pos="17.00" freq="150.00" file="e1_0.xml"/>
</additional>
