<?xml version="1.0" encoding="UTF-8"?>

<!-- generated on 03.09.2018 12:25:32 by Eclipse SUMO netedit Version d6cfaccbb6
<configuration xmlns:xsi="http://www.w3.org/2001/XMLSchema-instance" xsi:noNamespaceSchemaLocation="http://sumo.dlr.de/xsd/netconvertConfiguration.xsd">

    <input>
        <sumo-net-file value="C:/Users/SUMO-Test/.texttest/tmp/netedit.gui.3_from_03Sep085051.1052/netedit.gui/selection/select_setoperators\input_net.net.xml"/>
    </input>

    <output>
        <output-file value="C:/Users/SUMO-Test/.texttest/tmp/netedit.gui.3_from_03Sep085051.1052/netedit.gui/selection/select_setoperators\net.net.xml"/>
    </output>

    <processing>
        <offset.disable-normalization value="true"/>
        <lefthand value="false"/>
    </processing>

    <junctions>
        <no-internal-links value="true"/>
        <no-turnarounds value="true"/>
        <junctions.corner-detail value="5"/>
        <junctions.limit-turn-speed value="5.5"/>
        <rectangular-lane-cut value="false"/>
    </junctions>

    <pedestrian>
        <walkingareas value="false"/>
    </pedestrian>

    <netedit>
        <sumo-additionals-file value="C:/Users/SUMO-Test/.texttest/tmp/netedit.gui.3_from_03Sep085051.1052/netedit.gui/selection/select_setoperators\input_additionals.add.xml"/>
        <additionals-output value="C:/Users/SUMO-Test/.texttest/tmp/netedit.gui.3_from_03Sep085051.1052/netedit.gui/selection/select_setoperators\additionals.xml"/>
        <sumo-shapes-file value="C:/Users/SUMO-Test/.texttest/tmp/netedit.gui.3_from_03Sep085051.1052/netedit.gui/selection/select_setoperators\input_shapes.add.xml"/>
        <shapes-output value="C:/Users/SUMO-Test/.texttest/tmp/netedit.gui.3_from_03Sep085051.1052/netedit.gui/selection/select_setoperators\shapes.xml"/>
    </netedit>

    <visualisation>
        <gui-settings-file value="C:/Users/SUMO-Test/.texttest/tmp/netedit.gui.3_from_03Sep085051.1052/netedit.gui/selection/select_setoperators\gui-settings.xml"/>
        <window-size value="700,500"/>
        <window-pos value="50,50"/>
        <gui-testing value="true"/>
        <gui-testing-debug value="true"/>
    </visualisation>

    <report>
        <no-warnings value="true"/>
        <error-log value="C:/Users/SUMO-Test/.texttest/tmp/netedit.gui.3_from_03Sep085051.1052/netedit.gui/selection/select_setoperators\log.txt"/>
    </report>

</configuration>
-->

<net version="1.6" junctionCornerDetail="5" limitTurnSpeed="5.50" xmlns:xsi="http://www.w3.org/2001/XMLSchema-instance" xsi:noNamespaceSchemaLocation="http://sumo.dlr.de/xsd/net_file.xsd">

    <location netOffset="50.00,50.00" convBoundary="50.00,50.00,50.00,50.00" origBoundary="-50.00,-50.00,50.00,50.00" projParameter="!"/>


    <junction id="Center" type="dead_end" x="50.00" y="50.00" incLanes="" intLanes="" shape="50.00,50.00"/>

</net>
