<?xml version="1.0" encoding="UTF-8"?>

<!-- generated on 13.05.2020 21:01:35 by Eclipse SUMO netedit Version v1_6_0+0225-03ba47aed8
<configuration xmlns:xsi="http://www.w3.org/2001/XMLSchema-instance" xsi:noNamespaceSchemaLocation="http://sumo.dlr.de/xsd/netconvertConfiguration.xsd">

    <input>
        <sumo-net-file value="C:\Users\alva_pa\.texttest\tmp\netedit.gui.13May170040.3320\netedit.gui\demandElements\route\create_consecutive\default\input_net.net.xml"/>
    </input>

    <output>
        <output-file value="C:\Users\alva_pa\.texttest\tmp\netedit.gui.13May170040.3320\netedit.gui\demandElements\route\create_consecutive\default\net.net.xml"/>
    </output>

    <processing>
        <geometry.min-radius.fix.railways value="false"/>
        <geometry.max-grade.fix value="false"/>
        <offset.disable-normalization value="true"/>
        <lefthand value="false"/>
    </processing>

    <junctions>
        <no-turnarounds value="true"/>
        <junctions.corner-detail value="5"/>
        <junctions.limit-turn-speed value="5.5"/>
        <rectangular-lane-cut value="false"/>
    </junctions>

    <pedestrian>
        <walkingareas value="false"/>
    </pedestrian>

    <netedit>
        <additional-files value="C:\Users\alva_pa\.texttest\tmp\netedit.gui.13May170040.3320\netedit.gui\demandElements\route\create_consecutive\default\additionals.xml"/>
        <additionals-output value="C:\Users\alva_pa\.texttest\tmp\netedit.gui.13May170040.3320\netedit.gui\demandElements\route\create_consecutive\default\additionals.xml"/>
        <route-files value="C:\Users\alva_pa\.texttest\tmp\netedit.gui.13May170040.3320\netedit.gui\demandElements\route\create_consecutive\default\routes.xml"/>
        <demandelements-output value="C:\Users\alva_pa\.texttest\tmp\netedit.gui.13May170040.3320\netedit.gui\demandElements\route\create_consecutive\default\routes.xml"/>
        <data-files value="C:\Users\alva_pa\.texttest\tmp\netedit.gui.13May170040.3320\netedit.gui\demandElements\route\create_consecutive\default\datas.xml"/>
        <dataelements-output value="C:\Users\alva_pa\.texttest\tmp\netedit.gui.13May170040.3320\netedit.gui\demandElements\route\create_consecutive\default\datas.xml"/>
    </netedit>

    <visualisation>
        <gui-settings-file value="C:\Users\alva_pa\.texttest\tmp\netedit.gui.13May170040.3320\netedit.gui\demandElements\route\create_consecutive\default\gui-settings.xml"/>
        <window-size value="700,500"/>
        <window-pos value="50,50"/>
        <gui-testing value="true"/>
        <gui-testing-debug value="true"/>
        <gui-testing-debug-gl value="true"/>
        <gui-testing.setting-output value="C:\Users\alva_pa\.texttest\tmp\netedit.gui.13May170040.3320\netedit.gui\demandElements\route\create_consecutive\default\guisettingsoutput.xml"/>
    </visualisation>

    <report>
        <no-warnings value="true"/>
        <aggregate-warnings value="5"/>
        <error-log value="C:\Users\alva_pa\.texttest\tmp\netedit.gui.13May170040.3320\netedit.gui\demandElements\route\create_consecutive\default\log.txt"/>
    </report>

</configuration>
-->

<routes xmlns:xsi="http://www.w3.org/2001/XMLSchema-instance" xsi:noNamespaceSchemaLocation="http://sumo.dlr.de/xsd/routes_file.xsd">
    <route edges="gneE2 gneE4" color="yellow" id="route_0"/>
</routes>
