<?xml version="1.0" encoding="UTF-8"?>

<!-- generated on 2022-08-01 07:38:05 by Eclipse SUMO netedit Version v1_14_1+0109-916a72fc82b
-->

<routes xmlns:xsi="http://www.w3.org/2001/XMLSchema-instance" xsi:noNamespaceSchemaLocation="http://sumo.dlr.de/xsd/routes_file.xsd">
    <!-- Vehicles, persons and containers (sorted by depart) -->
    <person id="p_0" depart="0.00">
        <personTrip from="gneE2" to="gneE5" lines="ANY"/>
    </person>
</routes>
