<?xml version="1.0" encoding="UTF-8"?>

<!-- generated on 04/25/14 09:13:36 by SUMO sumo Version dev-SVN-r16231
<?xml version="1.0" encoding="UTF-8"?>

<configuration xmlns:xsi="http://www.w3.org/2001/XMLSchema-instance" xsi:noNamespaceSchemaLocation="http://sumo-sim.org/xsd/sumoConfiguration.xsd">

    <input>
        <net-file value="net.net.xml"/>
        <additional-files value="input_routes.rou.xml"/>
    </input>

    <output>
        <tripinfo-output value="tripinfos.xml"/>
        <bt-output value="bt.xml"/>
    </output>

    <time>
        <begin value="0"/>
    </time>

    <report>
        <xml-validation value="never"/>
        <no-duration-log value="true"/>
        <no-step-log value="true"/>
    </report>

    <communication>
        <device.btreceiver.probability value="1"/>
        <device.btreceiver.range value="50"/>
        <device.btreceiver.all-recognitions value="true"/>
        <device.btsender.probability value="1"/>
    </communication>

</configuration>
-->

<bt-output>
    <bt id="1">
        <seen id="2" tBeg="0.00" observerPosBeg="9.99,4998.35" observerSpeedBeg="10.00" observerLaneIDBeg="1i_0" observerLanePosBeg="10.00" seenPosBeg="9.99,5001.65" seenSpeedBeg="10.00" seenLaneIDBeg="1i_1" seenLanePosBeg="10.00" tEnd="10.00" observerPosEnd="109.90,4998.35" observerSpeedEnd="10.00" observerLaneIDEnd="1i_0" observerLanePosEnd="110.00" seenPosEnd="109.90,5001.65" seenSpeedEnd="10.00" seenLaneIDEnd="1i_1" seenLanePosEnd="110.00">
            <recognitionPoint t="1.00" observerPos="19.98,4998.35" observerSpeed="10.00" observerLaneID="1i_0" observerLanePos="20.00" seenPos="19.98,5001.65" seenSpeed="10.00" seenLaneID="1i_1" seenLanePos="20.00"/>
            <recognitionPoint t="2.00" observerPos="29.97,4998.35" observerSpeed="10.00" observerLaneID="1i_0" observerLanePos="30.00" seenPos="29.97,5001.65" seenSpeed="10.00" seenLaneID="1i_1" seenLanePos="30.00"/>
            <recognitionPoint t="4.00" observerPos="49.95,4998.35" observerSpeed="10.00" observerLaneID="1i_0" observerLanePos="50.00" seenPos="49.95,5001.65" seenSpeed="10.00" seenLaneID="1i_1" seenLanePos="50.00"/>
            <recognitionPoint t="5.00" observerPos="59.94,4998.35" observerSpeed="10.00" observerLaneID="1i_0" observerLanePos="60.00" seenPos="59.94,5001.65" seenSpeed="10.00" seenLaneID="1i_1" seenLanePos="60.00"/>
            <recognitionPoint t="6.00" observerPos="69.93,4998.35" observerSpeed="10.00" observerLaneID="1i_0" observerLanePos="70.00" seenPos="69.93,5001.65" seenSpeed="10.00" seenLaneID="1i_1" seenLanePos="70.00"/>
            <recognitionPoint t="7.00" observerPos="79.92,4998.35" observerSpeed="10.00" observerLaneID="1i_0" observerLanePos="80.00" seenPos="79.92,5001.65" seenSpeed="10.00" seenLaneID="1i_1" seenLanePos="80.00"/>
            <recognitionPoint t="8.00" observerPos="89.91,4998.35" observerSpeed="10.00" observerLaneID="1i_0" observerLanePos="90.00" seenPos="89.91,5001.65" seenSpeed="10.00" seenLaneID="1i_1" seenLanePos="90.00"/>
            <recognitionPoint t="9.00" observerPos="99.91,4998.35" observerSpeed="10.00" observerLaneID="1i_0" observerLanePos="100.00" seenPos="99.91,5001.65" seenSpeed="10.00" seenLaneID="1i_1" seenLanePos="100.00"/>
            <recognitionPoint t="10.00" observerPos="109.90,4998.35" observerSpeed="10.00" observerLaneID="1i_0" observerLanePos="110.00" seenPos="109.90,5001.65" seenSpeed="10.00" seenLaneID="1i_1" seenLanePos="110.00"/>
        </seen>
    </bt>
    <bt id="2">
        <seen id="1" tBeg="0.00" observerPosBeg="9.99,5001.65" observerSpeedBeg="10.00" observerLaneIDBeg="1i_1" observerLanePosBeg="10.00" seenPosBeg="9.99,4998.35" seenSpeedBeg="10.00" seenLaneIDBeg="1i_0" seenLanePosBeg="10.00" tEnd="10.00" observerPosEnd="109.90,5001.65" observerSpeedEnd="10.00" observerLaneIDEnd="1i_1" observerLanePosEnd="110.00" seenPosEnd="109.90,4998.35" seenSpeedEnd="10.00" seenLaneIDEnd="1i_0" seenLanePosEnd="110.00">
            <recognitionPoint t="1.00" observerPos="19.98,5001.65" observerSpeed="10.00" observerLaneID="1i_1" observerLanePos="20.00" seenPos="19.98,4998.35" seenSpeed="10.00" seenLaneID="1i_0" seenLanePos="20.00"/>
            <recognitionPoint t="2.00" observerPos="29.97,5001.65" observerSpeed="10.00" observerLaneID="1i_1" observerLanePos="30.00" seenPos="29.97,4998.35" seenSpeed="10.00" seenLaneID="1i_0" seenLanePos="30.00"/>
            <recognitionPoint t="3.00" observerPos="39.96,5001.65" observerSpeed="10.00" observerLaneID="1i_1" observerLanePos="40.00" seenPos="39.96,4998.35" seenSpeed="10.00" seenLaneID="1i_0" seenLanePos="40.00"/>
            <recognitionPoint t="6.00" observerPos="69.93,5001.65" observerSpeed="10.00" observerLaneID="1i_1" observerLanePos="70.00" seenPos="69.93,4998.35" seenSpeed="10.00" seenLaneID="1i_0" seenLanePos="70.00"/>
            <recognitionPoint t="7.00" observerPos="79.92,5001.65" observerSpeed="10.00" observerLaneID="1i_1" observerLanePos="80.00" seenPos="79.92,4998.35" seenSpeed="10.00" seenLaneID="1i_0" seenLanePos="80.00"/>
            <recognitionPoint t="10.00" observerPos="109.90,5001.65" observerSpeed="10.00" observerLaneID="1i_1" observerLanePos="110.00" seenPos="109.90,4998.35" seenSpeed="10.00" seenLaneID="1i_0" seenLanePos="110.00"/>
        </seen>
    </bt>
</bt-output>
