<?xml version="1.0" encoding="UTF-8"?>

<!-- generated on 2021-06-30 10:22:54 by Eclipse SUMO netedit Version v1_9_2+0753-225fb93a20
-->

<additional xmlns:xsi="http://www.w3.org/2001/XMLSchema-instance" xsi:noNamespaceSchemaLocation="http://sumo.dlr.de/xsd/additional_file.xsd">
    <e1Detector id="E1_02" lane="gneE0_0" pos="3.00" freq="100.00" file="fileA.txt" vTypes="bus taxi private"/>
</additional>
