<tazs>
    <taz id="1">
    </taz>
    <taz id="2">
        <tazSource id="b1" weight="1">
        </tazSource>
        <tazSink id="b2" weight="1">
        </tazSink>
    </taz>
</tazs>

