<additional xmlns:xsi="http://www.w3.org/2001/XMLSchema-instance" xsi:noNamespaceSchemaLocation="http://sumo.dlr.de/xsd/additional_file.xsd">
    <parkingArea id="parkingArea_0" lane="Edge3_1" startPos="32.40" endPos="42.40" name="parkingArea" friendlyPos="false" roadsideCapacity="0" width="3.00" length="5.00" angle="0.00"/>
    <parkingArea id="parkingArea_1" lane="Edge5_1" startPos="10" endPos="20" name="parkingArea" friendlyPos="false" roadsideCapacity="0" width="3.00" length="5.00" angle="0.00"/>
</additional>
