<?xml version="1.0" encoding="UTF-8"?>

<!-- generated on 2022-03-04 10:52:31 by Eclipse SUMO netedit Version v1_12_0+1137-e9106068858
-->

<additional xmlns:xsi="http://www.w3.org/2001/XMLSchema-instance" xsi:noNamespaceSchemaLocation="http://sumo.dlr.de/xsd/additional_file.xsd">
    <!-- StoppingPlaces -->
    <containerStop id="containerStop_01" name="containerStop" lane="gneE0_0" startPos="25.00" endPos="30.00"/>
    <containerStop id="containerStop_02" name="containerStop" lane="gneE0_0" startPos="35.00" endPos="40.00" lines="line1, line2"/>
    <containerStop id="containerStop_03" name="containerStop" lane="gneE0_0" startPos="45.00" endPos="50.00" lines="lineA lineB"/>
</additional>
