<?xml version="1.0" encoding="UTF-8"?>

<!-- generated on 2022-06-28 14:06:50 by Eclipse SUMO netedit Version v1_13_0+1268-87dc14c6d66
-->

<additional xmlns:xsi="http://www.w3.org/2001/XMLSchema-instance" xsi:noNamespaceSchemaLocation="http://sumo.dlr.de/xsd/additional_file.xsd">
    <!-- Detectors -->
    <laneAreaDetector id="multiLaneAreaDetector_0" lanes="gneE2_0 gneE3_0" pos="15.00" endPos="15.00" period="900.00" file="multiLaneAreaDetector_0.xml"/>
    <laneAreaDetector id="multiLaneAreaDetector_1" name="%%%....;;;" lanes="gneE2_0 gneE3_0" pos="15.00" endPos="15.00" period="900.00" file="multiLaneAreaDetector_1.xml"/>
    <laneAreaDetector id="multiLaneAreaDetector_2" name="ownName" lanes="gneE2_0 gneE3_0" pos="15.00" endPos="15.00" period="900.00" file="multiLaneAreaDetector_2.xml"/>
</additional>
