<?xml version="1.0" encoding="UTF-8"?>

<!-- generated on 2023-04-20 14:41:12 by Eclipse SUMO netedit Version v1_16_0+2228-9f242c35b76
-->

<additional xmlns:xsi="http://www.w3.org/2001/XMLSchema-instance" xsi:noNamespaceSchemaLocation="http://sumo.dlr.de/xsd/additional_file.xsd">
    <!-- Shapes -->
    <poly id="po_0" color="red" fill="0" layer="0.00" shape="-40.000000,10.000000 -40.000000,20.000000 -50.000000,20.000000 -50.000000,10.000000 -40.000000,10.000000">
        <param key="keyFinal1" value="value1"/>
        <param key="keyFinal2" value="value2"/>
        <param key="keyFinal3" value="value3"/>
    </poly>
</additional>
