<?xml version="1.0" encoding="UTF-8"?>

<!-- generated on 2021-06-25 14:27:13 by Eclipse SUMO netedit Version v1_9_2+0656-adb6934d49
-->

<additional xmlns:xsi="http://www.w3.org/2001/XMLSchema-instance" xsi:noNamespaceSchemaLocation="http://sumo.dlr.de/xsd/additional_file.xsd">
    <calibrator id="calibrator01" lane="gneE0_0" pos="20.00" output="calibrator01.txt"/>
    <calibrator id="calibrator04" lane="gneE0_0" pos="26.00" freq="120.50" output="calibrator04.txt"/>
</additional>
