<?xml version="1.0" encoding="UTF-8"?>

<!-- generated on Fri 10 Aug 2018 09:44:20 AM CEST by Eclipse SUMO netedit Version 732853e
<configuration xmlns:xsi="http://www.w3.org/2001/XMLSchema-instance" xsi:noNamespaceSchemaLocation="http://sumo.dlr.de/xsd/netconvertConfiguration.xsd">

    <input>
        <sumo-net-file value="input_net.net.xml"/>
    </input>

    <output>
        <output-file value="input_net.net.xml"/>
    </output>

    <processing>
        <no-turnarounds value="true"/>
        <offset.disable-normalization value="true"/>
        <lefthand value="false"/>
        <junctions.corner-detail value="0"/>
        <junctions.limit-turn-speed value="-1"/>
        <rectangular-lane-cut value="false"/>
        <walkingareas value="false"/>
    </processing>

</configuration>
-->

<net version="0.27" xmlns:xsi="http://www.w3.org/2001/XMLSchema-instance" xsi:noNamespaceSchemaLocation="http://sumo.dlr.de/xsd/net_file.xsd">

    <location netOffset="0.00,0.00" convBoundary="-11.45,-48.16,123.43,76.28" origBoundary="-10000000000.00,-10000000000.00,10000000000.00,10000000000.00" projParameter="!"/>

    <edge id=":gneJ1_0" function="internal">
        <lane id=":gneJ1_0_0" index="0" speed="13.89" length="11.16" shape="49.12,21.44 52.38,22.09 54.64,23.44 56.76,24.44 59.59,24.06"/>
    </edge>
    <edge id=":gneJ1_1" function="internal">
        <lane id=":gneJ1_1_0" index="0" allow="bus" speed="13.89" length="11.71" shape="49.16,24.64 52.64,25.10 55.04,26.16 57.29,27.23 60.33,27.69"/>
    </edge>
    <edge id=":gneJ1_2" function="internal">
        <lane id=":gneJ1_2_0" index="0" speed="13.89" length="8.28" shape="49.19,27.84 51.53,28.06 53.03,28.78 54.38,29.95 56.29,31.53"/>
    </edge>
    <edge id=":gneJ7_0" function="internal">
        <lane id=":gneJ7_0_0" index="0" speed="13.89" length="0.29" shape="58.42,-48.34 58.71,-48.34"/>
    </edge>

    <edge id="gneE0" from="gneJ0" to="gneJ1" priority="1">
        <lane id="gneE0_0" index="0" disallow="all" speed="13.89" length="60.66" shape="-11.54,22.13 49.12,21.44"/>
        <lane id="gneE0_1" index="1" disallow="all" speed="13.89" length="60.66" shape="-11.50,25.33 49.16,24.64"/>
        <lane id="gneE0_2" index="2" allow="passenger bus" speed="13.89" length="60.66" shape="-11.47,28.53 49.19,27.84"/>
    </edge>
    <edge id="gneE1" from="gneJ1" to="gneJ2" priority="1">
        <lane id="gneE1_0" index="0" allow="bus" speed="13.89" length="62.01" shape="60.33,27.69 122.34,26.87"/>
    </edge>
    <edge id="gneE2" from="gneJ1" to="gneJ3" priority="1">
        <lane id="gneE2_0" index="0" speed="13.89" length="73.53" shape="56.29,31.53 115.60,74.99"/>
    </edge>
    <edge id="gneE3" from="gneJ1" to="gneJ4" priority="1">
        <lane id="gneE3_0" index="0" speed="13.89" length="63.17" shape="59.59,24.06 118.08,0.18"/>
    </edge>
    <edge id="gneE4" from="gneJ6" to="gneJ7" priority="1">
        <lane id="gneE4_0" index="0" speed="13.89" length="66.64" shape="-8.21,-49.76 58.42,-48.34"/>
    </edge>
    <edge id="gneE5" from="gneJ7" to="gneJ8" priority="1">
        <lane id="gneE5_0" index="0" speed="13.89" length="64.74" shape="58.71,-48.34 123.45,-47.63"/>
    </edge>

    <junction id="gneJ0" type="dead_end" x="-11.45" y="30.13" incLanes="" intLanes="" shape="-11.45,30.13 -11.49,26.93"/>
    <junction id="gneJ1" type="priority" x="50.71" y="29.42" incLanes="gneE0_0 gneE0_1 gneE0_2" intLanes=":gneJ1_0_0 :gneJ1_1_0 :gneJ1_2_0" shape="55.35,32.82 57.24,30.24 60.35,29.29 60.31,26.09 60.20,25.55 58.99,22.58 49.17,26.24 49.21,29.44">
        <request index="0" response="000" foes="000" cont="0"/>
        <request index="1" response="000" foes="000" cont="0"/>
        <request index="2" response="000" foes="000" cont="0"/>
    </junction>
    <junction id="gneJ2" type="dead_end" x="122.36" y="28.47" incLanes="gneE1_0" intLanes="" shape="122.32,25.27 122.36,28.47"/>
    <junction id="gneJ3" type="dead_end" x="114.65" y="76.28" incLanes="gneE2_0" intLanes="" shape="116.54,73.70 114.65,76.28"/>
    <junction id="gneJ4" type="dead_end" x="118.68" y="1.66" incLanes="gneE3_0" intLanes="" shape="117.47,-1.30 118.68,1.66"/>
    <junction id="gneJ6" type="dead_end" x="-8.24" y="-48.16" incLanes="" intLanes="" shape="-8.24,-48.16 -8.17,-51.36"/>
    <junction id="gneJ7" type="priority" x="58.54" y="-46.74" incLanes="gneE4_0" intLanes=":gneJ7_0_0" shape="58.70,-46.74 58.73,-49.94 58.45,-49.94 58.38,-46.74">
        <request index="0" response="0" foes="0" cont="0"/>
    </junction>
    <junction id="gneJ8" type="dead_end" x="123.43" y="-46.03" incLanes="gneE5_0" intLanes="" shape="123.47,-49.23 123.43,-46.03"/>

    <connection from="gneE0" to="gneE3" fromLane="0" toLane="0" via=":gneJ1_0_0" dir="s" state="M"/>
    <connection from="gneE0" to="gneE1" fromLane="1" toLane="0" via=":gneJ1_1_0" dir="s" state="M"/>
    <connection from="gneE0" to="gneE2" fromLane="2" toLane="0" via=":gneJ1_2_0" dir="L" state="M"/>
    <connection from="gneE4" to="gneE5" fromLane="0" toLane="0" via=":gneJ7_0_0" dir="s" state="M"/>

    <connection from=":gneJ1_0" to="gneE3" fromLane="0" toLane="0" dir="s" state="M"/>
    <connection from=":gneJ1_1" to="gneE1" fromLane="0" toLane="0" dir="s" state="M"/>
    <connection from=":gneJ1_2" to="gneE2" fromLane="0" toLane="0" dir="L" state="M"/>
    <connection from=":gneJ7_0" to="gneE5" fromLane="0" toLane="0" dir="s" state="M"/>

</net>
