<?xml version="1.0" encoding="UTF-8"?>

<!-- generated on 2024-07-03 12:53:24 by Eclipse SUMO netedit Version v1_20_0+0963-89ad34cf688
-->

<additional xmlns:xsi="http://www.w3.org/2001/XMLSchema-instance" xsi:noNamespaceSchemaLocation="http://sumo.dlr.de/xsd/additional_file.xsd">
    <!-- Detectors -->
    <inductionLoop id="e1_0" lane="E3_0" pos="7.80" period="300.00" file="e1_0.xml"/>
    <inductionLoop id="e1_1" lane="-E3_0" pos="10.00" period="300.00" file="e1_1.xml"/>
    <inductionLoop id="e1_2" lane="E2_0" pos="7.80" period="300.00" file="e1_2.xml"/>
    <inductionLoop id="e1_3" lane="-E2_0" pos="10.00" period="300.00" file="e1_3.xml"/>
    <inductionLoop id="e1_4" lane="-E0_0" pos="10.00" period="300.00" file="e1_4.xml"/>
    <inductionLoop id="e1_5" lane="E0_0" pos="7.80" period="300.00" file="e1_5.xml"/>
    <inductionLoop id="e1_6" lane="E1_0" pos="7.80" period="300.00" file="e1_6.xml"/>
    <inductionLoop id="e1_7" lane="-E1_0" pos="10.00" period="300.00" file="e1_7.xml"/>
</additional>
