<?xml version="1.0" encoding="UTF-8"?>

<!-- generated on 2025-12-19T17:50:52.420745+01:00 by Eclipse SUMO sumo v1_25_0+0646-5052cf5c68d
This data file and the accompanying materials
are made available under the terms of the Eclipse Public License v2.0
which accompanies this distribution, and is available at
http://www.eclipse.org/legal/epl-v20.html
This file may also be made available under the following Secondary
Licenses when the conditions for such availability set forth in the Eclipse
Public License 2.0 are satisfied: GNU General Public License, version 2
or later which is available at
https://www.gnu.org/licenses/old-licenses/gpl-2.0-standalone.html
SPDX-License-Identifier: EPL-2.0 OR GPL-2.0-or-later
<sumoConfiguration xmlns:xsi="http://www.w3.org/2001/XMLSchema-instance" xsi:noNamespaceSchemaLocation="http://sumo.dlr.de/xsd/sumoConfiguration.xsd">

    <input>
        <net-file value="net.net.xml"/>
        <route-files value="input_routes.rou.xml"/>
    </input>

    <output>
        <write-license value="true"/>
        <tripinfo-output value="tripinfos.xml"/>
        <railsignal-block-output value="railsignal_blocks.xml"/>
    </output>

    <processing>
        <time-to-teleport.railsignal-deadlock value="200"/>
        <default.speeddev value="0"/>
    </processing>

    <report>
        <xml-validation value="never"/>
        <duration-log.disable value="true"/>
        <no-step-log value="true"/>
    </report>

    <mesoscopic>
        <mesosim value="true"/>
        <meso-junction-control value="true"/>
    </mesoscopic>

</sumoConfiguration>
-->

<railsignal-block-output>
    <railSignal id="A.A">
        <link linkIndex="0" from="T7_0_0" to="T8_0_0"/>
    </railSignal>
    <railSignal id="A.F">
        <link linkIndex="0" from="T12_1_0" to="T11_1_0">
            <driveWay id="A.F.0" vehicle="rail1" edges="T11_1 T3_1 T2_1 T1_1 T8_1 T7_1">
                <forward lanes="T11_1_0 T3_1_0 T2_1_0"/>
                <bidi lanes="T11_0_0"
                    deadlockCheck="T8_0_0 T7_0_0"/>
                <flank lanes=""/>
                <conflictLinks signals=""/>
                <foes driveWays="A.F.0"/>
            </driveWay>
        </link>
    </railSignal>
    <railSignal id="A.N2">
        <link linkIndex="0" from="T9_0_0" to="T10_0_0"/>
    </railSignal>
    <railSignal id="A.P1">
        <link linkIndex="0" from="T2_1_0" to="T1_1_0">
            <driveWay id="A.P1.0" vehicle="rail1" edges="T1_1 T8_1 T7_1">
                <forward lanes="T1_1_0 T8_1_0 T7_1_0"/>
                <bidi lanes="T8_0_0 T7_0_0"/>
                <flank lanes=""/>
                <conflictLinks signals=""/>
                <foes driveWays="A.P1.0"/>
            </driveWay>
        </link>
    </railSignal>
    <railSignal id="B.A">
        <link linkIndex="0" from="T12_0_0" to="T13_0_0">
            <driveWay id="B.A.0" vehicle="rail2" edges="T13_0 T4_0 T5_0">
                <forward lanes="T13_0_0 T4_0_0 T5_0_0"/>
                <bidi lanes="T13_1_0 T4_1_0 T5_1_0"/>
                <flank lanes=""/>
                <conflictLinks signals="B.P2_0"/>
                <foes driveWays="B.A.0 B.P1.d0 B.P2.0.0"/>
            </driveWay>
            <subDriveWay id="B.A.0.0" vehicle="" edges="T13_0">
                <forward lanes="T13_0_0"/>
            </subDriveWay>
        </link>
    </railSignal>
    <railSignal id="B.F">
        <link linkIndex="0" from="T18_1_0" to="T17_1_0"/>
    </railSignal>
    <railSignal id="B.N1">
        <link linkIndex="0" from="T5_0_0" to="T6_0_0"/>
    </railSignal>
    <railSignal id="B.N2">
        <link linkIndex="0" from="T15_0_0" to="T16_0_0"/>
    </railSignal>
    <railSignal id="B.P1">
        <link linkIndex="0" from="T5_1_0" to="T4_1_0"/>
    </railSignal>
    <railSignal id="B.P2">
        <link linkIndex="0" from="T15_1_0" to="T14_1_0">
            <driveWay id="B.P2.0" vehicle="rail1" edges="T14_1 T13_1 T12_1 T11_1 T3_1 T2_1 T1_1 T8_1 T7_1">
                <forward lanes="T14_1_0 T13_1_0 T12_1_0"/>
                <bidi lanes="T14_0_0 T13_0_0 T12_0_0 T11_0_0"
                    deadlockCheck="T8_0_0 T7_0_0"/>
                <flank lanes=""/>
                <conflictLinks signals=""/>
                <foes driveWays="A.F.d0 B.A.0.0 B.P2.0"/>
            </driveWay>
            <subDriveWay id="B.P2.0.0" vehicle="" edges="T14_1 T13_1">
                <forward lanes="T14_1_0 T13_1_0"/>
            </subDriveWay>
        </link>
    </railSignal>
    <departJunction id="A.F">
        <driveWay id="A.F.d0" vehicle="rail2" edges="T12_0 T13_0 T4_0 T5_0">
            <forward lanes="T12_0_0"/>
            <bidi lanes="T12_1_0 T13_1_0 T4_1_0 T5_1_0"/>
            <flank lanes=""/>
            <conflictLinks signals="B.P2_0"/>
            <foes driveWays="A.F.d0 B.P2.0"/>
        </driveWay>
    </departJunction>
    <departJunction id="B.N2">
        <driveWay id="B.N2.d0" vehicle="rail1" edges="T15_1 T14_1 T13_1 T12_1 T11_1 T3_1 T2_1 T1_1 T8_1 T7_1">
            <forward lanes="T15_1_0"/>
            <bidi lanes="T15_0_0 T14_0_0"
                    deadlockCheck="T13_0_0 T12_0_0 T11_0_0 T8_0_0 T7_0_0"/>
            <flank lanes=""/>
            <conflictLinks signals=""/>
            <foes driveWays="B.N2.d0"/>
        </driveWay>
    </departJunction>
    <departJunction id="B.P1">
        <driveWay id="B.P1.d0" vehicle="rail3" edges="T5_0">
            <forward lanes="T5_0_0"/>
            <bidi lanes="T5_1_0"/>
            <flank lanes=""/>
            <conflictLinks signals="B.A_0"/>
            <foes driveWays="B.A.0 B.P1.d0"/>
        </driveWay>
    </departJunction>
</railsignal-block-output>
