<?xml version="1.0" encoding="UTF-8"?>

<!-- generated on 11/14/16 16:02:17 by SUMO Version dev-SVN-r21978
<?xml version="1.0" encoding="UTF-8"?>

<configuration xmlns:xsi="http://www.w3.org/2001/XMLSchema-instance" xsi:noNamespaceSchemaLocation="http://sumo.dlr.de/xsd/sumoConfiguration.xsd">

    <input>
        <net-file value="net.net.xml"/>
        <route-files value="input_routes.rou.xml"/>
        <additional-files value="input_additional.add.xml"/>
    </input>

    <time>
        <begin value="100"/>
        <end value="300"/>
    </time>

    <report>
        <xml-validation value="never"/>
        <duration-log.disable value="true"/>
        <no-step-log value="true"/>
    </report>

</configuration>
-->

<tls-states xmlns:xsi="http://www.w3.org/2001/XMLSchema-instance" xsi:noNamespaceSchemaLocation="http://sumo.dlr.de/xsd/tlsstate_file.xsd">
    <tlsstate time="100.00" id="0" programID="0" phase="6" state="rrrrrrGGrrrrrrGG"/>
    <tlsstate time="106.00" id="0" programID="0" phase="7" state="rrrrrryyrrrrrryy"/>
    <tlsstate time="110.00" id="0" programID="0" phase="0" state="GGggrrrrGGggrrrr"/>
    <tlsstate time="141.00" id="0" programID="0" phase="1" state="yyggrrrryyggrrrr"/>
    <tlsstate time="145.00" id="0" programID="0" phase="2" state="rrGGrrrrrrGGrrrr"/>
    <tlsstate time="151.00" id="0" programID="0" phase="3" state="rryyrrrrrryyrrrr"/>
    <tlsstate time="155.00" id="0" programID="0" phase="4" state="rrrrGGggrrrrGGgg"/>
    <tlsstate time="186.00" id="0" programID="0" phase="5" state="rrrryyggrrrryygg"/>
    <tlsstate time="190.00" id="0" programID="0" phase="6" state="rrrrrrGGrrrrrrGG"/>
    <tlsstate time="196.00" id="0" programID="0" phase="7" state="rrrrrryyrrrrrryy"/>
    <tlsstate time="200.00" id="0" programID="0" phase="0" state="GGggrrrrGGggrrrr"/>
    <tlsstate time="231.00" id="0" programID="0" phase="1" state="yyggrrrryyggrrrr"/>
    <tlsstate time="235.00" id="0" programID="0" phase="2" state="rrGGrrrrrrGGrrrr"/>
    <tlsstate time="241.00" id="0" programID="0" phase="3" state="rryyrrrrrryyrrrr"/>
    <tlsstate time="245.00" id="0" programID="0" phase="4" state="rrrrGGggrrrrGGgg"/>
    <tlsstate time="276.00" id="0" programID="0" phase="5" state="rrrryyggrrrryygg"/>
    <tlsstate time="280.00" id="0" programID="0" phase="6" state="rrrrrrGGrrrrrrGG"/>
    <tlsstate time="286.00" id="0" programID="0" phase="7" state="rrrrrryyrrrrrryy"/>
    <tlsstate time="290.00" id="0" programID="0" phase="0" state="GGggrrrrGGggrrrr"/>
</tls-states>
