<?xml version="1.0" encoding="UTF-8"?>

<!-- generated on 2025-03-13 14:47:11 by Eclipse SUMO sumo Version v1_14_1+18119-640ec445508
This data file and the accompanying materials
are made available under the terms of the Eclipse Public License v2.0
which accompanies this distribution, and is available at
http://www.eclipse.org/legal/epl-v20.html
This file may also be made available under the following Secondary
Licenses when the conditions for such availability set forth in the Eclipse
Public License 2.0 are satisfied: GNU General Public License, version 2
or later which is available at
https://www.gnu.org/licenses/old-licenses/gpl-2.0-standalone.html
SPDX-License-Identifier: EPL-2.0 OR GPL-2.0-or-later
<sumoConfiguration xmlns:xsi="http://www.w3.org/2001/XMLSchema-instance" xsi:noNamespaceSchemaLocation="http://sumo.dlr.de/xsd/sumoConfiguration.xsd">

    <input>
        <net-file value="net.net.xml"/>
        <route-files value="input_routes.rou.xml"/>
        <additional-files value="input_additional.add.xml"/>
    </input>

    <output>
        <write-license value="true"/>
        <battery-output value="battery.xml"/>
        <battery-output.precision value="4"/>
        <chargingstations-output value="chargingstations.xml"/>
        <tripinfo-output value="tripinfos.xml"/>
    </output>

    <processing>
        <default.speeddev value="0"/>
    </processing>

    <report>
        <xml-validation value="never"/>
        <duration-log.disable value="true"/>
        <no-step-log value="true"/>
    </report>

    <battery>
        <device.stationfinder.probability value="1"/>
    </battery>

</sumoConfiguration>
-->

<chargingstations-export>
    <chargingStation id="CS1" totalEnergyCharged="0.00" chargingSteps="0"/>
    <chargingStation id="CS2" totalEnergyCharged="11739.75" chargingSteps="4269">
        <vehicle id="veh_tow" type="ElectricVehicle1" totalEnergyChargedIntoVehicle="5975.75" chargingBegin="58.00" chargingEnd="2230.00">
            <step time="58.00" chargingStatus="chargingInTransit" energyCharged="2.75" partialCharge="2.75" power="11000.00" efficiency="0.90" actualBatteryCapacity="2.75" maximumBatteryCapacity="35000.00"/>
            <step time="59.00" chargingStatus="chargingInTransit" energyCharged="2.75" partialCharge="5.50" power="11000.00" efficiency="0.90" actualBatteryCapacity="2.75" maximumBatteryCapacity="35000.00"/>
            <step time="60.00" chargingStatus="chargingInTransit" energyCharged="2.75" partialCharge="8.25" power="11000.00" efficiency="0.90" actualBatteryCapacity="17.71" maximumBatteryCapacity="35000.00"/>
            <step time="61.00" chargingStatus="chargingInTransit" energyCharged="2.75" partialCharge="11.00" power="11000.00" efficiency="0.90" actualBatteryCapacity="32.65" maximumBatteryCapacity="35000.00"/>
            <step time="62.00" chargingStatus="chargingInTransit" energyCharged="2.75" partialCharge="13.75" power="11000.00" efficiency="0.90" actualBatteryCapacity="40.29" maximumBatteryCapacity="35000.00"/>
            <step time="63.00" chargingStatus="chargingStopped" energyCharged="2.75" partialCharge="16.50" power="11000.00" efficiency="0.90" actualBatteryCapacity="43.04" maximumBatteryCapacity="35000.00"/>
            <step time="64.00" chargingStatus="chargingStopped" energyCharged="2.75" partialCharge="19.25" power="11000.00" efficiency="0.90" actualBatteryCapacity="45.79" maximumBatteryCapacity="35000.00"/>
            <step time="65.00" chargingStatus="chargingStopped" energyCharged="2.75" partialCharge="22.00" power="11000.00" efficiency="0.90" actualBatteryCapacity="48.54" maximumBatteryCapacity="35000.00"/>
            <step time="66.00" chargingStatus="chargingStopped" energyCharged="2.75" partialCharge="24.75" power="11000.00" efficiency="0.90" actualBatteryCapacity="51.29" maximumBatteryCapacity="35000.00"/>
            <step time="67.00" chargingStatus="chargingStopped" energyCharged="2.75" partialCharge="27.50" power="11000.00" efficiency="0.90" actualBatteryCapacity="54.04" maximumBatteryCapacity="35000.00"/>
            <step time="68.00" chargingStatus="chargingStopped" energyCharged="2.75" partialCharge="30.25" power="11000.00" efficiency="0.90" actualBatteryCapacity="56.79" maximumBatteryCapacity="35000.00"/>
            <step time="69.00" chargingStatus="chargingStopped" energyCharged="2.75" partialCharge="33.00" power="11000.00" efficiency="0.90" actualBatteryCapacity="59.54" maximumBatteryCapacity="35000.00"/>
            <step time="70.00" chargingStatus="chargingStopped" energyCharged="2.75" partialCharge="35.75" power="11000.00" efficiency="0.90" actualBatteryCapacity="62.29" maximumBatteryCapacity="35000.00"/>
            <step time="71.00" chargingStatus="chargingStopped" energyCharged="2.75" partialCharge="38.50" power="11000.00" efficiency="0.90" actualBatteryCapacity="65.04" maximumBatteryCapacity="35000.00"/>
            <step time="72.00" chargingStatus="chargingStopped" energyCharged="2.75" partialCharge="41.25" power="11000.00" efficiency="0.90" actualBatteryCapacity="67.79" maximumBatteryCapacity="35000.00"/>
            <step time="73.00" chargingStatus="chargingStopped" energyCharged="2.75" partialCharge="44.00" power="11000.00" efficiency="0.90" actualBatteryCapacity="70.54" maximumBatteryCapacity="35000.00"/>
            <step time="74.00" chargingStatus="chargingStopped" energyCharged="2.75" partialCharge="46.75" power="11000.00" efficiency="0.90" actualBatteryCapacity="73.29" maximumBatteryCapacity="35000.00"/>
            <step time="75.00" chargingStatus="chargingStopped" energyCharged="2.75" partialCharge="49.50" power="11000.00" efficiency="0.90" actualBatteryCapacity="76.04" maximumBatteryCapacity="35000.00"/>
            <step time="76.00" chargingStatus="chargingStopped" energyCharged="2.75" partialCharge="52.25" power="11000.00" efficiency="0.90" actualBatteryCapacity="78.79" maximumBatteryCapacity="35000.00"/>
            <step time="77.00" chargingStatus="chargingStopped" energyCharged="2.75" partialCharge="55.00" power="11000.00" efficiency="0.90" actualBatteryCapacity="81.54" maximumBatteryCapacity="35000.00"/>
            <step time="78.00" chargingStatus="chargingStopped" energyCharged="2.75" partialCharge="57.75" power="11000.00" efficiency="0.90" actualBatteryCapacity="84.29" maximumBatteryCapacity="35000.00"/>
            <step time="79.00" chargingStatus="chargingStopped" energyCharged="2.75" partialCharge="60.50" power="11000.00" efficiency="0.90" actualBatteryCapacity="87.04" maximumBatteryCapacity="35000.00"/>
            <step time="80.00" chargingStatus="chargingStopped" energyCharged="2.75" partialCharge="63.25" power="11000.00" efficiency="0.90" actualBatteryCapacity="89.79" maximumBatteryCapacity="35000.00"/>
            <step time="81.00" chargingStatus="chargingStopped" energyCharged="2.75" partialCharge="66.00" power="11000.00" efficiency="0.90" actualBatteryCapacity="92.54" maximumBatteryCapacity="35000.00"/>
            <step time="82.00" chargingStatus="chargingStopped" energyCharged="2.75" partialCharge="68.75" power="11000.00" efficiency="0.90" actualBatteryCapacity="95.29" maximumBatteryCapacity="35000.00"/>
            <step time="83.00" chargingStatus="chargingStopped" energyCharged="2.75" partialCharge="71.50" power="11000.00" efficiency="0.90" actualBatteryCapacity="98.04" maximumBatteryCapacity="35000.00"/>
            <step time="84.00" chargingStatus="chargingStopped" energyCharged="2.75" partialCharge="74.25" power="11000.00" efficiency="0.90" actualBatteryCapacity="100.79" maximumBatteryCapacity="35000.00"/>
            <step time="85.00" chargingStatus="chargingStopped" energyCharged="2.75" partialCharge="77.00" power="11000.00" efficiency="0.90" actualBatteryCapacity="103.54" maximumBatteryCapacity="35000.00"/>
            <step time="86.00" chargingStatus="chargingStopped" energyCharged="2.75" partialCharge="79.75" power="11000.00" efficiency="0.90" actualBatteryCapacity="106.29" maximumBatteryCapacity="35000.00"/>
            <step time="87.00" chargingStatus="chargingStopped" energyCharged="2.75" partialCharge="82.50" power="11000.00" efficiency="0.90" actualBatteryCapacity="109.04" maximumBatteryCapacity="35000.00"/>
            <step time="88.00" chargingStatus="chargingStopped" energyCharged="2.75" partialCharge="85.25" power="11000.00" efficiency="0.90" actualBatteryCapacity="111.79" maximumBatteryCapacity="35000.00"/>
            <step time="89.00" chargingStatus="chargingStopped" energyCharged="2.75" partialCharge="88.00" power="11000.00" efficiency="0.90" actualBatteryCapacity="114.54" maximumBatteryCapacity="35000.00"/>
            <step time="90.00" chargingStatus="chargingStopped" energyCharged="2.75" partialCharge="90.75" power="11000.00" efficiency="0.90" actualBatteryCapacity="117.29" maximumBatteryCapacity="35000.00"/>
            <step time="91.00" chargingStatus="chargingStopped" energyCharged="2.75" partialCharge="93.50" power="11000.00" efficiency="0.90" actualBatteryCapacity="120.04" maximumBatteryCapacity="35000.00"/>
            <step time="92.00" chargingStatus="chargingStopped" energyCharged="2.75" partialCharge="96.25" power="11000.00" efficiency="0.90" actualBatteryCapacity="122.79" maximumBatteryCapacity="35000.00"/>
            <step time="93.00" chargingStatus="chargingStopped" energyCharged="2.75" partialCharge="99.00" power="11000.00" efficiency="0.90" actualBatteryCapacity="125.54" maximumBatteryCapacity="35000.00"/>
            <step time="94.00" chargingStatus="chargingStopped" energyCharged="2.75" partialCharge="101.75" power="11000.00" efficiency="0.90" actualBatteryCapacity="128.29" maximumBatteryCapacity="35000.00"/>
            <step time="95.00" chargingStatus="chargingStopped" energyCharged="2.75" partialCharge="104.50" power="11000.00" efficiency="0.90" actualBatteryCapacity="131.04" maximumBatteryCapacity="35000.00"/>
            <step time="96.00" chargingStatus="chargingStopped" energyCharged="2.75" partialCharge="107.25" power="11000.00" efficiency="0.90" actualBatteryCapacity="133.79" maximumBatteryCapacity="35000.00"/>
            <step time="97.00" chargingStatus="chargingStopped" energyCharged="2.75" partialCharge="110.00" power="11000.00" efficiency="0.90" actualBatteryCapacity="136.54" maximumBatteryCapacity="35000.00"/>
            <step time="98.00" chargingStatus="chargingStopped" energyCharged="2.75" partialCharge="112.75" power="11000.00" efficiency="0.90" actualBatteryCapacity="139.29" maximumBatteryCapacity="35000.00"/>
            <step time="99.00" chargingStatus="chargingStopped" energyCharged="2.75" partialCharge="115.50" power="11000.00" efficiency="0.90" actualBatteryCapacity="142.04" maximumBatteryCapacity="35000.00"/>
            <step time="100.00" chargingStatus="chargingStopped" energyCharged="2.75" partialCharge="118.25" power="11000.00" efficiency="0.90" actualBatteryCapacity="144.79" maximumBatteryCapacity="35000.00"/>
            <step time="101.00" chargingStatus="chargingStopped" energyCharged="2.75" partialCharge="121.00" power="11000.00" efficiency="0.90" actualBatteryCapacity="147.54" maximumBatteryCapacity="35000.00"/>
            <step time="102.00" chargingStatus="chargingStopped" energyCharged="2.75" partialCharge="123.75" power="11000.00" efficiency="0.90" actualBatteryCapacity="150.29" maximumBatteryCapacity="35000.00"/>
            <step time="103.00" chargingStatus="chargingStopped" energyCharged="2.75" partialCharge="126.50" power="11000.00" efficiency="0.90" actualBatteryCapacity="153.04" maximumBatteryCapacity="35000.00"/>
            <step time="104.00" chargingStatus="chargingStopped" energyCharged="2.75" partialCharge="129.25" power="11000.00" efficiency="0.90" actualBatteryCapacity="155.79" maximumBatteryCapacity="35000.00"/>
            <step time="105.00" chargingStatus="chargingStopped" energyCharged="2.75" partialCharge="132.00" power="11000.00" efficiency="0.90" actualBatteryCapacity="158.54" maximumBatteryCapacity="35000.00"/>
            <step time="106.00" chargingStatus="chargingStopped" energyCharged="2.75" partialCharge="134.75" power="11000.00" efficiency="0.90" actualBatteryCapacity="161.29" maximumBatteryCapacity="35000.00"/>
            <step time="107.00" chargingStatus="chargingStopped" energyCharged="2.75" partialCharge="137.50" power="11000.00" efficiency="0.90" actualBatteryCapacity="164.04" maximumBatteryCapacity="35000.00"/>
            <step time="108.00" chargingStatus="chargingStopped" energyCharged="2.75" partialCharge="140.25" power="11000.00" efficiency="0.90" actualBatteryCapacity="166.79" maximumBatteryCapacity="35000.00"/>
            <step time="109.00" chargingStatus="chargingStopped" energyCharged="2.75" partialCharge="143.00" power="11000.00" efficiency="0.90" actualBatteryCapacity="169.54" maximumBatteryCapacity="35000.00"/>
            <step time="110.00" chargingStatus="chargingStopped" energyCharged="2.75" partialCharge="145.75" power="11000.00" efficiency="0.90" actualBatteryCapacity="172.29" maximumBatteryCapacity="35000.00"/>
            <step time="111.00" chargingStatus="chargingStopped" energyCharged="2.75" partialCharge="148.50" power="11000.00" efficiency="0.90" actualBatteryCapacity="175.04" maximumBatteryCapacity="35000.00"/>
            <step time="112.00" chargingStatus="chargingStopped" energyCharged="2.75" partialCharge="151.25" power="11000.00" efficiency="0.90" actualBatteryCapacity="177.79" maximumBatteryCapacity="35000.00"/>
            <step time="113.00" chargingStatus="chargingStopped" energyCharged="2.75" partialCharge="154.00" power="11000.00" efficiency="0.90" actualBatteryCapacity="180.54" maximumBatteryCapacity="35000.00"/>
            <step time="114.00" chargingStatus="chargingStopped" energyCharged="2.75" partialCharge="156.75" power="11000.00" efficiency="0.90" actualBatteryCapacity="183.29" maximumBatteryCapacity="35000.00"/>
            <step time="115.00" chargingStatus="chargingStopped" energyCharged="2.75" partialCharge="159.50" power="11000.00" efficiency="0.90" actualBatteryCapacity="186.04" maximumBatteryCapacity="35000.00"/>
            <step time="116.00" chargingStatus="chargingStopped" energyCharged="2.75" partialCharge="162.25" power="11000.00" efficiency="0.90" actualBatteryCapacity="188.79" maximumBatteryCapacity="35000.00"/>
            <step time="117.00" chargingStatus="chargingStopped" energyCharged="2.75" partialCharge="165.00" power="11000.00" efficiency="0.90" actualBatteryCapacity="191.54" maximumBatteryCapacity="35000.00"/>
            <step time="118.00" chargingStatus="chargingStopped" energyCharged="2.75" partialCharge="167.75" power="11000.00" efficiency="0.90" actualBatteryCapacity="194.29" maximumBatteryCapacity="35000.00"/>
            <step time="119.00" chargingStatus="chargingStopped" energyCharged="2.75" partialCharge="170.50" power="11000.00" efficiency="0.90" actualBatteryCapacity="197.04" maximumBatteryCapacity="35000.00"/>
            <step time="120.00" chargingStatus="chargingStopped" energyCharged="2.75" partialCharge="173.25" power="11000.00" efficiency="0.90" actualBatteryCapacity="199.79" maximumBatteryCapacity="35000.00"/>
            <step time="121.00" chargingStatus="chargingStopped" energyCharged="2.75" partialCharge="176.00" power="11000.00" efficiency="0.90" actualBatteryCapacity="202.54" maximumBatteryCapacity="35000.00"/>
            <step time="122.00" chargingStatus="chargingStopped" energyCharged="2.75" partialCharge="178.75" power="11000.00" efficiency="0.90" actualBatteryCapacity="205.29" maximumBatteryCapacity="35000.00"/>
            <step time="123.00" chargingStatus="chargingStopped" energyCharged="2.75" partialCharge="181.50" power="11000.00" efficiency="0.90" actualBatteryCapacity="208.04" maximumBatteryCapacity="35000.00"/>
            <step time="124.00" chargingStatus="chargingStopped" energyCharged="2.75" partialCharge="184.25" power="11000.00" efficiency="0.90" actualBatteryCapacity="210.79" maximumBatteryCapacity="35000.00"/>
            <step time="125.00" chargingStatus="chargingStopped" energyCharged="2.75" partialCharge="187.00" power="11000.00" efficiency="0.90" actualBatteryCapacity="213.54" maximumBatteryCapacity="35000.00"/>
            <step time="126.00" chargingStatus="chargingStopped" energyCharged="2.75" partialCharge="189.75" power="11000.00" efficiency="0.90" actualBatteryCapacity="216.29" maximumBatteryCapacity="35000.00"/>
            <step time="127.00" chargingStatus="chargingStopped" energyCharged="2.75" partialCharge="192.50" power="11000.00" efficiency="0.90" actualBatteryCapacity="219.04" maximumBatteryCapacity="35000.00"/>
            <step time="128.00" chargingStatus="chargingStopped" energyCharged="2.75" partialCharge="195.25" power="11000.00" efficiency="0.90" actualBatteryCapacity="221.79" maximumBatteryCapacity="35000.00"/>
            <step time="129.00" chargingStatus="chargingStopped" energyCharged="2.75" partialCharge="198.00" power="11000.00" efficiency="0.90" actualBatteryCapacity="224.54" maximumBatteryCapacity="35000.00"/>
            <step time="130.00" chargingStatus="chargingStopped" energyCharged="2.75" partialCharge="200.75" power="11000.00" efficiency="0.90" actualBatteryCapacity="227.29" maximumBatteryCapacity="35000.00"/>
            <step time="131.00" chargingStatus="chargingStopped" energyCharged="2.75" partialCharge="203.50" power="11000.00" efficiency="0.90" actualBatteryCapacity="230.04" maximumBatteryCapacity="35000.00"/>
            <step time="132.00" chargingStatus="chargingStopped" energyCharged="2.75" partialCharge="206.25" power="11000.00" efficiency="0.90" actualBatteryCapacity="232.79" maximumBatteryCapacity="35000.00"/>
            <step time="133.00" chargingStatus="chargingStopped" energyCharged="2.75" partialCharge="209.00" power="11000.00" efficiency="0.90" actualBatteryCapacity="235.54" maximumBatteryCapacity="35000.00"/>
            <step time="134.00" chargingStatus="chargingStopped" energyCharged="2.75" partialCharge="211.75" power="11000.00" efficiency="0.90" actualBatteryCapacity="238.29" maximumBatteryCapacity="35000.00"/>
            <step time="135.00" chargingStatus="chargingStopped" energyCharged="2.75" partialCharge="214.50" power="11000.00" efficiency="0.90" actualBatteryCapacity="241.04" maximumBatteryCapacity="35000.00"/>
            <step time="136.00" chargingStatus="chargingStopped" energyCharged="2.75" partialCharge="217.25" power="11000.00" efficiency="0.90" actualBatteryCapacity="243.79" maximumBatteryCapacity="35000.00"/>
            <step time="137.00" chargingStatus="chargingStopped" energyCharged="2.75" partialCharge="220.00" power="11000.00" efficiency="0.90" actualBatteryCapacity="246.54" maximumBatteryCapacity="35000.00"/>
            <step time="138.00" chargingStatus="chargingStopped" energyCharged="2.75" partialCharge="222.75" power="11000.00" efficiency="0.90" actualBatteryCapacity="249.29" maximumBatteryCapacity="35000.00"/>
            <step time="139.00" chargingStatus="chargingStopped" energyCharged="2.75" partialCharge="225.50" power="11000.00" efficiency="0.90" actualBatteryCapacity="252.04" maximumBatteryCapacity="35000.00"/>
            <step time="140.00" chargingStatus="chargingStopped" energyCharged="2.75" partialCharge="228.25" power="11000.00" efficiency="0.90" actualBatteryCapacity="254.79" maximumBatteryCapacity="35000.00"/>
            <step time="141.00" chargingStatus="chargingStopped" energyCharged="2.75" partialCharge="233.75" power="11000.00" efficiency="0.90" actualBatteryCapacity="257.54" maximumBatteryCapacity="35000.00"/>
            <step time="142.00" chargingStatus="chargingStopped" energyCharged="2.75" partialCharge="239.25" power="11000.00" efficiency="0.90" actualBatteryCapacity="260.29" maximumBatteryCapacity="35000.00"/>
            <step time="143.00" chargingStatus="chargingStopped" energyCharged="2.75" partialCharge="244.75" power="11000.00" efficiency="0.90" actualBatteryCapacity="263.04" maximumBatteryCapacity="35000.00"/>
            <step time="144.00" chargingStatus="chargingStopped" energyCharged="2.75" partialCharge="250.25" power="11000.00" efficiency="0.90" actualBatteryCapacity="265.79" maximumBatteryCapacity="35000.00"/>
            <step time="145.00" chargingStatus="chargingStopped" energyCharged="2.75" partialCharge="255.75" power="11000.00" efficiency="0.90" actualBatteryCapacity="268.54" maximumBatteryCapacity="35000.00"/>
            <step time="146.00" chargingStatus="chargingStopped" energyCharged="2.75" partialCharge="261.25" power="11000.00" efficiency="0.90" actualBatteryCapacity="271.29" maximumBatteryCapacity="35000.00"/>
            <step time="147.00" chargingStatus="chargingStopped" energyCharged="2.75" partialCharge="266.75" power="11000.00" efficiency="0.90" actualBatteryCapacity="274.04" maximumBatteryCapacity="35000.00"/>
            <step time="148.00" chargingStatus="chargingStopped" energyCharged="2.75" partialCharge="272.25" power="11000.00" efficiency="0.90" actualBatteryCapacity="276.79" maximumBatteryCapacity="35000.00"/>
            <step time="149.00" chargingStatus="chargingStopped" energyCharged="2.75" partialCharge="277.75" power="11000.00" efficiency="0.90" actualBatteryCapacity="279.54" maximumBatteryCapacity="35000.00"/>
            <step time="150.00" chargingStatus="chargingStopped" energyCharged="2.75" partialCharge="283.25" power="11000.00" efficiency="0.90" actualBatteryCapacity="282.29" maximumBatteryCapacity="35000.00"/>
            <step time="151.00" chargingStatus="chargingStopped" energyCharged="2.75" partialCharge="288.75" power="11000.00" efficiency="0.90" actualBatteryCapacity="285.04" maximumBatteryCapacity="35000.00"/>
            <step time="152.00" chargingStatus="chargingStopped" energyCharged="2.75" partialCharge="294.25" power="11000.00" efficiency="0.90" actualBatteryCapacity="287.79" maximumBatteryCapacity="35000.00"/>
            <step time="153.00" chargingStatus="chargingStopped" energyCharged="2.75" partialCharge="299.75" power="11000.00" efficiency="0.90" actualBatteryCapacity="290.54" maximumBatteryCapacity="35000.00"/>
            <step time="154.00" chargingStatus="chargingStopped" energyCharged="2.75" partialCharge="305.25" power="11000.00" efficiency="0.90" actualBatteryCapacity="293.29" maximumBatteryCapacity="35000.00"/>
            <step time="155.00" chargingStatus="chargingStopped" energyCharged="2.75" partialCharge="310.75" power="11000.00" efficiency="0.90" actualBatteryCapacity="296.04" maximumBatteryCapacity="35000.00"/>
            <step time="156.00" chargingStatus="chargingStopped" energyCharged="2.75" partialCharge="316.25" power="11000.00" efficiency="0.90" actualBatteryCapacity="298.79" maximumBatteryCapacity="35000.00"/>
            <step time="157.00" chargingStatus="chargingStopped" energyCharged="2.75" partialCharge="321.75" power="11000.00" efficiency="0.90" actualBatteryCapacity="301.54" maximumBatteryCapacity="35000.00"/>
            <step time="158.00" chargingStatus="chargingStopped" energyCharged="2.75" partialCharge="327.25" power="11000.00" efficiency="0.90" actualBatteryCapacity="304.29" maximumBatteryCapacity="35000.00"/>
            <step time="159.00" chargingStatus="chargingStopped" energyCharged="2.75" partialCharge="332.75" power="11000.00" efficiency="0.90" actualBatteryCapacity="307.04" maximumBatteryCapacity="35000.00"/>
            <step time="160.00" chargingStatus="chargingStopped" energyCharged="2.75" partialCharge="338.25" power="11000.00" efficiency="0.90" actualBatteryCapacity="309.79" maximumBatteryCapacity="35000.00"/>
            <step time="161.00" chargingStatus="chargingStopped" energyCharged="2.75" partialCharge="343.75" power="11000.00" efficiency="0.90" actualBatteryCapacity="312.54" maximumBatteryCapacity="35000.00"/>
            <step time="162.00" chargingStatus="chargingStopped" energyCharged="2.75" partialCharge="349.25" power="11000.00" efficiency="0.90" actualBatteryCapacity="315.29" maximumBatteryCapacity="35000.00"/>
            <step time="163.00" chargingStatus="chargingStopped" energyCharged="2.75" partialCharge="354.75" power="11000.00" efficiency="0.90" actualBatteryCapacity="318.04" maximumBatteryCapacity="35000.00"/>
            <step time="164.00" chargingStatus="chargingStopped" energyCharged="2.75" partialCharge="360.25" power="11000.00" efficiency="0.90" actualBatteryCapacity="320.79" maximumBatteryCapacity="35000.00"/>
            <step time="165.00" chargingStatus="chargingStopped" energyCharged="2.75" partialCharge="365.75" power="11000.00" efficiency="0.90" actualBatteryCapacity="323.54" maximumBatteryCapacity="35000.00"/>
            <step time="166.00" chargingStatus="chargingStopped" energyCharged="2.75" partialCharge="371.25" power="11000.00" efficiency="0.90" actualBatteryCapacity="326.29" maximumBatteryCapacity="35000.00"/>
            <step time="167.00" chargingStatus="chargingStopped" energyCharged="2.75" partialCharge="376.75" power="11000.00" efficiency="0.90" actualBatteryCapacity="329.04" maximumBatteryCapacity="35000.00"/>
            <step time="168.00" chargingStatus="chargingStopped" energyCharged="2.75" partialCharge="382.25" power="11000.00" efficiency="0.90" actualBatteryCapacity="331.79" maximumBatteryCapacity="35000.00"/>
            <step time="169.00" chargingStatus="chargingStopped" energyCharged="2.75" partialCharge="387.75" power="11000.00" efficiency="0.90" actualBatteryCapacity="334.54" maximumBatteryCapacity="35000.00"/>
            <step time="170.00" chargingStatus="chargingStopped" energyCharged="2.75" partialCharge="393.25" power="11000.00" efficiency="0.90" actualBatteryCapacity="337.29" maximumBatteryCapacity="35000.00"/>
            <step time="171.00" chargingStatus="chargingStopped" energyCharged="2.75" partialCharge="398.75" power="11000.00" efficiency="0.90" actualBatteryCapacity="340.04" maximumBatteryCapacity="35000.00"/>
            <step time="172.00" chargingStatus="chargingStopped" energyCharged="2.75" partialCharge="404.25" power="11000.00" efficiency="0.90" actualBatteryCapacity="342.79" maximumBatteryCapacity="35000.00"/>
            <step time="173.00" chargingStatus="chargingStopped" energyCharged="2.75" partialCharge="409.75" power="11000.00" efficiency="0.90" actualBatteryCapacity="345.54" maximumBatteryCapacity="35000.00"/>
            <step time="174.00" chargingStatus="chargingStopped" energyCharged="2.75" partialCharge="415.25" power="11000.00" efficiency="0.90" actualBatteryCapacity="348.29" maximumBatteryCapacity="35000.00"/>
            <step time="175.00" chargingStatus="chargingStopped" energyCharged="2.75" partialCharge="420.75" power="11000.00" efficiency="0.90" actualBatteryCapacity="351.04" maximumBatteryCapacity="35000.00"/>
            <step time="176.00" chargingStatus="chargingStopped" energyCharged="2.75" partialCharge="426.25" power="11000.00" efficiency="0.90" actualBatteryCapacity="353.79" maximumBatteryCapacity="35000.00"/>
            <step time="177.00" chargingStatus="chargingStopped" energyCharged="2.75" partialCharge="431.75" power="11000.00" efficiency="0.90" actualBatteryCapacity="356.54" maximumBatteryCapacity="35000.00"/>
            <step time="178.00" chargingStatus="chargingStopped" energyCharged="2.75" partialCharge="437.25" power="11000.00" efficiency="0.90" actualBatteryCapacity="359.29" maximumBatteryCapacity="35000.00"/>
            <step time="179.00" chargingStatus="chargingStopped" energyCharged="2.75" partialCharge="442.75" power="11000.00" efficiency="0.90" actualBatteryCapacity="362.04" maximumBatteryCapacity="35000.00"/>
            <step time="180.00" chargingStatus="chargingStopped" energyCharged="2.75" partialCharge="448.25" power="11000.00" efficiency="0.90" actualBatteryCapacity="364.79" maximumBatteryCapacity="35000.00"/>
            <step time="181.00" chargingStatus="chargingStopped" energyCharged="2.75" partialCharge="453.75" power="11000.00" efficiency="0.90" actualBatteryCapacity="367.54" maximumBatteryCapacity="35000.00"/>
            <step time="182.00" chargingStatus="chargingStopped" energyCharged="2.75" partialCharge="459.25" power="11000.00" efficiency="0.90" actualBatteryCapacity="370.29" maximumBatteryCapacity="35000.00"/>
            <step time="183.00" chargingStatus="chargingStopped" energyCharged="2.75" partialCharge="464.75" power="11000.00" efficiency="0.90" actualBatteryCapacity="373.04" maximumBatteryCapacity="35000.00"/>
            <step time="184.00" chargingStatus="chargingStopped" energyCharged="2.75" partialCharge="470.25" power="11000.00" efficiency="0.90" actualBatteryCapacity="375.79" maximumBatteryCapacity="35000.00"/>
            <step time="185.00" chargingStatus="chargingStopped" energyCharged="2.75" partialCharge="475.75" power="11000.00" efficiency="0.90" actualBatteryCapacity="378.54" maximumBatteryCapacity="35000.00"/>
            <step time="186.00" chargingStatus="chargingStopped" energyCharged="2.75" partialCharge="481.25" power="11000.00" efficiency="0.90" actualBatteryCapacity="381.29" maximumBatteryCapacity="35000.00"/>
            <step time="187.00" chargingStatus="chargingStopped" energyCharged="2.75" partialCharge="486.75" power="11000.00" efficiency="0.90" actualBatteryCapacity="384.04" maximumBatteryCapacity="35000.00"/>
            <step time="188.00" chargingStatus="chargingStopped" energyCharged="2.75" partialCharge="492.25" power="11000.00" efficiency="0.90" actualBatteryCapacity="386.79" maximumBatteryCapacity="35000.00"/>
            <step time="189.00" chargingStatus="chargingStopped" energyCharged="2.75" partialCharge="497.75" power="11000.00" efficiency="0.90" actualBatteryCapacity="389.54" maximumBatteryCapacity="35000.00"/>
            <step time="190.00" chargingStatus="chargingStopped" energyCharged="2.75" partialCharge="503.25" power="11000.00" efficiency="0.90" actualBatteryCapacity="392.29" maximumBatteryCapacity="35000.00"/>