<?xml version="1.0" encoding="UTF-8"?>

<!-- generated on 07/20/19 17:59:41 by Eclipse SUMO duarouter Version v1_2_0+1265-e74cb0958b
<configuration xmlns:xsi="http://www.w3.org/2001/XMLSchema-instance" xsi:noNamespaceSchemaLocation="http://sumo.dlr.de/xsd/duarouterConfiguration.xsd">

    <input>
        <net-file value="03_input.net.xml"/>
        <additional-files value="05_input_taz.xml"/>
        <route-files value="04_input_flow.xml"/>
    </input>

    <output>
        <output-file value="07_output_routes.xml"/>
        <alternatives-output value="07_output_routes.alt.xml"/>
    </output>

    <processing>
        <randomize-flows value="true"/>
        <with-taz value="true"/>
    </processing>

</configuration>
-->

<routes xmlns:xsi="http://www.w3.org/2001/XMLSchema-instance" xsi:noNamespaceSchemaLocation="http://sumo.dlr.de/xsd/routes_file.xsd">
    <vType id="DEFAULT_VEHTYPE" speedFactor="normc(1.00,0.10,0.20,2.00)">
        <param key="device.ssm.extratime" value="5.0"/>
        <param key="device.ssm.file" value="ssm.xml"/>
        <param key="device.ssm.geo" value="true"/>
        <param key="device.ssm.measures" value="TTC DRAC PET"/>
        <param key="device.ssm.range" value="50.0"/>
        <param key="device.ssm.thresholds" value="3.0 3.0 10.0"/>
        <param key="device.ssm.trajectories" value="false"/>
        <param key="has.ssm.device" value="true"/>
    </vType>
    <vehicle id="flow_0.0" depart="0.79">
        <route edges="Link2 Link3 Link4"/>
    </vehicle>
    <vehicle id="flow_1.0" depart="1.84">
        <route edges="Link24 Link25 Link43"/>
    </vehicle>
    <vehicle id="flow_0.1" depart="2.36">
        <route edges="Link2 Link3 Link4"/>
    </vehicle>
    <vehicle id="flow_0.2" depart="2.75">
        <route edges="Link2 Link3 Link4"/>
    </vehicle>
    <vehicle id="flow_0.3" depart="2.83">
        <route edges="Link2 Link3 Link4"/>
    </vehicle>
    <vehicle id="flow_1.1" depart="3.08">
        <route edges="Link24 Link25 Link43"/>
    </vehicle>
    <vehicle id="flow_0.4" depart="4.77">
        <route edges="Link2 Link3 Link4"/>
    </vehicle>
    <vehicle id="flow_0.5" depart="6.14">
        <route edges="Link2 Link3 Link4"/>
    </vehicle>
    <vehicle id="flow_0.6" depart="8.55">
        <route edges="Link2 Link3 Link4"/>
    </vehicle>
    <vehicle id="flow_0.7" depart="8.91">
        <route edges="Link2 Link3 Link4"/>
    </vehicle>
    <vehicle id="flow_0.8" depart="9.74">
        <route edges="Link2 Link3 Link4"/>
    </vehicle>
    <vehicle id="flow_0.9" depart="11.12">
        <route edges="Link2 Link3 Link4"/>
    </vehicle>
    <vehicle id="flow_1.2" depart="12.32">
        <route edges="Link24 Link25 Link43"/>
    </vehicle>
    <vehicle id="flow_0.10" depart="12.93">
        <route edges="Link2 Link3 Link4"/>
    </vehicle>
    <vehicle id="flow_0.11" depart="13.05">
        <route edges="Link2 Link3 Link4"/>
    </vehicle>
    <vehicle id="flow_0.12" depart="13.56">
        <route edges="Link2 Link3 Link4"/>
    </vehicle>
    <vehicle id="flow_0.13" depart="16.72">
        <route edges="Link2 Link3 Link4"/>
    </vehicle>
    <vehicle id="flow_0.14" depart="17.15">
        <route edges="Link2 Link3 Link4"/>
    </vehicle>
    <vehicle id="flow_0.15" depart="18.13">
        <route edges="Link2 Link3 Link4"/>
    </vehicle>
    <vehicle id="flow_0.16" depart="18.39">
        <route edges="Link2 Link3 Link4"/>
    </vehicle>
    <vehicle id="flow_1.3" depart="18.97">
        <route edges="Link24 Link25 Link43"/>
    </vehicle>
    <vehicle id="flow_0.17" depart="19.61">
        <route edges="Link2 Link3 Link4"/>
    </vehicle>
    <vehicle id="flow_1.4" depart="19.77">
        <route edges="Link24 Link25 Link43"/>
    </vehicle>
    <vehicle id="flow_0.18" depart="20.23">
        <route edges="Link2 Link3 Link4"/>
    </vehicle>
    <vehicle id="flow_0.19" depart="20.98">
        <route edges="Link2 Link3 Link4"/>
    </vehicle>
    <vehicle id="flow_1.5" depart="22.28">
        <route edges="Link24 Link25 Link43"/>
    </vehicle>
    <vehicle id="flow_0.20" depart="22.71">
        <route edges="Link2 Link3 Link4"/>
    </vehicle>
    <vehicle id="flow_0.21" depart="23.05">
        <route edges="Link2 Link3 Link4"/>
    </vehicle>
    <vehicle id="flow_1.6" depart="23.89">
        <route edges="Link24 Link25 Link43"/>
    </vehicle>
    <vehicle id="flow_0.22" depart="24.98">
        <route edges="Link2 Link3 Link4"/>
    </vehicle>
    <vehicle id="flow_0.23" depart="26.51">
        <route edges="Link2 Link3 Link4"/>
    </vehicle>
    <vehicle id="flow_1.7" depart="26.98">
        <route edges="Link24 Link25 Link43"/>
    </vehicle>
    <vehicle id="flow_0.24" depart="27.48">
        <route edges="Link2 Link3 Link4"/>
    </vehicle>
    <vehicle id="flow_1.8" depart="29.15">
        <route edges="Link24 Link25 Link43"/>
    </vehicle>
    <vehicle id="flow_1.9" depart="29.50">
        <route edges="Link24 Link25 Link43"/>
    </vehicle>
    <vehicle id="flow_1.10" depart="33.54">
        <route edges="Link24 Link25 Link43"/>
    </vehicle>
    <vehicle id="flow_1.11" depart="35.56">
        <route edges="Link24 Link25 Link43"/>
    </vehicle>
    <vehicle id="flow_1.12" depart="35.70">
        <route edges="Link24 Link25 Link43"/>
    </vehicle>
    <vehicle id="flow_1.13" depart="36.35">
        <route edges="Link24 Link25 Link43"/>
    </vehicle>
    <vehicle id="flow_1.14" depart="36.64">
        <route edges="Link24 Link25 Link43"/>
    </vehicle>
    <vehicle id="flow_0.25" depart="36.86">
        <route edges="Link2 Link3 Link4"/>
    </vehicle>
    <vehicle id="flow_0.26" depart="37.70">
        <route edges="Link2 Link3 Link4"/>
    </vehicle>
    <vehicle id="flow_0.27" depart="37.74">
        <route edges="Link2 Link3 Link4"/>
    </vehicle>
    <vehicle id="flow_1.15" depart="38.97">
        <route edges="Link24 Link25 Link43"/>
    </vehicle>
    <vehicle id="flow_0.28" depart="39.03">
        <route edges="Link2 Link3 Link4"/>
    </vehicle>
    <vehicle id="flow_1.16" depart="39.29">
        <route edges="Link24 Link25 Link43"/>
    </vehicle>
    <vehicle id="flow_1.17" depart="40.97">
        <route edges="Link24 Link25 Link43"/>
    </vehicle>
    <vehicle id="flow_1.18" depart="44.80">
        <route edges="Link24 Link25 Link43"/>
    </vehicle>
    <vehicle id="flow_0.29" depart="46.90">
        <route edges="Link2 Link3 Link4"/>
    </vehicle>
    <vehicle id="flow_0.30" depart="47.01">
        <route edges="Link2 Link3 Link4"/>
    </vehicle>
    <vehicle id="flow_1.19" depart="47.16">
        <route edges="Link24 Link25 Link43"/>
    </vehicle>
    <vehicle id="flow_1.20" depart="47.95">
        <route edges="Link24 Link25 Link43"/>
    </vehicle>
    <vehicle id="flow_1.21" depart="48.37">
        <route edges="Link24 Link25 Link43"/>
    </vehicle>
    <vehicle id="flow_1.22" depart="49.05">
        <route edges="Link24 Link25 Link43"/>
    </vehicle>
    <vehicle id="flow_0.31" depart="50.60">
        <route edges="Link2 Link3 Link4"/>
    </vehicle>
    <vehicle id="flow_0.32" depart="52.47">
        <route edges="Link2 Link3 Link4"/>
    </vehicle>
    <vehicle id="flow_1.23" depart="52.49">
        <route edges="Link24 Link25 Link43"/>
    </vehicle>
    <vehicle id="flow_0.33" depart="53.69">
        <route edges="Link2 Link3 Link4"/>
    </vehicle>
    <vehicle id="flow_0.34" depart="54.47">
        <route edges="Link2 Link3 Link4"/>
    </vehicle>
    <vehicle id="flow_0.35" depart="55.65">
        <route edges="Link2 Link3 Link4"/>
    </vehicle>
    <vehicle id="flow_0.36" depart="56.51">
        <route edges="Link2 Link3 Link4"/>
    </vehicle>
    <vehicle id="flow_1.24" depart="57.01">
        <route edges="Link24 Link25 Link43"/>
    </vehicle>
    <vehicle id="flow_1.25" depart="57.42">
        <route edges="Link24 Link25 Link43"/>
    </vehicle>
    <vehicle id="flow_0.37" depart="57.85">
        <route edges="Link2 Link3 Link4"/>
    </vehicle>
    <vehicle id="flow_1.26" depart="58.02">
        <route edges="Link24 Link25 Link43"/>
    </vehicle>
    <vehicle id="flow_0.38" depart="58.23">
        <route edges="Link2 Link3 Link4"/>
    </vehicle>
    <vehicle id="flow_1.27" depart="59.07">
        <route edges="Link24 Link25 Link43"/>
    </vehicle>
    <vehicle id="flow_1.28" depart="60.19">
        <route edges="Link24 Link25 Link43"/>
    </vehicle>
    <vehicle id="flow_1.29" depart="62.23">
        <route edges="Link24 Link25 Link43"/>
    </vehicle>
    <vehicle id="flow_1.30" depart="62.26">
        <route edges="Link24 Link25 Link43"/>
    </vehicle>
    <vehicle id="flow_1.31" depart="62.37">
        <route edges="Link24 Link25 Link43"/>
    </vehicle>
    <vehicle id="flow_1.32" depart="63.18">
        <route edges="Link24 Link25 Link43"/>
    </vehicle>
    <vehicle id="flow_1.33" depart="63.32">
        <route edges="Link24 Link25 Link43"/>
    </vehicle>
    <vehicle id="flow_0.39" depart="64.90">
        <route edges="Link2 Link3 Link4"/>
    </vehicle>
    <vehicle id="flow_1.34" depart="67.30">
        <route edges="Link24 Link25 Link43"/>
    </vehicle>
    <vehicle id="flow_0.40" depart="70.25">
        <route edges="Link2 Link3 Link4"/>
    </vehicle>
    <vehicle id="flow_0.41" depart="70.72">
        <route edges="Link2 Link3 Link4"/>
    </vehicle>
    <vehicle id="flow_1.35" depart="72.86">
        <route edges="Link24 Link25 Link43"/>
    </vehicle>
    <vehicle id="flow_0.42" depart="73.98">
        <route edges="Link2 Link3 Link4"/>
    </vehicle>
    <vehicle id="flow_1.36" depart="75.16">
        <route edges="Link24 Link25 Link43"/>
    </vehicle>
    <vehicle id="flow_1.37" depart="76.05">
        <route edges="Link24 Link25 Link43"/>
    </vehicle>
    <vehicle id="flow_0.43" depart="76.76">
        <route edges="Link2 Link3 Link4"/>
    </vehicle>
    <vehicle id="flow_1.38" depart="76.97">
        <route edges="Link24 Link25 Link43"/>
    </vehicle>
    <vehicle id="flow_0.44" depart="77.89">
        <route edges="Link2 Link3 Link4"/>
    </vehicle>
    <vehicle id="flow_1.39" depart="79.47">
        <route edges="Link24 Link25 Link43"/>
    </vehicle>
    <vehicle id="flow_0.45" depart="79.84">
        <route edges="Link2 Link3 Link4"/>
    </vehicle>
    <vehicle id="flow_0.46" depart="80.11">
        <route edges="Link2 Link3 Link4"/>
    </vehicle>
    <vehicle id="flow_0.47" depart="81.63">
        <route edges="Link2 Link3 Link4"/>
    </vehicle>
    <vehicle id="flow_0.48" depart="82.30">
        <route edges="Link2 Link3 Link4"/>
    </vehicle>
    <vehicle id="flow_1.40" depart="88.31">
        <route edges="Link24 Link25 Link43"/>
    </vehicle>
    <vehicle id="flow_0.49" depart="88.60">
        <route edges="Link2 Link3 Link4"/>
    </vehicle>
    <vehicle id="flow_1.41" depart="88.88">
        <route edges="Link24 Link25 Link43"/>
    </vehicle>
    <vehicle id="flow_1.42" depart="89.14">
        <route edges="Link24 Link25 Link43"/>
    </vehicle>
    <vehicle id="flow_1.43" depart="89.32">
        <route edges="Link24 Link25 Link43"/>
    </vehicle>
    <vehicle id="flow_0.50" depart="89.59">
        <route edges="Link2 Link3 Link4"/>
    </vehicle>
    <vehicle id="flow_0.51" depart="89.91">
        <route edges="Link2 Link3 Link4"/>
    </vehicle>
    <vehicle id="flow_1.44" depart="89.96">
        <route edges="Link24 Link25 Link43"/>
    </vehicle>
    <vehicle id="flow_0.52" depart="90.56">
        <route edges="Link2 Link3 Link4"/>
    </vehicle>
    <vehicle id="flow_0.53" depart="91.39">
        <route edges="Link2 Link3 Link4"/>
    </vehicle>
    <vehicle id="flow_1.45" depart="92.51">
        <route edges="Link24 Link25 Link43"/>
    </vehicle>
    <vehicle id="flow_1.46" depart="94.44">
        <route edges="Link24 Link25 Link43"/>
    </vehicle>
    <vehicle id="flow_0.54" depart="94.83">
        <route edges="Link2 Link3 Link4"/>
    </vehicle>
    <vehicle id="flow_1.47" depart="95.19">
        <route edges="Link24 Link25 Link43"/>
    </vehicle>
    <vehicle id="flow_1.48" depart="95.90">
        <route edges="Link24 Link25 Link43"/>
    </vehicle>
    <vehicle id="flow_1.49" depart="96.84">
        <route edges="Link24 Link25 Link43"/>
    </vehicle>
    <vehicle id="flow_1.50" depart="97.59">
        <route edges="Link24 Link25 Link43"/>
    </vehicle>
    <vehicle id="flow_1.51" depart="98.80">
        <route edges="Link24 Link25 Link43"/>
    </vehicle>
    <vehicle id="flow_1.52" depart="100.45">
        <route edges="Link24 Link25 Link43"/>
    </vehicle>
    <vehicle id="flow_0.55" depart="100.63">
        <route edges="Link2 Link3 Link4"/>
    </vehicle>
    <vehicle id="flow_1.53" depart="101.08">
        <route edges="Link24 Link25 Link43"/>
    </vehicle>
    <vehicle id="flow_0.56" depart="101.43">
        <route edges="Link2 Link3 Link4"/>
    </vehicle>
    <vehicle id="flow_1.54" depart="102.58">
        <route edges="Link24 Link25 Link43"/>
    </vehicle>
    <vehicle id="flow_1.55" depart="102.91">
        <route edges="Link24 Link25 Link43"/>
    </vehicle>
    <vehicle id="flow_1.56" depart="104.56">
        <route edges="Link24 Link25 Link43"/>
    </vehicle>
    <vehicle id="flow_1.57" depart="104.65">
        <route edges="Link24 Link25 Link43"/>
    </vehicle>
    <vehicle id="flow_0.57" depart="105.18">
        <route edges="Link2 Link3 Link4"/>
    </vehicle>
    <vehicle id="flow_0.58" depart="106.94">
        <route edges="Link2 Link3 Link4"/>
    </vehicle>
    <vehicle id="flow_0.59" depart="107.79">
        <route edges="Link2 Link3 Link4"/>
    </vehicle>
    <vehicle id="flow_0.60" depart="107.93">
        <route edges="Link2 Link3 Link4"/>
    </vehicle>
    <vehicle id="flow_1.58" depart="108.25">
        <route edges="Link24 Link25 Link43"/>
    </vehicle>
    <vehicle id="flow_0.61" depart="108.52">
        <route edges="Link2 Link3 Link4"/>
    </vehicle>
    <vehicle id="flow_1.59" depart="108.86">
        <route edges="Link24 Link25 Link43"/>
    </vehicle>
    <vehicle id="flow_0.62" depart="109.27">
        <route edges="Link2 Link3 Link4"/>
    </vehicle>
    <vehicle id="flow_1.60" depart="110.09">
        <route edges="Link24 Link25 Link43"/>
    </vehicle>
    <vehicle id="flow_0.63" depart="111.65">
        <route edges="Link2 Link3 Link4"/>
    </vehicle>
    <vehicle id="flow_1.61" depart="114.32">
        <route edges="Link24 Link25 Link43"/>
    </vehicle>
    <vehicle id="flow_0.64" depart="114.89">
        <route edges="Link2 Link3 Link4"/>
    </vehicle>
    <vehicle id="flow_0.65" depart="116.59">
        <route edges="Link2 Link3 Link4"/>
    </vehicle>
    <vehicle id="flow_1.62" depart="120.35">
        <route edges="Link24 Link25 Link43"/>
    </vehicle>
    <vehicle id="flow_1.63" depart="120.70">
        <route edges="Link24 Link25 Link43"/>
    </vehicle>
    <vehicle id="flow_0.66" depart="121.78">
        <route edges="Link2 Link3 Link4"/>
    </vehicle>
    <vehicle id="flow_1.64" depart="121.86">
        <route edges="Link24 Link25 Link43"/>
    </vehicle>
    <vehicle id="flow_1.65" depart="122.49">
        <route edges="Link24 Link25 Link43"/>
    </vehicle>
    <vehicle id="flow_0.67" depart="122.68">
        <route edges="Link2 Link3 Link4"/>
    </vehicle>
    <vehicle id="flow_1.66" depart="122.89">
        <route edges="Link24 Link25 Link43"/>
    </vehicle>
    <vehicle id="flow_1.67" depart="123.04">
        <route edges="Link24 Link25 Link43"/>
    </vehicle>
    <vehicle id="flow_1.68" depart="123.30">
        <route edges="Link24 Link25 Link43"/>
    </vehicle>
    <vehicle id="flow_1.69" depart="125.00">
        <route edges="Link24 Link25 Link43"/>
    </vehicle>
    <vehicle id="flow_1.70" depart="126.51">
        <route edges="Link24 Link25 Link43"/>
    </vehicle>
    <vehicle id="flow_1.71" depart="127.28">
        <route edges="Link24 Link25 Link43"/>
    </vehicle>
    <vehicle id="flow_1.72" depart="127.64">
        <route edges="Link24 Link25 Link43"/>
    </vehicle>
    <vehicle id="flow_0.68" depart="128.34">
        <route edges="Link2 Link3 Link4"/>
    </vehicle>
    <vehicle id="flow_0.69" depart="128.54">
        <route edges="Link2 Link3 Link4"/>
    </vehicle>
    <vehicle id="flow_0.70" depart="130.11">
        <route edges="Link2 Link3 Link4"/>
    </vehicle>
    <vehicle id="flow_0.71" depart="132.34">
        <route edges="Link2 Link3 Link4"/>
    </vehicle>
    <vehicle id="flow_1.73" depart="135.94">
        <route edges="Link24 Link25 Link43"/>
    </vehicle>
    <vehicle id="flow_0.72" depart="136.66">
        <route edges="Link2 Link3 Link4"/>
    </vehicle>
    <vehicle id="flow_1.74" depart="138.74">
        <route edges="Link24 Link25 Link43"/>
    </vehicle>
    <vehicle id="flow_1.75" depart="138.85">
        <route edges="Link24 Link25 Link43"/>
    </vehicle>
    <vehicle id="flow_0.73" depart="139.18">
        <route edges="Link2 Link3 Link4"/>
    </vehicle>
    <vehicle id="flow_1.76" depart="141.40">
        <route edges="Link24 Link25 Link43"/>
    </vehicle>
    <vehicle id="flow_0.74" depart="142.85">
        <route edges="Link2 Link3 Link4"/>
    </vehicle>
    <vehicle id="flow_0.75" depart="143.12">
        <route edges="Link2 Link3 Link4"/>
    </vehicle>
    <vehicle id="flow_0.76" depart="145.86">
        <route edges="Link2 Link3 Link4"/>
    </vehicle>
    <vehicle id="flow_0.77" depart="146.94">
        <route edges="Link2 Link3 Link4"/>
    </vehicle>
    <vehicle id="flow_0.78" depart="148.98">
        <route edges="Link2 Link3 Link4"/>
    </vehicle>
    <vehicle id="flow_0.79" depart="149.02">
        <route edges="Link2 Link3 Link4"/>
    </vehicle>
    <vehicle id="flow_0.80" depart="149.63">
        <route edges="Link2 Link3 Link4"/>
    </vehicle>
    <vehicle id="flow_1.77" depart="149.69">
        <route edges="Link24 Link25 Link43"/>
    </vehicle>
    <vehicle id="flow_0.81" depart="150.40">
        <route edges="Link2 Link3 Link4"/>
    </vehicle>
    <vehicle id="flow_0.82" depart="150.67">
        <route edges="Link2 Link3 Link4"/>
    </vehicle>
    <vehicle id="flow_1.78" depart="150.91">
        <route edges="Link24 Link25 Link43"/>
    </vehicle>
    <vehicle id="flow_1.79" depart="151.64">
        <route edges="Link24 Link25 Link43"/>
    </vehicle>
    <vehicle id="flow_0.83" depart="153.28">
        <route edges="Link2 Link3 Link4"/>
    </vehicle>
    <vehicle id="flow_0.84" depart="153.62">
        <route edges="Link2 Link3 Link4"/>
    </vehicle>
    <vehicle id="flow_1.80" depart="155.83">
        <route edges="Link24 Link25 Link43"/>
    </vehicle>
    <vehicle id="flow_0.85" depart="158.69">
        <route edges="Link2 Link3 Link4"/>
    </vehicle>
    <vehicle id="flow_0.86" depart="159.54">
        <route edges="Link2 Link3 Link4"/>
    </vehicle>
    <vehicle id="flow_1.81" depart="161.14">
        <route edges="Link24 Link25 Link43"/>
    </vehicle>
    <vehicle id="flow_1.82" depart="161.60">
        <route edges="Link24 Link25 Link43"/>
    </vehicle>
    <vehicle id="flow_1.83" depart="161.76">
        <route edges="Link24 Link25 Link43"/>
    </vehicle>
    <vehicle id="flow_1.84" depart="162.12">
        <route edges="Link24 Link25 Link43"/>
    </vehicle>
    <vehicle id="flow_0.87" depart="163.02">
        <route edges="Link2 Link3 Link4"/>
    </vehicle>
    <vehicle id="flow_0.88" depart="167.76">
        <route edges="Link2 Link3 Link4"/>
    </vehicle>
    <vehicle id="flow_0.89" depart="168.38">
        <route edges="Link2 Link3 Link4"/>
    </vehicle>
    <vehicle id="flow_0.90" depart="169.47">
        <route edges="Link2 Link3 Link4"/>
    </vehicle>
    <vehicle id="flow_0.91" depart="169.75">
        <route edges="Link2 Link3 Link4"/>
    </vehicle>
    <vehicle id="flow_0.92" depart="170.05">
        <route edges="Link2 Link3 Link4"/>
    </vehicle>
    <vehicle id="flow_1.85" depart="170.36">
        <route edges="Link24 Link25 Link43"/>
    </vehicle>
    <vehicle id="flow_0.93" depart="171.44">
        <route edges="Link2 Link3 Link4"/>
    </vehicle>
    <vehicle id="flow_1.86" depart="172.67">
        <route edges="Link24 Link25 Link43"/>
    </vehicle>
    <vehicle id="flow_1.87" depart="179.28">
        <route edges="Link24 Link25 Link43"/>
    </vehicle>
    <vehicle id="flow_0.94" depart="179.52">
        <route edges="Link2 Link3 Link4"/>
    </vehicle>
    <vehicle id="flow_0.95" depart="181.60">
        <route edges="Link2 Link3 Link4"/>
    </vehicle>
    <vehicle id="flow_0.96" depart="182.42">
        <route edges="Link2 Link3 Link4"/>
    </vehicle>
    <vehicle id="flow_1.88" depart="185.27">
        <route edges="Link24 Link25 Link43"/>
    </vehicle>
    <vehicle id="flow_0.97" depart="186.01">
        <route edges="Link2 Link3 Link4"/>
    </vehicle>
    <vehicle id="flow_1.89" depart="186.07">
        <route edges="Link24 Link25 Link43"/>
    </vehicle>
    <vehicle id="flow_1.90" depart="186.49">
        <route edges="Link24 Link25 Link43"/>
    </vehicle>
    <vehicle id="flow_0.98" depart="187.53">
        <route edges="Link2 Link3 Link4"/>
    </vehicle>
    <vehicle id="flow_1.91" depart="187.95">
        <route edges="Link24 Link25 Link43"/>
    </vehicle>
    <vehicle id="flow_0.99" depart="188.13">
        <route edges="Link2 Link3 Link4"/>
    </vehicle>
    <vehicle id="flow_0.100" depart="188.21">
        <route edges="Link2 Link3 Link4"/>
    </vehicle>
    <vehicle id="flow_0.101" depart="188.24">
        <route edges="Link2 Link3 Link4"/>
    </vehicle>
    <vehicle id="flow_0.102" depart="189.20">
        <route edges="Link2 Link3 Link4"/>
    </vehicle>
    <vehicle id="flow_0.103" depart="189.34">
        <route edges="Link2 Link3 Link4"/>
    </vehicle>
    <vehicle id="flow_0.104" depart="191.24">
        <route edges="Link2 Link3 Link4"/>
    </vehicle>
    <vehicle id="flow_0.105" depart="196.41">
        <route edges="Link2 Link3 Link4"/>
    </vehicle>
    <vehicle id="flow_1.92" depart="196.78">
        <route edges="Link24 Link25 Link43"/>
    </vehicle>
    <vehicle id="flow_1.93" depart="199.14">
        <route edges="Link24 Link25 Link43"/>
    </vehicle>
    <vehicle id="flow_1.94" depart="200.03">
        <route edges="Link24 Link25 Link43"/>
    </vehicle>
    <vehicle id="flow_1.95" depart="200.40">
        <route edges="Link24 Link25 Link43"/>
    </vehicle>
    <vehicle id="flow_0.106" depart="200.43">
        <route edges="Link2 Link3 Link4"/>
    </vehicle>
    <vehicle id="flow_0.107" depart="201.49">
        <route edges="Link2 Link3 Link4"/>
    </vehicle>
    <vehicle id="flow_0.108" depart="201.67">
        <route edges="Link2 Link3 Link4"/>
    </vehicle>
    <vehicle id="flow_0.109" depart="202.67">
        <route edges="Link2 Link3 Link4"/>
    </vehicle>
    <vehicle id="flow_0.110" depart="202.94">
        <route edges="Link2 Link3 Link4"/>
    </vehicle>
    <vehicle id="flow_0.111" depart="204.30">
        <route edges="Link2 Link3 Link4"/>
    </vehicle>
    <vehicle id="flow_1.96" depart="205.73">
        <route edges="Link24 Link25 Link43"/>
    </vehicle>
    <vehicle id="flow_1.97" depart="206.85">
        <route edges="Link24 Link25 Link43"/>
    </vehicle>
    <vehicle id="flow_1.98" depart="207.56">
        <route edges="Link24 Link25 Link43"/>
    </vehicle>
    <vehicle id="flow_0.112" depart="207.58">
        <route edges="Link2 Link3 Link4"/>
    </vehicle>
    <vehicle id="flow_0.113" depart="207.72">
        <route edges="Link2 Link3 Link4"/>
    </vehicle>
    <vehicle id="flow_0.114" depart="208.04">
        <route edges="Link2 Link3 Link4"/>
    </vehicle>
    <vehicle id="flow_0.115" depart="209.51">
        <route edges="Link2 Link3 Link4"/>
    </vehicle>
    <vehicle id="flow_0.116" depart="210.76">
        <route edges="Link2 Link3 Link4"/>
    </vehicle>
    <vehicle id="flow_0.117" depart="211.05">
        <route edges="Link2 Link3 Link4"/>
    </vehicle>
    <vehicle id="flow_1.99" depart="211.58">
        <route edges="Link24 Link25 Link43"/>
    </vehicle>
    <vehicle id="flow_1.100" depart="211.69">
        <route edges="Link24 Link25 Link43"/>
    </vehicle>
    <vehicle id="flow_0.118" depart="212.57">
        <route edges="Link2 Link3 Link4"/>
    </vehicle>
    <vehicle id="flow_0.119" depart="214.16">
        <route edges="Link2 Link3 Link4"/>
    </vehicle>
    <vehicle id="flow_0.120" depart="215.86">
        <route edges="Link2 Link3 Link4"/>
    </vehicle>
    <vehicle id="flow_0.121" depart="217.98">
        <route edges="Link2 Link3 Link4"/>
    </vehicle>
    <vehicle id="flow_1.101" depart="218.23">
        <route edges="Link24 Link25 Link43"/>
    </vehicle>
    <vehicle id="flow_1.102" depart="219.03">
        <route edges="Link24 Link25 Link43"/>
    </vehicle>
    <vehicle id="flow_1.103" depart="220.16">
        <route edges="Link24 Link25 Link43"/>
    </vehicle>
    <vehicle id="flow_0.122" depart="220.26">
        <route edges="Link2 Link3 Link4"/>
    </vehicle>
    <vehicle id="flow_1.104" depart="220.53">
        <route edges="Link24 Link25 Link43"/>
    </vehicle>
    <vehicle id="flow_0.123" depart="220.65">
        <route edges="Link2 Link3 Link4"/>
    </vehicle>
    <vehicle id="flow_0.124" depart="222.36">
        <route edges="Link2 Link3 Link4"/>
    </vehicle>
    <vehicle id="flow_0.125" depart="222.41">
        <route edges="Link2 Link3 Link4"/>
    </vehicle>
    <vehicle id="flow_0.126" depart="222.49">
        <route edges="Link2 Link3 Link4"/>
    </vehicle>
    <vehicle id="flow_1.105" depart="223.42">
        <route edges="Link24 Link25 Link43"/>
    </vehicle>
    <vehicle id="flow_0.127" depart="224.07">
        <route edges="Link2 Link3 Link4"/>
    </vehicle>
    <vehicle id="flow_0.128" depart="225.98">
        <route edges="Link2 Link3 Link4"/>
    </vehicle>
    <vehicle id="flow_1.106" depart="227.50">
        <route edges="Link24 Link25 Link43"/>
    </vehicle>
    <vehicle id="flow_0.129" depart="229.60">
        <route edges="Link2 Link3 Link4"/>
    </vehicle>
    <vehicle id="flow_1.107" depart="230.92">
        <route edges="Link24 Link25 Link43"/>
    </vehicle>
    <vehicle id="flow_1.108" depart="232.37">
        <route edges="Link24 Link25 Link43"/>
    </vehicle>
    <vehicle id="flow_1.109" depart="232.39">
        <route edges="Link24 Link25 Link43"/>
    </vehicle>
    <vehicle id="flow_1.110" depart="233.07">
        <route edges="Link24 Link25 Link43"/>
    </vehicle>
    <vehicle id="flow_1.111" depart="234.85">
        <route edges="Link24 Link25 Link43"/>
    </vehicle>
    <vehicle id="flow_0.130" depart="235.68">
        <route edges="Link2 Link3 Link4"/>
    </vehicle>
    <vehicle id="flow_1.112" depart="236.20">
        <route edges="Link24 Link25 Link43"/>
    </vehicle>
    <vehicle id="flow_0.131" depart="238.38">
        <route edges="Link2 Link3 Link4"/>
    </vehicle>
    <vehicle id="flow_0.132" depart="240.76">
        <route edges="Link2 Link3 Link4"/>
    </vehicle>
    <vehicle id="flow_0.133" depart="240.79">
        <route edges="Link2 Link3 Link4"/>
    </vehicle>
    <vehicle id="flow_0.134" depart="241.82">
        <route edges="Link2 Link3 Link4"/>
    </vehicle>
    <vehicle id="flow_1.113" depart="242.15">
        <route edges="Link24 Link25 Link43"/>
    </vehicle>
    <vehicle id="flow_0.135" depart="242.93">
        <route edges="Link2 Link3 Link4"/>
    </vehicle>
    <vehicle id="flow_1.114" depart="243.18">
        <route edges="Link24 Link25 Link43"/>
    </vehicle>
    <vehicle id="flow_0.136" depart="243.94">
        <route edges="Link2 Link3 Link4"/>
    </vehicle>
    <vehicle id="flow_0.137" depart="244.16">
        <route edges="Link2 Link3 Link4"/>
    </vehicle>
    <vehicle id="flow_1.115" depart="244.71">
        <route edges="Link24 Link25 Link43"/>
    </vehicle>
    <vehicle id="flow_1.116" depart="245.25">
        <route edges="Link24 Link25 Link43"/>
    </vehicle>
    <vehicle id="flow_0.138" depart="245.75">
        <route edges="Link2 Link3 Link4"/>
    </vehicle>
    <vehicle id="flow_0.139" depart="245.88">
        <route edges="Link2 Link3 Link4"/>
    </vehicle>
    <vehicle id="flow_1.117" depart="248.19">
        <route edges="Link24 Link25 Link43"/>
    </vehicle>
    <vehicle id="flow_1.118" depart="251.80">
        <route edges="Link24 Link25 Link43"/>
    </vehicle>
    <vehicle id="flow_1.119" depart="251.89">
        <route edges="Link24 Link25 Link43"/>
    </vehicle>
    <vehicle id="flow_1.120" depart="253.50">
        <route edges="Link24 Link25 Link43"/>
    </vehicle>
    <vehicle id="flow_0.140" depart="254.09">
        <route edges="Link2 Link3 Link4"/>
    </vehicle>
    <vehicle id="flow_1.121" depart="259.99">
        <route edges="Link24 Link25 Link43"/>
    </vehicle>
    <vehicle id="flow_0.141" depart="260.97">
        <route edges="Link2 Link3 Link4"/>
    </vehicle>
    <vehicle id="flow_1.122" depart="261.03">
        <route edges="Link24 Link25 Link43"/>
    </vehicle>
    <vehicle id="flow_1.123" depart="262.29">
        <route edges="Link24 Link25 Link43"/>
    </vehicle>
    <vehicle id="flow_0.142" depart="262.38">
        <route edges="Link2 Link3 Link4"/>
    </vehicle>
    <vehicle id="flow_1.124" depart="263.80">
        <route edges="Link24 Link25 Link43"/>
    </vehicle>
    <vehicle id="flow_1.125" depart="265.27">
        <route edges="Link24 Link25 Link43"/>
    </vehicle>
    <vehicle id="flow_0.143" depart="265.28">
        <route edges="Link2 Link3 Link4"/>
    </vehicle>
    <vehicle id="flow_1.126" depart="265.35">
        <route edges="Link24 Link25 Link43"/>
    </vehicle>
    <vehicle id="flow_0.144" depart="265.77">
        <route edges="Link2 Link3 Link4"/>
    </vehicle>
    <vehicle id="flow_0.145" depart="266.05">
        <route edges="Link2 Link3 Link4"/>
    </vehicle>
    <vehicle id="flow_1.127" depart="268.08">
        <route edges="Link24 Link25 Link43"/>
    </vehicle>
    <vehicle id="flow_1.128" depart="268.75">