<?xml version="1.0" encoding="UTF-8"?>

<!-- generated on Mon Mar 30 15:10:11 2020 by Eclipse SUMO Version v1_5_0+1011-3e02c63d25
This data file and the accompanying materials
are made available under the terms of the Eclipse Public License v2.0
which accompanies this distribution, and is available at
http://www.eclipse.org/legal/epl-v20.html
SPDX-License-Identifier: EPL-2.0
<configuration xmlns:xsi="http://www.w3.org/2001/XMLSchema-instance" xsi:noNamespaceSchemaLocation="http://sumo.dlr.de/xsd/sumoConfiguration.xsd">

    <input>
        <net-file value="net.net.xml"/>
        <route-files value="input_routes.rou.xml"/>
    </input>

    <output>
        <write-license value="true"/>
    </output>

    <processing>
        <default.speeddev value="0"/>
    </processing>

    <report>
        <xml-validation value="never"/>
        <no-step-log value="true"/>
    </report>

</configuration>
-->

<SSMLog>
    <conflict begin="74.00" end="106.00" ego="flow_1.1" foe="flow_1.3">
        <minTTC time="81.00" position="879.068468,1511.116466" type="3" value="2.08"/>
        <maxDRAC time="81.00" position="879.068468,1511.116466" type="3" value="1.71"/>
        <PET time="NA" position="NA" type="NA" value="NA"/>
    </conflict>
    <conflict begin="74.00" end="106.00" ego="flow_1.3" foe="flow_1.1">
        <minTTC time="81.00" position="879.068468,1511.116466" type="2" value="2.08"/>
        <maxDRAC time="81.00" position="879.068468,1511.116466" type="2" value="1.71"/>
        <PET time="NA" position="NA" type="NA" value="NA"/>
    </conflict>
    <conflict begin="91.00" end="114.00" ego="flow_1.5" foe="flow_1.8">
        <minTTC time="98.00" position="878.786387,1511.279324" type="3" value="2.12"/>
        <maxDRAC time="98.00" position="878.786387,1511.279324" type="3" value="1.72"/>
        <PET time="NA" position="NA" type="NA" value="NA"/>
    </conflict>
    <conflict begin="91.00" end="114.00" ego="flow_1.8" foe="flow_1.5">
        <minTTC time="98.00" position="878.786387,1511.279324" type="2" value="2.12"/>
        <maxDRAC time="98.00" position="878.786387,1511.279324" type="2" value="1.72"/>
        <PET time="NA" position="NA" type="NA" value="NA"/>
    </conflict>
    <conflict begin="159.00" end="191.00" ego="flow_1.33" foe="flow_1.34">
        <minTTC time="180.00" position="875.310912,1513.285857" type="3" value="2.50"/>
        <maxDRAC time="180.00" position="875.310912,1513.285857" type="3" value="1.52"/>
        <PET time="NA" position="NA" type="NA" value="NA"/>
    </conflict>
    <conflict begin="173.00" end="219.00" ego="flow_1.15" foe="flow_1.13">
        <minTTC time="201.00" position="-822.926216,1514.240000" type="2" value="2.62"/>
        <maxDRAC time="201.00" position="-822.926216,1514.240000" type="2" value="0.87"/>
        <PET time="NA" position="NA" type="NA" value="NA"/>
    </conflict>
    <conflict begin="99.00" end="225.00" ego="flow_1.0" foe="flow_1.2">
        <minTTC time="161.00" position="-872.474159,1514.233784" type="3" value="2.28"/>
        <maxDRAC time="161.00" position="-872.474159,1514.233784" type="3" value="1.16"/>
        <PET time="NA" position="NA" type="NA" value="NA"/>
    </conflict>
    <conflict begin="99.00" end="225.00" ego="flow_1.2" foe="flow_1.0">
        <minTTC time="161.00" position="-872.474159,1514.233784" type="2" value="2.28"/>
        <maxDRAC time="161.00" position="-872.474159,1514.233784" type="2" value="1.16"/>
        <PET time="NA" position="NA" type="NA" value="NA"/>
    </conflict>
    <conflict begin="76.00" end="258.00" ego="flow_1.6" foe="flow_1.4">
        <minTTC time="87.00" position="877.854023,1511.817615" type="3" value="2.81"/>
        <maxDRAC time="87.00" position="877.854023,1511.817615" type="3" value="0.89"/>
        <PET time="NA" position="NA" type="NA" value="NA"/>
    </conflict>
    <conflict begin="76.00" end="258.00" ego="flow_1.4" foe="flow_1.6">
        <minTTC time="87.00" position="877.854023,1511.817615" type="2" value="2.81"/>
        <maxDRAC time="87.00" position="877.854023,1511.817615" type="2" value="0.89"/>
        <PET time="NA" position="NA" type="NA" value="NA"/>
    </conflict>
    <conflict begin="111.00" end="268.00" ego="flow_1.10" foe="flow_1.12">
        <minTTC time="198.00" position="-850.912172,1514.240000" type="3" value="2.68"/>
        <maxDRAC time="198.00" position="-850.912172,1514.240000" type="3" value="0.79"/>
        <PET time="NA" position="NA" type="NA" value="NA"/>
    </conflict>
    <conflict begin="111.00" end="268.00" ego="flow_1.12" foe="flow_1.10">
        <minTTC time="198.00" position="-850.912172,1514.240000" type="2" value="2.68"/>
        <maxDRAC time="198.00" position="-850.912172,1514.240000" type="2" value="0.79"/>
        <PET time="NA" position="NA" type="NA" value="NA"/>
    </conflict>
    <conflict begin="90.00" end="271.00" ego="flow_1.11" foe="flow_1.13">
        <minTTC time="110.00" position="872.954598,1514.222480" type="3" value="2.24"/>
        <maxDRAC time="110.00" position="872.954598,1514.222480" type="3" value="1.09"/>
        <PET time="NA" position="NA" type="NA" value="NA"/>
    </conflict>
    <conflict begin="90.00" end="271.00" ego="flow_1.13" foe="flow_1.11">
        <minTTC time="110.00" position="872.954598,1514.222480" type="2" value="2.24"/>
        <maxDRAC time="110.00" position="872.954598,1514.222480" type="2" value="1.09"/>
        <PET time="NA" position="NA" type="NA" value="NA"/>
    </conflict>
    <conflict begin="173.00" end="219.00" ego="flow_1.13" foe="flow_1.15">
        <minTTC time="201.00" position="-822.926216,1514.240000" type="3" value="2.62"/>
        <maxDRAC time="201.00" position="-822.926216,1514.240000" type="3" value="0.87"/>
        <PET time="NA" position="NA" type="NA" value="NA"/>
    </conflict>
    <conflict begin="85.00" end="283.00" ego="flow_1.14" foe="flow_1.16">
        <minTTC time="216.00" position="-874.216178,1513.910940" type="3" value="2.39"/>
        <maxDRAC time="216.00" position="-874.216178,1513.910940" type="3" value="1.02"/>
        <PET time="NA" position="NA" type="NA" value="NA"/>
    </conflict>
    <conflict begin="85.00" end="283.00" ego="flow_1.16" foe="flow_1.14">
        <minTTC time="216.00" position="-874.216178,1513.910940" type="2" value="2.39"/>
        <maxDRAC time="216.00" position="-874.216178,1513.910940" type="2" value="1.02"/>
        <PET time="NA" position="NA" type="NA" value="NA"/>
    </conflict>
    <conflict begin="125.00" end="284.00" ego="flow_1.16" foe="flow_1.17">
        <minTTC time="217.00" position="-863.822191,1514.240000" type="3" value="2.18"/>
        <maxDRAC time="217.00" position="-863.822191,1514.240000" type="3" value="1.23"/>
        <PET time="NA" position="NA" type="NA" value="NA"/>
    </conflict>
    <conflict begin="125.00" end="284.00" ego="flow_1.17" foe="flow_1.16">
        <minTTC time="217.00" position="-863.822191,1514.240000" type="2" value="2.18"/>
        <maxDRAC time="217.00" position="-863.822191,1514.240000" type="2" value="1.23"/>
        <PET time="NA" position="NA" type="NA" value="NA"/>
    </conflict>
    <conflict begin="122.00" end="298.00" ego="flow_1.18" foe="flow_1.20">
        <minTTC time="136.00" position="879.302398,1510.981409" type="3" value="2.72"/>
        <maxDRAC time="136.00" position="879.302398,1510.981409" type="3" value="0.79"/>
        <PET time="NA" position="NA" type="NA" value="NA"/>
    </conflict>
    <conflict begin="122.00" end="298.00" ego="flow_1.20" foe="flow_1.18">
        <minTTC time="136.00" position="879.302398,1510.981409" type="2" value="2.72"/>
        <maxDRAC time="136.00" position="879.302398,1510.981409" type="2" value="0.79"/>
        <PET time="NA" position="NA" type="NA" value="NA"/>
    </conflict>
    <conflict begin="110.00" end="312.00" ego="flow_1.19" foe="flow_1.21">
        <minTTC time="241.00" position="-869.623942,1514.240000" type="3" value="2.29"/>
        <maxDRAC time="241.00" position="-869.623942,1514.240000" type="3" value="1.10"/>
        <PET time="NA" position="NA" type="NA" value="NA"/>
    </conflict>
    <conflict begin="77.00" end="313.00" ego="flow_1.21" foe="flow_1.22">
        <minTTC time="144.00" position="883.262690,1508.694971" type="3" value="2.58"/>
        <maxDRAC time="242.00" position="-860.277980,1514.240000" type="3" value="0.91"/>
        <PET time="NA" position="NA" type="NA" value="NA"/>
    </conflict>
    <conflict begin="110.00" end="312.00" ego="flow_1.21" foe="flow_1.19">
        <minTTC time="241.00" position="-869.623942,1514.240000" type="2" value="2.29"/>
        <maxDRAC time="241.00" position="-869.623942,1514.240000" type="2" value="1.10"/>
        <PET time="NA" position="NA" type="NA" value="NA"/>
    </conflict>
    <conflict begin="77.00" end="313.00" ego="flow_1.22" foe="flow_1.21">
        <minTTC time="144.00" position="883.262690,1508.694971" type="2" value="2.58"/>
        <maxDRAC time="242.00" position="-860.277980,1514.240000" type="2" value="0.91"/>
        <PET time="NA" position="NA" type="NA" value="NA"/>
    </conflict>
    <conflict begin="304.00" end="314.00" ego="flow_1.75" foe="flow_1.76">
        <minTTC time="305.00" position="872.313438,1514.237566" type="3" value="2.83"/>
        <maxDRAC time="305.00" position="872.313438,1514.237566" type="3" value="2.10"/>
        <PET time="NA" position="NA" type="NA" value="NA"/>
    </conflict>
    <conflict begin="304.00" end="314.00" ego="flow_1.76" foe="flow_1.75">
        <minTTC time="305.00" position="872.313438,1514.237566" type="2" value="2.83"/>
        <maxDRAC time="305.00" position="872.313438,1514.237566" type="2" value="2.10"/>
        <PET time="NA" position="NA" type="NA" value="NA"/>
    </conflict>
    <conflict begin="121.00" end="315.00" ego="flow_1.22" foe="flow_1.24">
        <minTTC time="243.00" position="-850.559137,1514.240000" type="3" value="2.71"/>
        <maxDRAC time="243.00" position="-850.559137,1514.240000" type="3" value="0.92"/>
        <PET time="NA" position="NA" type="NA" value="NA"/>
    </conflict>
    <conflict begin="121.00" end="315.00" ego="flow_1.24" foe="flow_1.22">
        <minTTC time="243.00" position="-850.559137,1514.240000" type="2" value="2.71"/>
        <maxDRAC time="243.00" position="-850.559137,1514.240000" type="2" value="0.92"/>
        <PET time="NA" position="NA" type="NA" value="NA"/>
    </conflict>
    <conflict begin="131.00" end="318.00" ego="flow_1.23" foe="flow_1.25">
        <minTTC time="152.00" position="875.633285,1513.099738" type="3" value="2.35"/>
        <maxDRAC time="152.00" position="875.633285,1513.099738" type="3" value="1.00"/>
        <PET time="NA" position="NA" type="NA" value="NA"/>
    </conflict>
    <conflict begin="131.00" end="318.00" ego="flow_1.25" foe="flow_1.23">
        <minTTC time="152.00" position="875.633285,1513.099738" type="2" value="2.35"/>
        <maxDRAC time="152.00" position="875.633285,1513.099738" type="2" value="1.00"/>
        <PET time="NA" position="NA" type="NA" value="NA"/>
    </conflict>
    <conflict begin="95.00" end="324.00" ego="flow_1.27" foe="flow_1.28">
        <minTTC time="257.00" position="-868.993792,1514.240000" type="3" value="2.61"/>
        <maxDRAC time="163.00" position="879.375292,1510.939325" type="3" value="1.38"/>
        <PET time="NA" position="NA" type="NA" value="NA"/>
    </conflict>
    <conflict begin="95.00" end="324.00" ego="flow_1.28" foe="flow_1.27">
        <minTTC time="257.00" position="-868.993792,1514.240000" type="2" value="2.61"/>
        <maxDRAC time="163.00" position="879.375292,1510.939325" type="2" value="1.38"/>
        <PET time="NA" position="NA" type="NA" value="NA"/>
    </conflict>
    <conflict begin="117.00" end="337.00" ego="flow_1.34" foe="flow_1.35">
        <minTTC time="181.00" position="887.240718,1506.398292" type="3" value="3.00"/>
        <maxDRAC time="181.00" position="887.240718,1506.398292" type="3" value="0.89"/>
        <PET time="NA" position="NA" type="NA" value="NA"/>
    </conflict>
    <conflict begin="159.00" end="191.00" ego="flow_1.34" foe="flow_1.33">
        <minTTC time="180.00" position="875.310912,1513.285857" type="2" value="2.50"/>
        <maxDRAC time="180.00" position="875.310912,1513.285857" type="2" value="1.52"/>
        <PET time="NA" position="NA" type="NA" value="NA"/>
    </conflict>
    <conflict begin="117.00" end="337.00" ego="flow_1.35" foe="flow_1.34">
        <minTTC time="181.00" position="887.240718,1506.398292" type="2" value="3.00"/>
        <maxDRAC time="181.00" position="887.240718,1506.398292" type="2" value="0.89"/>
        <PET time="NA" position="NA" type="NA" value="NA"/>
    </conflict>
    <conflict begin="141.00" end="388.00" ego="flow_1.42" foe="flow_1.43">
        <minTTC time="315.00" position="-868.202916,1514.240000" type="3" value="2.04"/>
        <maxDRAC time="315.00" position="-868.202916,1514.240000" type="3" value="1.28"/>
        <PET time="NA" position="NA" type="NA" value="NA"/>
    </conflict>
    <conflict begin="141.00" end="388.00" ego="flow_1.43" foe="flow_1.42">
        <minTTC time="315.00" position="-868.202916,1514.240000" type="2" value="2.04"/>
        <maxDRAC time="315.00" position="-868.202916,1514.240000" type="2" value="1.28"/>
        <PET time="NA" position="NA" type="NA" value="NA"/>
    </conflict>
    <conflict begin="144.00" end="389.00" ego="flow_1.43" foe="flow_1.44">
        <minTTC time="316.00" position="-859.588835,1514.240000" type="3" value="2.49"/>
        <maxDRAC time="316.00" position="-859.588835,1514.240000" type="3" value="1.03"/>
        <PET time="NA" position="NA" type="NA" value="NA"/>
    </conflict>
    <conflict begin="144.00" end="389.00" ego="flow_1.44" foe="flow_1.43">
        <minTTC time="316.00" position="-859.588835,1514.240000" type="2" value="2.49"/>
        <maxDRAC time="316.00" position="-859.588835,1514.240000" type="2" value="1.03"/>
        <PET time="NA" position="NA" type="NA" value="NA"/>
    </conflict>
    <conflict begin="166.00" end="391.00" ego="flow_1.44" foe="flow_1.45">
        <minTTC time="317.00" position="-849.594605,1514.240000" type="3" value="2.51"/>
        <maxDRAC time="317.00" position="-849.594605,1514.240000" type="3" value="0.97"/>
        <PET time="NA" position="NA" type="NA" value="NA"/>
    </conflict>
    <conflict begin="166.00" end="391.00" ego="flow_1.45" foe="flow_1.44">
        <minTTC time="317.00" position="-849.594605,1514.240000" type="2" value="2.51"/>
        <maxDRAC time="317.00" position="-849.594605,1514.240000" type="2" value="0.97"/>
        <PET time="NA" position="NA" type="NA" value="NA"/>
    </conflict>
    <conflict begin="173.00" end="392.00" ego="flow_1.45" foe="flow_1.46">
        <minTTC time="318.00" position="-840.484144,1514.240000" type="3" value="2.59"/>
        <maxDRAC time="318.00" position="-840.484144,1514.240000" type="3" value="0.96"/>
        <PET time="NA" position="NA" type="NA" value="NA"/>
    </conflict>
    <conflict begin="173.00" end="392.00" ego="flow_1.46" foe="flow_1.45">
        <minTTC time="318.00" position="-840.484144,1514.240000" type="2" value="2.59"/>
        <maxDRAC time="318.00" position="-840.484144,1514.240000" type="2" value="0.96"/>
        <PET time="NA" position="NA" type="NA" value="NA"/>
    </conflict>
    <conflict begin="242.00" end="394.00" ego="flow_1.46" foe="flow_1.47">
        <minTTC time="319.00" position="-831.141860,1514.240000" type="3" value="2.76"/>
        <maxDRAC time="319.00" position="-831.141860,1514.240000" type="3" value="0.90"/>
        <PET time="NA" position="NA" type="NA" value="NA"/>
    </conflict>
    <conflict begin="242.00" end="394.00" ego="flow_1.47" foe="flow_1.46">
        <minTTC time="319.00" position="-831.141860,1514.240000" type="2" value="2.76"/>
        <maxDRAC time="319.00" position="-831.141860,1514.240000" type="2" value="0.90"/>
        <PET time="NA" position="NA" type="NA" value="NA"/>
    </conflict>
    <conflict begin="176.00" end="399.00" ego="flow_1.49" foe="flow_1.50">
        <minTTC time="231.00" position="873.192505,1514.199787" type="3" value="2.83"/>
        <maxDRAC time="231.00" position="873.192505,1514.199787" type="3" value="0.75"/>
        <PET time="NA" position="NA" type="NA" value="NA"/>
    </conflict>
    <conflict begin="176.00" end="399.00" ego="flow_1.50" foe="flow_1.49">
        <minTTC time="231.00" position="873.192505,1514.199787" type="2" value="2.83"/>
        <maxDRAC time="231.00" position="873.192505,1514.199787" type="2" value="0.75"/>
        <PET time="NA" position="NA" type="NA" value="NA"/>
    </conflict>
    <conflict begin="177.00" end="414.00" ego="flow_1.54" foe="flow_1.55">
        <minTTC time="345.00" position="-869.171792,1514.240000" type="3" value="2.57"/>
        <maxDRAC time="345.00" position="-869.171792,1514.240000" type="3" value="0.93"/>
        <PET time="NA" position="NA" type="NA" value="NA"/>
    </conflict>
    <conflict begin="177.00" end="414.00" ego="flow_1.55" foe="flow_1.54">
        <minTTC time="345.00" position="-869.171792,1514.240000" type="2" value="2.57"/>
        <maxDRAC time="345.00" position="-869.171792,1514.240000" type="2" value="0.93"/>
        <PET time="NA" position="NA" type="NA" value="NA"/>
    </conflict>
    <conflict begin="395.00" end="422.00" ego="flow_1.105" foe="flow_1.106">
        <minTTC time="397.00" position="873.029252,1514.220723" type="3" value="2.80"/>
        <maxDRAC time="397.00" position="873.029252,1514.220723" type="3" value="1.78"/>
        <PET time="NA" position="NA" type="NA" value="NA"/>
    </conflict>
    <conflict begin="395.00" end="422.00" ego="flow_1.106" foe="flow_1.105">
        <minTTC time="397.00" position="873.029252,1514.220723" type="2" value="2.80"/>
        <maxDRAC time="397.00" position="873.029252,1514.220723" type="2" value="1.78"/>
        <PET time="NA" position="NA" type="NA" value="NA"/>
    </conflict>
    <conflict begin="273.00" end="287.00" ego="flow_1.66" foe="flow_1.67">
        <minTTC time="276.00" position="882.612247,1509.070498" type="3" value="3.00"/>
        <maxDRAC time="276.00" position="882.612247,1509.070498" type="3" value="1.29"/>
        <PET time="NA" position="NA" type="NA" value="NA"/>
    </conflict>
    <conflict begin="273.00" end="287.00" ego="flow_1.67" foe="flow_1.66">
        <minTTC time="276.00" position="882.612247,1509.070498" type="2" value="3.00"/>
        <maxDRAC time="276.00" position="882.612247,1509.070498" type="2" value="1.29"/>
        <PET time="NA" position="NA" type="NA" value="NA"/>
    </conflict>
    <conflict begin="229.00" end="446.00" ego="flow_1.71" foe="flow_1.72">
        <minTTC time="294.00" position="872.223480,1514.239683" type="3" value="2.77"/>
        <maxDRAC time="294.00" position="872.223480,1514.239683" type="3" value="0.81"/>
        <PET time="NA" position="NA" type="NA" value="NA"/>
    </conflict>
    <conflict begin="229.00" end="446.00" ego="flow_1.72" foe="flow_1.71">
        <minTTC time="294.00" position="872.223480,1514.239683" type="2" value="2.77"/>
        <maxDRAC time="294.00" position="872.223480,1514.239683" type="2" value="0.81"/>
        <PET time="NA" position="NA" type="NA" value="NA"/>
    </conflict>
    <conflict begin="262.00" end="473.00" ego="flow_1.77" foe="flow_1.78">
        <minTTC time="314.00" position="876.200112,1512.772486" type="3" value="2.52"/>
        <maxDRAC time="314.00" position="876.200112,1512.772486" type="3" value="0.87"/>
        <PET time="NA" position="NA" type="NA" value="NA"/>
    </conflict>
    <conflict begin="406.00" end="416.00" ego="flow_1.77" foe="flow_1.79">
        <minTTC time="407.00" position="-873.751430,1514.091272" type="3" value="2.86"/>
        <maxDRAC time="407.00" position="-873.751430,1514.091272" type="3" value="1.91"/>
        <PET time="NA" position="NA" type="NA" value="NA"/>
    </conflict>
    <conflict begin="262.00" end="473.00" ego="flow_1.78" foe="flow_1.77">
        <minTTC time="314.00" position="876.200112,1512.772486" type="2" value="2.52"/>
        <maxDRAC time="314.00" position="876.200112,1512.772486" type="2" value="0.87"/>
        <PET time="NA" position="NA" type="NA" value="NA"/>
    </conflict>
    <conflict begin="285.00" end="474.00" ego="flow_1.78" foe="flow_1.79">
        <minTTC time="315.00" position="883.554564,1508.526460" type="3" value="2.45"/>
        <maxDRAC time="315.00" position="883.554564,1508.526460" type="3" value="1.03"/>
        <PET time="NA" position="NA" type="NA" value="NA"/>
    </conflict>
    <conflict begin="285.00" end="474.00" ego="flow_1.79" foe="flow_1.78">
        <minTTC time="315.00" position="883.554564,1508.526460" type="2" value="2.45"/>
        <maxDRAC time="315.00" position="883.554564,1508.526460" type="2" value="1.03"/>
        <PET time="NA" position="NA" type="NA" value="NA"/>
    </conflict>
    <conflict begin="406.00" end="416.00" ego="flow_1.79" foe="flow_1.77">
        <minTTC time="407.00" position="-873.751430,1514.091272" type="2" value="2.86"/>
        <maxDRAC time="407.00" position="-873.751430,1514.091272" type="2" value="1.91"/>
        <PET time="NA" position="NA" type="NA" value="NA"/>
    </conflict>
    <conflict begin="377.00" end="482.00" ego="flow_1.81" foe="flow_1.82">
        <minTTC time="415.00" position="-855.997126,1514.240000" type="3" value="2.97"/>
        <maxDRAC time="414.00" position="-847.414894,1514.240000" type="3" value="0.85"/>
        <PET time="NA" position="NA" type="NA" value="NA"/>
    </conflict>
    <conflict begin="296.00" end="483.00" ego="flow_1.93" foe="flow_1.94">
        <minTTC time="370.00" position="874.620011,1513.681615" type="3" value="2.85"/>
        <maxDRAC time="369.00" position="879.820805,1510.682112" type="3" value="0.68"/>
        <PET time="NA" position="NA" type="NA" value="NA"/>
    </conflict>
    <conflict begin="470.00" end="481.00" ego="flow_1.93" foe="flow_1.95">
        <minTTC time="472.00" position="-872.534190,1514.232372" type="3" value="2.78"/>
        <maxDRAC time="472.00" position="-872.534190,1514.232372" type="3" value="1.59"/>
        <PET time="NA" position="NA" type="NA" value="NA"/>
    </conflict>
    <conflict begin="296.00" end="483.00" ego="flow_1.94" foe="flow_1.93">
        <minTTC time="370.00" position="874.620011,1513.681615" type="2" value="2.85"/>
        <maxDRAC time="369.00" position="879.820805,1510.682112" type="2" value="0.68"/>
        <PET time="NA" position="NA" type="NA" value="NA"/>
    </conflict>
    <conflict begin="278.00" end="484.00" ego="flow_1.82" foe="flow_1.83">
        <minTTC time="328.00" position="873.142032,1514.207487" type="3" value="2.93"/>
        <maxDRAC time="328.00" position="873.142032,1514.207487" type="3" value="0.78"/>
        <PET time="NA" position="NA" type="NA" value="NA"/>
    </conflict>
    <conflict begin="377.00" end="482.00" ego="flow_1.82" foe="flow_1.81">
        <minTTC time="415.00" position="-855.997126,1514.240000" type="2" value="2.97"/>
        <maxDRAC time="414.00" position="-847.414894,1514.240000" type="2" value="0.85"/>
        <PET time="NA" position="NA" type="NA" value="NA"/>
    </conflict>
    <conflict begin="278.00" end="484.00" ego="flow_1.83" foe="flow_1.82">
        <minTTC time="328.00" position="873.142032,1514.207487" type="2" value="2.93"/>
        <maxDRAC time="328.00" position="873.142032,1514.207487" type="2" value="0.78"/>
        <PET time="NA" position="NA" type="NA" value="NA"/>
    </conflict>
    <conflict begin="339.00" end="495.00" ego="flow_1.94" foe="flow_1.95">
        <minTTC time="370.00" position="888.032592,1505.941111" type="3" value="2.92"/>
        <maxDRAC time="370.00" position="888.032592,1505.941111" type="3" value="0.87"/>
        <PET time="NA" position="NA" type="NA" value="NA"/>
    </conflict>
    <conflict begin="268.00" end="498.00" ego="flow_1.84" foe="flow_1.85">
        <minTTC time="337.00" position="873.119553,1514.210916" type="3" value="2.01"/>
        <maxDRAC time="337.00" position="873.119553,1514.210916" type="3" value="1.28"/>
        <PET time="NA" position="NA" type="NA" value="NA"/>
    </conflict>
    <conflict begin="268.00" end="498.00" ego="flow_1.85" foe="flow_1.84">
        <minTTC time="337.00" position="873.119553,1514.210916" type="2" value="2.01"/>
        <maxDRAC time="337.00" position="873.119553,1514.210916" type="2" value="1.28"/>
        <PET time="NA" position="NA" type="NA" value="NA"/>
    </conflict>
    <conflict begin="289.00" end="499.00" ego="flow_1.85" foe="flow_1.86">
        <minTTC time="338.00" position="881.036801,1509.980068" type="3" value="2.42"/>
        <maxDRAC time="338.00" position="881.036801,1509.980068" type="3" value="1.03"/>
        <PET time="NA" position="NA" type="NA" value="NA"/>
    </conflict>
    <conflict begin="289.00" end="499.00" ego="flow_1.86" foe="flow_1.85">
        <minTTC time="338.00" position="881.036801,1509.980068" type="2" value="2.42"/>
        <maxDRAC time="338.00" position="881.036801,1509.980068" type="2" value="1.03"/>
        <PET time="NA" position="NA" type="NA" value="NA"/>
    </conflict>
    <conflict begin="305.00" end="515.00" ego="flow_1.89" foe="flow_1.90">
        <minTTC time="447.00" position="-866.367739,1514.240000" type="3" value="2.37"/>
        <maxDRAC time="447.00" position="-866.367739,1514.240000" type="3" value="1.08"/>
        <PET time="NA" position="NA" type="NA" value="NA"/>
    </conflict>
    <conflict begin="305.00" end="515.00" ego="flow_1.90" foe="flow_1.89">
        <minTTC time="447.00" position="-866.367739,1514.240000" type="2" value="2.37"/>
        <maxDRAC time="447.00" position="-866.367739,1514.240000" type="2" value="1.08"/>
        <PET time="NA" position="NA" type="NA" value="NA"/>
    </conflict>
    <conflict begin="500.00" end="534.00" ego="flow_1.148" foe="flow_1.147">
        <minTTC time="521.00" position="881.076047,1509.957409" type="2" value="2.74"/>
        <maxDRAC time="521.00" position="881.076047,1509.957409" type="2" value="1.23"/>
        <PET time="NA" position="NA" type="NA" value="NA"/>
    </conflict>
    <conflict begin="302.00" end="547.00" ego="flow_1.95" foe="flow_1.96">
        <minTTC time="476.00" position="-871.875016,1514.240000" type="3" value="1.04"/>
        <maxDRAC time="476.00" position="-871.875016,1514.240000" type="3" value="2.40"/>
        <PET time="NA" position="NA" type="NA" value="NA"/>
    </conflict>
    <conflict begin="339.00" end="495.00" ego="flow_1.95" foe="flow_1.94">
        <minTTC time="370.00" position="888.032592,1505.941111" type="2" value="2.92"/>
        <maxDRAC time="370.00" position="888.032592,1505.941111" type="2" value="0.87"/>
        <PET time="NA" position="NA" type="NA" value="NA"/>
    </conflict>
    <conflict begin="470.00" end="481.00" ego="flow_1.95" foe="flow_1.93">
        <minTTC time="472.00" position="-872.534190,1514.232372" type="2" value="2.78"/>
        <maxDRAC time="472.00" position="-872.534190,1514.232372" type="2" value="1.59"/>
        <PET time="NA" position="NA" type="NA" value="NA"/>
    </conflict>
    <conflict begin="473.00" end="489.00" ego="flow_1.95" foe="flow_1.97">
        <minTTC time="476.00" position="-871.875016,1514.240000" type="3" value="2.23"/>
        <maxDRAC time="476.00" position="-871.875016,1514.240000" type="3" value="2.09"/>
        <PET time="NA" position="NA" type="NA" value="NA"/>
    </conflict>
    <conflict begin="302.00" end="547.00" ego="flow_1.96" foe="flow_1.95">
        <minTTC time="476.00" position="-871.875016,1514.240000" type="2" value="1.04"/>
        <maxDRAC time="476.00" position="-871.875016,1514.240000" type="2" value="2.40"/>
        <PET time="NA" position="NA" type="NA" value="NA"/>
    </conflict>
    <conflict begin="326.00" end="549.00" ego="flow_1.96" foe="flow_1.97">
        <minTTC time="477.00" position="-864.067072,1514.240000" type="3" value="1.46"/>
        <maxDRAC time="477.00" position="-864.067072,1514.240000" type="3" value="1.46"/>
        <PET time="NA" position="NA" type="NA" value="NA"/>
    </conflict>
    <conflict begin="474.00" end="490.00" ego="flow_1.96" foe="flow_1.98">
        <minTTC time="477.00" position="-864.067072,1514.240000" type="3" value="2.99"/>
        <maxDRAC time="477.00" position="-864.067072,1514.240000" type="3" value="1.26"/>
        <PET time="NA" position="NA" type="NA" value="NA"/>
    </conflict>
    <conflict begin="308.00" end="550.00" ego="flow_1.97" foe="flow_1.98">
        <minTTC time="478.00" position="-856.100706,1514.240000" type="3" value="2.07"/>
        <maxDRAC time="478.00" position="-856.100706,1514.240000" type="3" value="0.88"/>
        <PET time="NA" position="NA" type="NA" value="NA"/>
    </conflict>
    <conflict begin="326.00" end="549.00" ego="flow_1.97" foe="flow_1.96">
        <minTTC time="477.00" position="-864.067072,1514.240000" type="2" value="1.46"/>
        <maxDRAC time="477.00" position="-864.067072,1514.240000" type="2" value="1.46"/>
        <PET time="NA" position="NA" type="NA" value="NA"/>
    </conflict>
    <conflict begin="473.00" end="489.00" ego="flow_1.97" foe="flow_1.95">
        <minTTC time="476.00" position="-871.875016,1514.240000" type="2" value="2.23"/>
        <maxDRAC time="476.00" position="-871.875016,1514.240000" type="2" value="2.09"/>
        <PET time="NA" position="NA" type="NA" value="NA"/>
    </conflict>
    <conflict begin="308.00" end="550.00" ego="flow_1.98" foe="flow_1.97">
        <minTTC time="478.00" position="-856.100706,1514.240000" type="2" value="2.07"/>
        <maxDRAC time="478.00" position="-856.100706,1514.240000" type="2" value="0.88"/>
        <PET time="NA" position="NA" type="NA" value="NA"/>
    </conflict>
    <conflict begin="343.00" end="552.00" ego="flow_1.98" foe="flow_1.99">
        <minTTC time="477.00" position="-836.589263,1514.240000" type="3" value="2.95"/>