<?xml version="1.0" encoding="UTF-8"?>

<!-- generated on 2023-01-23 12:36:35 by Eclipse SUMO netedit Version v1_15_0+1802-6c0f80f73ea
-->

<additional xmlns:xsi="http://www.w3.org/2001/XMLSchema-instance" xsi:noNamespaceSchemaLocation="http://sumo.dlr.de/xsd/additional_file.xsd">
    <!-- StoppingPlaces -->
    <containerStop id="ct_0" lane="gneE0_0" startPos="19.00" endPos="29.00" containerCapacity="3"/>
</additional>
