<?xml version="1.0" encoding="UTF-8"?>

<!-- generated on 2021-11-11 09:10:15 by Eclipse SUMO netedit Version v1_10_0+2141-4b85b4f2e45
<configuration xmlns:xsi="http://www.w3.org/2001/XMLSchema-instance" xsi:noNamespaceSchemaLocation="http://sumo.dlr.de/xsd/netconvertConfiguration.xsd">

    <input>
        <sumo-net-file value="C:\Users\alva_pa\.texttest\tmp\netedit.gui.11Nov090544.19092\netedit.gui\additionalElements\containerstop\create\containercapacity\input_net.net.xml"/>
    </input>

    <output>
        <output-file value="C:\Users\alva_pa\.texttest\tmp\netedit.gui.11Nov090544.19092\netedit.gui\additionalElements\containerstop\create\containercapacity\net.net.xml"/>
    </output>

    <processing>
        <geometry.min-radius.fix.railways value="false"/>
        <geometry.max-grade.fix value="false"/>
        <offset.disable-normalization value="true"/>
        <lefthand value="false"/>
    </processing>

    <junctions>
        <no-turnarounds value="true"/>
        <junctions.corner-detail value="5"/>
        <junctions.limit-turn-speed value="5.5"/>
        <rectangular-lane-cut value="false"/>
    </junctions>

    <pedestrian>
        <walkingareas value="false"/>
    </pedestrian>

    <netedit>
        <additional-files value="C:\Users\alva_pa\.texttest\tmp\netedit.gui.11Nov090544.19092\netedit.gui\additionalElements\containerstop\create\containercapacity\additionals.xml"/>
        <additionals-output value="C:\Users\alva_pa\.texttest\tmp\netedit.gui.11Nov090544.19092\netedit.gui\additionalElements\containerstop\create\containercapacity\additionals.xml"/>
        <route-files value="C:\Users\alva_pa\.texttest\tmp\netedit.gui.11Nov090544.19092\netedit.gui\additionalElements\containerstop\create\containercapacity\routes.xml"/>
        <demandelements-output value="C:\Users\alva_pa\.texttest\tmp\netedit.gui.11Nov090544.19092\netedit.gui\additionalElements\containerstop\create\containercapacity\routes.xml"/>
        <data-files value="C:\Users\alva_pa\.texttest\tmp\netedit.gui.11Nov090544.19092\netedit.gui\additionalElements\containerstop\create\containercapacity\datas.xml"/>
        <dataelements-output value="C:\Users\alva_pa\.texttest\tmp\netedit.gui.11Nov090544.19092\netedit.gui\additionalElements\containerstop\create\containercapacity\datas.xml"/>
    </netedit>

    <visualisation>
        <gui-settings-file value="C:\Users\alva_pa\.texttest\tmp\netedit.gui.11Nov090544.19092\netedit.gui\additionalElements\containerstop\create\containercapacity\gui-settings.xml"/>
        <window-size value="936,697"/>
        <window-pos value="50,50"/>
        <gui-testing value="true"/>
        <gui-testing-debug value="true"/>
        <gui-testing.setting-output value="C:\Users\alva_pa\.texttest\tmp\netedit.gui.11Nov090544.19092\netedit.gui\additionalElements\containerstop\create\containercapacity\guisettingsoutput.xml"/>
    </visualisation>

    <report>
        <no-warnings value="true"/>
        <aggregate-warnings value="5"/>
        <error-log value="C:\Users\alva_pa\.texttest\tmp\netedit.gui.11Nov090544.19092\netedit.gui\additionalElements\containerstop\create\containercapacity\log.txt"/>
    </report>

</configuration>
-->

<additional xmlns:xsi="http://www.w3.org/2001/XMLSchema-instance" xsi:noNamespaceSchemaLocation="http://sumo.dlr.de/xsd/additional_file.xsd">
    <containerStop id="ct_0" lane="gneE0_0" startPos="16.00" endPos="26.00" containerCapacity="3"/>
</additional>
