<?xml version="1.0" encoding="UTF-8"?>

<!-- generated on 2021-11-11 09:10:15 by Eclipse SUMO netedit Version v1_10_0+2141-4b85b4f2e45
-->

<additional xmlns:xsi="http://www.w3.org/2001/XMLSchema-instance" xsi:noNamespaceSchemaLocation="http://sumo.dlr.de/xsd/additional_file.xsd">
    <containerStop id="ct_0" lane="gneE0_0" startPos="16.00" endPos="26.00" containerCapacity="3"/>
</additional>
