<routes>
    <vType id="DEFAULT_VEHTYPE"/>

    <route id="r0" edges="VODUGES_beg VODUGES_end"/>
    <route id="r1" edges="-VODUGES_end -VODUGES_beg"/>
    <route id="r2" edges="NC VODUGES_end"/>

    <vehicle id="stopped2"  route="r0" departPos="40" depart="2">
        <stop lane="VODUGES_beg_0" endPos="45" duration="100"/>
    </vehicle>
    <vehicle id="overtaking" route="r0" departPos="0"  depart="2"/>

    <vehicle id="oncoming1" route="r2" departPos="-1"  depart="3"/>
    <vehicle id="oncoming2" route="r2" departPos="20"  depart="3"/>
    <vehicle id="oncoming3" route="r2" departPos="0"  depart="3"/>

</routes>
