<?xml version="1.0"?>

<!-- generated on 05/14/09 12:19:15 by SUMO sumo Version dev-SVN-r7168
<configuration>

   <input>
      <net-file>net.net.xml</net-file>
      <route-files>input_routes.rou.xml</route-files>
      <additional-files>input_additional.add.xml</additional-files>
   </input>

   <time>
      <begin>100</begin>
      <end>300</end>
   </time>

   <processing>
      <no-duration-log>true</no-duration-log>
      <no-step-log>true</no-step-log>
   </processing>

</configuration>
-->

<tls-switch-states>
    <tlsstate time="100" id="0" subid="S1" phase="0">GGggrrrrGGggrrrr</tlsstate>
    <tlsstate time="200" id="0" subid="S2" phase="0">rrrrGGggrrrrGGgg</tlsstate>
</tls-switch-states>
