<routes xmlns:xsi="http://www.w3.org/2001/XMLSchema-instance" xsi:noNamespaceSchemaLocation="http://sumo.dlr.de/xsd/routes_file.xsd">
   <vType id="KRAUSS_DEFAULT" accel="2.6" decel="4.5" sigma="0" length="3" minGap="2" maxSpeed="70" color="1,1,0"/>
   <vehicle id="0" type="KRAUSS_DEFAULT" depart="0" color="0,0,0">
      <route id="blub" edges="beg middle end rend"/>
   </vehicle>
   <vehicle id="1" type="KRAUSS_DEFAULT" route="blub" depart="1" color="0,0,0"/>
</routes>
