<?xml version="1.0" encoding="UTF-8"?>

<!-- generated on 2025-02-21 13:30:18 by Eclipse SUMO netconvert Version v1_22_0+0439-34e3e5c6700
This data file and the accompanying materials
are made available under the terms of the Eclipse Public License v2.0
which accompanies this distribution, and is available at
http://www.eclipse.org/legal/epl-v20.html
This file may also be made available under the following Secondary
Licenses when the conditions for such availability set forth in the Eclipse
Public License 2.0 are satisfied: GNU General Public License, version 2
or later which is available at
https://www.gnu.org/licenses/old-licenses/gpl-2.0-standalone.html
SPDX-License-Identifier: EPL-2.0 OR GPL-2.0-or-later
<netconvertConfiguration xmlns:xsi="http://www.w3.org/2001/XMLSchema-instance" xsi:noNamespaceSchemaLocation="http://sumo.dlr.de/xsd/netconvertConfiguration.xsd">

    <input>
        <sumo-net-file value="input_net.net.xml"/>
        <heightmap.geotiff value="heightmap.tif"/>
    </input>

    <output>
        <write-license value="true"/>
        <output-file value="net.net.xml"/>
    </output>

    <processing>
        <geometry.min-radius.fix.railways value="false"/>
        <geometry.max-grade.fix value="false"/>
        <offset.disable-normalization value="true"/>
        <lefthand value="0"/>
    </processing>

    <junctions>
        <no-internal-links value="true"/>
        <no-turnarounds value="true"/>
        <junctions.corner-detail value="5"/>
        <junctions.limit-turn-speed value="5.50"/>
        <rectangular-lane-cut value="0"/>
    </junctions>

    <pedestrian>
        <walkingareas value="0"/>
    </pedestrian>

    <report>
        <verbose value="true"/>
        <xml-validation value="never"/>
    </report>

</netconvertConfiguration>
-->

<net version="1.20" junctionCornerDetail="5" limitTurnSpeed="5.50" xmlns:xsi="http://www.w3.org/2001/XMLSchema-instance" xsi:noNamespaceSchemaLocation="http://sumo.dlr.de/xsd/net_file.xsd">

    <location netOffset="-275843.65,-5318479.30" convBoundary="0.00,18000.00,7000.00,19500.00" origBoundary="12.014694,48.000000,12.061386,48.121459" projParameter="+proj=utm +zone=33 +ellps=WGS84 +datum=WGS84 +units=m +no_defs"/>

    <edge id="A36A37" from="A36" to="A37" priority="-1">
        <lane id="A36A37_0" index="0" allow="pedestrian" speed="13.89" length="500.00" shape="1.60,18003.20 1.60,18495.30"/>
    </edge>
    <edge id="A36B36" from="A36" to="B36" priority="-1">
        <lane id="A36B36_0" index="0" allow="pedestrian" speed="13.89" length="500.00" shape="3.20,17998.40 495.30,17998.40"/>
    </edge>
    <edge id="A37A36" from="A37" to="A36" priority="-1">
        <lane id="A37A36_0" index="0" allow="pedestrian" speed="13.89" length="500.00" shape="-1.60,18495.30 -1.60,18003.20"/>
    </edge>
    <edge id="A37A38" from="A37" to="A38" priority="-1">
        <lane id="A37A38_0" index="0" allow="pedestrian" speed="13.89" length="500.00" shape="1.60,18504.70 1.60,18995.30"/>
    </edge>
    <edge id="A37B37" from="A37" to="B37" priority="-1">
        <lane id="A37B37_0" index="0" allow="pedestrian" speed="13.89" length="500.00" shape="4.70,18498.40 495.30,18498.40"/>
    </edge>
    <edge id="A38A37" from="A38" to="A37" priority="-1">
        <lane id="A38A37_0" index="0" allow="pedestrian" speed="13.89" length="500.00" shape="-1.60,18995.30 -1.60,18504.70"/>
    </edge>
    <edge id="A38A39" from="A38" to="A39" priority="-1">
        <lane id="A38A39_0" index="0" allow="pedestrian" speed="13.89" length="500.00" shape="1.60,19004.70 1.60,19496.80"/>
    </edge>
    <edge id="A38B38" from="A38" to="B38" priority="-1">
        <lane id="A38B38_0" index="0" allow="pedestrian" speed="13.89" length="500.00" shape="4.70,18998.40 495.30,18998.40"/>
    </edge>
    <edge id="A39A38" from="A39" to="A38" priority="-1">
        <lane id="A39A38_0" index="0" allow="pedestrian" speed="13.89" length="500.00" shape="-1.60,19496.80 -1.60,19004.70"/>
    </edge>
    <edge id="A39B39" from="A39" to="B39" priority="-1">
        <lane id="A39B39_0" index="0" allow="pedestrian" speed="13.89" length="500.00" shape="3.20,19498.40 495.30,19498.40"/>
    </edge>
    <edge id="B36A36" from="B36" to="A36" priority="-1">
        <lane id="B36A36_0" index="0" allow="pedestrian" speed="13.89" length="500.00" shape="495.30,18001.60 3.20,18001.60"/>
    </edge>
    <edge id="B36B37" from="B36" to="B37" priority="-1">
        <lane id="B36B37_0" index="0" allow="pedestrian" speed="13.89" length="500.00" shape="501.60,18004.70 501.60,18495.30"/>
    </edge>
    <edge id="B36C36" from="B36" to="C36" priority="-1">
        <lane id="B36C36_0" index="0" allow="pedestrian" speed="13.89" length="770.05" shape="504.70,17998.40 995.30,17998.40,581.29"/>
    </edge>
    <edge id="B37A37" from="B37" to="A37" priority="-1">
        <lane id="B37A37_0" index="0" allow="pedestrian" speed="13.89" length="500.00" shape="495.30,18501.60 4.70,18501.60"/>
    </edge>
    <edge id="B37B36" from="B37" to="B36" priority="-1">
        <lane id="B37B36_0" index="0" allow="pedestrian" speed="13.89" length="500.00" shape="498.40,18495.30 498.40,18004.70"/>
    </edge>
    <edge id="B37B38" from="B37" to="B38" priority="-1">
        <lane id="B37B38_0" index="0" allow="pedestrian" speed="13.89" length="500.00" shape="501.60,18504.70 501.60,18995.30"/>
    </edge>
    <edge id="B37C37" from="B37" to="C37" priority="-1">
        <lane id="B37C37_0" index="0" allow="pedestrian" speed="13.89" length="500.00" shape="504.70,18498.40 995.30,18498.40"/>
    </edge>
    <edge id="B38A38" from="B38" to="A38" priority="-1">
        <lane id="B38A38_0" index="0" allow="pedestrian" speed="13.89" length="500.00" shape="495.30,19001.60 4.70,19001.60"/>
    </edge>
    <edge id="B38B37" from="B38" to="B37" priority="-1">
        <lane id="B38B37_0" index="0" allow="pedestrian" speed="13.89" length="500.00" shape="498.40,18995.30 498.40,18504.70"/>
    </edge>
    <edge id="B38B39" from="B38" to="B39" priority="-1">
        <lane id="B38B39_0" index="0" allow="pedestrian" speed="13.89" length="500.00" shape="501.60,19004.70 501.60,19495.30"/>
    </edge>
    <edge id="B38C38" from="B38" to="C38" priority="-1">
        <lane id="B38C38_0" index="0" allow="pedestrian" speed="13.89" length="500.00" shape="504.70,18998.40 995.30,18998.40"/>
    </edge>
    <edge id="B39A39" from="B39" to="A39" priority="-1">
        <lane id="B39A39_0" index="0" allow="pedestrian" speed="13.89" length="500.00" shape="495.30,19501.60 3.20,19501.60"/>
    </edge>
    <edge id="B39B38" from="B39" to="B38" priority="-1">
        <lane id="B39B38_0" index="0" allow="pedestrian" speed="13.89" length="500.00" shape="498.40,19495.30 498.40,19004.70"/>
    </edge>
    <edge id="B39C39" from="B39" to="C39" priority="-1">
        <lane id="B39C39_0" index="0" allow="pedestrian" speed="13.89" length="500.00" shape="504.70,19498.40 995.30,19498.40"/>
    </edge>
    <edge id="C36B36" from="C36" to="B36" priority="-1">
        <lane id="C36B36_0" index="0" allow="pedestrian" speed="13.89" length="770.05" shape="995.30,18001.60,581.29 504.70,18001.60"/>
    </edge>
    <edge id="C36C37" from="C36" to="C37" priority="-1">
        <lane id="C36C37_0" index="0" allow="pedestrian" speed="13.89" length="770.05" shape="1001.60,18004.70,581.29 1001.60,18495.30"/>
    </edge>
    <edge id="C36D36" from="C36" to="D36" priority="-1">
        <lane id="C36D36_0" index="0" allow="pedestrian" speed="13.89" length="500.67" shape="1004.70,17998.40,581.29 1495.30,17998.40,555.68"/>
    </edge>
    <edge id="C37B37" from="C37" to="B37" priority="-1">
        <lane id="C37B37_0" index="0" allow="pedestrian" speed="13.89" length="500.00" shape="995.30,18501.60 504.70,18501.60"/>
    </edge>
    <edge id="C37C36" from="C37" to="C36" priority="-1">
        <lane id="C37C36_0" index="0" allow="pedestrian" speed="13.89" length="770.05" shape="998.40,18495.30 998.40,18004.70,581.29"/>
    </edge>
    <edge id="C37C38" from="C37" to="C38" priority="-1">
        <lane id="C37C38_0" index="0" allow="pedestrian" speed="13.89" length="500.00" shape="1001.60,18504.70 1001.60,18995.30"/>
    </edge>
    <edge id="C37D37" from="C37" to="D37" priority="-1">
        <lane id="C37D37_0" index="0" allow="pedestrian" speed="13.89" length="747.16" shape="1004.70,18498.40 1495.30,18498.40,551.00"/>
    </edge>
    <edge id="C38B38" from="C38" to="B38" priority="-1">
        <lane id="C38B38_0" index="0" allow="pedestrian" speed="13.89" length="500.00" shape="995.30,19001.60 504.70,19001.60"/>
    </edge>
    <edge id="C38C37" from="C38" to="C37" priority="-1">
        <lane id="C38C37_0" index="0" allow="pedestrian" speed="13.89" length="500.00" shape="998.40,18995.30 998.40,18504.70"/>
    </edge>
    <edge id="C38C39" from="C38" to="C39" priority="-1">
        <lane id="C38C39_0" index="0" allow="pedestrian" speed="13.89" length="500.00" shape="1001.60,19004.70 1001.60,19495.30"/>
    </edge>
    <edge id="C38D38" from="C38" to="D38" priority="-1">
        <lane id="C38D38_0" index="0" allow="pedestrian" speed="13.89" length="500.00" shape="1004.70,18998.40 1495.30,18998.40"/>
    </edge>
    <edge id="C39B39" from="C39" to="B39" priority="-1">
        <lane id="C39B39_0" index="0" allow="pedestrian" speed="13.89" length="500.00" shape="995.30,19501.60 504.70,19501.60"/>
    </edge>
    <edge id="C39C38" from="C39" to="C38" priority="-1">
        <lane id="C39C38_0" index="0" allow="pedestrian" speed="13.89" length="500.00" shape="998.40,19495.30 998.40,19004.70"/>
    </edge>
    <edge id="C39D39" from="C39" to="D39" priority="-1">
        <lane id="C39D39_0" index="0" allow="pedestrian" speed="13.89" length="500.00" shape="1004.70,19498.40 1495.30,19498.40"/>
    </edge>
    <edge id="D36C36" from="D36" to="C36" priority="-1">
        <lane id="D36C36_0" index="0" allow="pedestrian" speed="13.89" length="500.67" shape="1495.30,18001.60,555.68 1004.70,18001.60,581.29"/>
    </edge>
    <edge id="D36D37" from="D36" to="D37" priority="-1">
        <lane id="D36D37_0" index="0" allow="pedestrian" speed="13.89" length="500.02" shape="1501.60,18004.70,555.64 1501.60,18495.30,551.04"/>
    </edge>
    <edge id="D36E36" from="D36" to="E36" priority="-1">
        <lane id="D36E36_0" index="0" allow="pedestrian" speed="13.89" length="500.00" shape="1504.70,17998.40,555.69 1995.30,17998.40,556.77"/>
    </edge>
    <edge id="D37C37" from="D37" to="C37" priority="-1">
        <lane id="D37C37_0" index="0" allow="pedestrian" speed="13.89" length="747.16" shape="1495.30,18501.60,551.00 1004.70,18501.60"/>
    </edge>
    <edge id="D37D36" from="D37" to="D36" priority="-1">
        <lane id="D37D36_0" index="0" allow="pedestrian" speed="13.89" length="500.02" shape="1498.40,18495.30,551.04 1498.40,18004.70,555.64"/>
    </edge>
    <edge id="D37D38" from="D37" to="D38" priority="-1">
        <lane id="D37D38_0" index="0" allow="pedestrian" speed="13.89" length="747.16" shape="1501.60,18504.70,551.00 1501.60,18995.30"/>
    </edge>
    <edge id="D37E37" from="D37" to="E37" priority="-1">
        <lane id="D37E37_0" index="0" allow="pedestrian" speed="13.89" length="500.00" shape="1504.70,18498.40,551.00 1995.30,18498.40,550.49"/>
    </edge>
    <edge id="D38C38" from="D38" to="C38" priority="-1">
        <lane id="D38C38_0" index="0" allow="pedestrian" speed="13.89" length="500.00" shape="1495.30,19001.60 1004.70,19001.60"/>
    </edge>
    <edge id="D38D37" from="D38" to="D37" priority="-1">
        <lane id="D38D37_0" index="0" allow="pedestrian" speed="13.89" length="747.16" shape="1498.40,18995.30 1498.40,18504.70,551.00"/>
    </edge>
    <edge id="D38D39" from="D38" to="D39" priority="-1">
        <lane id="D38D39_0" index="0" allow="pedestrian" speed="13.89" length="500.00" shape="1501.60,19004.70 1501.60,19495.30"/>
    </edge>
    <edge id="D38E38" from="D38" to="E38" priority="-1">
        <lane id="D38E38_0" index="0" allow="pedestrian" speed="13.89" length="500.00" shape="1504.70,18998.40 1995.30,18998.40"/>
    </edge>
    <edge id="D39C39" from="D39" to="C39" priority="-1">
        <lane id="D39C39_0" index="0" allow="pedestrian" speed="13.89" length="500.00" shape="1495.30,19501.60 1004.70,19501.60"/>
    </edge>
    <edge id="D39D38" from="D39" to="D38" priority="-1">
        <lane id="D39D38_0" index="0" allow="pedestrian" speed="13.89" length="500.00" shape="1498.40,19495.30 1498.40,19004.70"/>
    </edge>
    <edge id="D39E39" from="D39" to="E39" priority="-1">
        <lane id="D39E39_0" index="0" allow="pedestrian" speed="13.89" length="500.00" shape="1504.70,19498.40 1995.30,19498.40"/>
    </edge>
    <edge id="E36D36" from="E36" to="D36" priority="-1">
        <lane id="E36D36_0" index="0" allow="pedestrian" speed="13.89" length="500.00" shape="1995.30,18001.60,556.77 1504.70,18001.60,555.69"/>
    </edge>
    <edge id="E36E37" from="E36" to="E37" priority="-1">
        <lane id="E36E37_0" index="0" allow="pedestrian" speed="13.89" length="500.04" shape="2001.60,18004.70,556.73 2001.60,18495.30,550.55"/>
    </edge>
    <edge id="E36F36" from="E36" to="F36" priority="-1">
        <lane id="E36F36_0" index="0" allow="pedestrian" speed="13.89" length="500.01" shape="2004.70,17998.40,556.82 2495.30,17998.40,560.27"/>
    </edge>
    <edge id="E37D37" from="E37" to="D37" priority="-1">
        <lane id="E37D37_0" index="0" allow="pedestrian" speed="13.89" length="500.00" shape="1995.30,18501.60,550.49 1504.70,18501.60,551.00"/>
    </edge>
    <edge id="E37E36" from="E37" to="E36" priority="-1">
        <lane id="E37E36_0" index="0" allow="pedestrian" speed="13.89" length="500.04" shape="1998.40,18495.30,550.55 1998.40,18004.70,556.73"/>
    </edge>
    <edge id="E37E38" from="E37" to="E38" priority="-1">
        <lane id="E37E38_0" index="0" allow="pedestrian" speed="13.89" length="746.78" shape="2001.60,18504.70,550.49 2001.60,18995.30"/>
    </edge>
    <edge id="E37F37" from="E37" to="F37" priority="-1">
        <lane id="E37F37_0" index="0" allow="pedestrian" speed="13.89" length="500.07" shape="2004.70,18498.40,550.57 2495.30,18498.40,558.92"/>
    </edge>
    <edge id="E38D38" from="E38" to="D38" priority="-1">
        <lane id="E38D38_0" index="0" allow="pedestrian" speed="13.89" length="500.00" shape="1995.30,19001.60 1504.70,19001.60"/>
    </edge>
    <edge id="E38E37" from="E38" to="E37" priority="-1">
        <lane id="E38E37_0" index="0" allow="pedestrian" speed="13.89" length="746.78" shape="1998.40,18995.30 1998.40,18504.70,550.49"/>
    </edge>
    <edge id="E38E39" from="E38" to="E39" priority="-1">
        <lane id="E38E39_0" index="0" allow="pedestrian" speed="13.89" length="500.00" shape="2001.60,19004.70 2001.60,19495.30"/>
    </edge>
    <edge id="E38F38" from="E38" to="F38" priority="-1">
        <lane id="E38F38_0" index="0" allow="pedestrian" speed="13.89" length="500.00" shape="2004.70,18998.40 2495.30,18998.40"/>
    </edge>
    <edge id="E39D39" from="E39" to="D39" priority="-1">
        <lane id="E39D39_0" index="0" allow="pedestrian" speed="13.89" length="500.00" shape="1995.30,19501.60 1504.70,19501.60"/>
    </edge>
    <edge id="E39E38" from="E39" to="E38" priority="-1">
        <lane id="E39E38_0" index="0" allow="pedestrian" speed="13.89" length="500.00" shape="1998.40,19495.30 1998.40,19004.70"/>
    </edge>
    <edge id="E39F39" from="E39" to="F39" priority="-1">
        <lane id="E39F39_0" index="0" allow="pedestrian" speed="13.89" length="500.00" shape="2004.70,19498.40 2495.30,19498.40"/>
    </edge>
    <edge id="F36E36" from="F36" to="E36" priority="-1">
        <lane id="F36E36_0" index="0" allow="pedestrian" speed="13.89" length="500.01" shape="2495.30,18001.60,560.27 2004.70,18001.60,556.82"/>
    </edge>
    <edge id="F36F37" from="F36" to="F37" priority="-1">
        <lane id="F36F37_0" index="0" allow="pedestrian" speed="13.89" length="500.00" shape="2501.60,18004.70,560.29 2501.60,18495.30,559.01"/>
    </edge>
    <edge id="F36G36" from="F36" to="G36" priority="-1">
        <lane id="F36G36_0" index="0" allow="pedestrian" speed="13.89" length="500.05" shape="2504.70,17998.40,560.37 2995.30,17998.40,567.13"/>
    </edge>
    <edge id="F37E37" from="F37" to="E37" priority="-1">
        <lane id="F37E37_0" index="0" allow="pedestrian" speed="13.89" length="500.07" shape="2495.30,18501.60,558.92 2004.70,18501.60,550.57"/>
    </edge>
    <edge id="F37F36" from="F37" to="F36" priority="-1">
        <lane id="F37F36_0" index="0" allow="pedestrian" speed="13.89" length="500.00" shape="2498.40,18495.30,559.01 2498.40,18004.70,560.29"/>
    </edge>
    <edge id="F37F38" from="F37" to="F38" priority="-1">
        <lane id="F37F38_0" index="0" allow="pedestrian" speed="13.89" length="753.15" shape="2501.60,18504.70,559.00 2501.60,18995.30"/>
    </edge>
    <edge id="F37G37" from="F37" to="G37" priority="-1">
        <lane id="F37G37_0" index="0" allow="pedestrian" speed="13.89" length="500.27" shape="2504.70,18498.40,559.16 2995.30,18498.40,575.35"/>
    </edge>
    <edge id="F38E38" from="F38" to="E38" priority="-1">
        <lane id="F38E38_0" index="0" allow="pedestrian" speed="13.89" length="500.00" shape="2495.30,19001.60 2004.70,19001.60"/>
    </edge>
    <edge id="F38F37" from="F38" to="F37" priority="-1">
        <lane id="F38F37_0" index="0" allow="pedestrian" speed="13.89" length="753.15" shape="2498.40,18995.30 2498.40,18504.70,559.00"/>
    </edge>
    <edge id="F38F39" from="F38" to="F39" priority="-1">
        <lane id="F38F39_0" index="0" allow="pedestrian" speed="13.89" length="500.00" shape="2501.60,19004.70 2501.60,19495.30"/>
    </edge>
    <edge id="F38G38" from="F38" to="G38" priority="-1">
        <lane id="F38G38_0" index="0" allow="pedestrian" speed="13.89" length="500.00" shape="2504.70,18998.40 2995.30,18998.40"/>
    </edge>
    <edge id="F39E39" from="F39" to="E39" priority="-1">
        <lane id="F39E39_0" index="0" allow="pedestrian" speed="13.89" length="500.00" shape="2495.30,19501.60 2004.70,19501.60"/>
    </edge>
    <edge id="F39F38" from="F39" to="F38" priority="-1">
        <lane id="F39F38_0" index="0" allow="pedestrian" speed="13.89" length="500.00" shape="2498.40,19495.30 2498.40,19004.70"/>
    </edge>
    <edge id="F39G39" from="F39" to="G39" priority="-1">
        <lane id="F39G39_0" index="0" allow="pedestrian" speed="13.89" length="500.00" shape="2504.70,19498.40 2995.30,19498.40"/>
    </edge>
    <edge id="G36F36" from="G36" to="F36" priority="-1">
        <lane id="G36F36_0" index="0" allow="pedestrian" speed="13.89" length="500.05" shape="2995.30,18001.60,567.13 2504.70,18001.60,560.37"/>
    </edge>
    <edge id="G36G37" from="G36" to="G37" priority="-1">
        <lane id="G36G37_0" index="0" allow="pedestrian" speed="13.89" length="500.07" shape="3001.60,18004.70,567.27 3001.60,18495.30,575.43"/>
    </edge>
    <edge id="G36H36" from="G36" to="H36" priority="-1">
        <lane id="G36H36_0" index="0" allow="pedestrian" speed="13.89" length="500.30" shape="3004.70,17998.40,567.36 3495.30,17998.40,584.30"/>
    </edge>
    <edge id="G37F37" from="G37" to="F37" priority="-1">
        <lane id="G37F37_0" index="0" allow="pedestrian" speed="13.89" length="500.27" shape="2995.30,18501.60,575.35 2504.70,18501.60,559.16"/>
    </edge>
    <edge id="G37G36" from="G37" to="G36" priority="-1">
        <lane id="G37G36_0" index="0" allow="pedestrian" speed="13.89" length="500.07" shape="2998.40,18495.30,575.43 2998.40,18004.70,567.27"/>
    </edge>
    <edge id="G37G38" from="G37" to="G38" priority="-1">
        <lane id="G37G38_0" index="0" allow="pedestrian" speed="13.89" length="765.64" shape="3001.60,18504.70,575.51 3001.60,18995.30"/>
    </edge>
    <edge id="G37H37" from="G37" to="H37" priority="-1">
        <lane id="G37H37_0" index="0" allow="pedestrian" speed="13.89" length="500.66" shape="3004.70,18498.40,575.51 3495.30,18498.40,601.06"/>
    </edge>
    <edge id="G38F38" from="G38" to="F38" priority="-1">
        <lane id="G38F38_0" index="0" allow="pedestrian" speed="13.89" length="500.00" shape="2995.30,19001.60 2504.70,19001.60"/>
    </edge>
    <edge id="G38G37" from="G38" to="G37" priority="-1">
        <lane id="G38G37_0" index="0" allow="pedestrian" speed="13.89" length="765.64" shape="2998.40,18995.30 2998.40,18504.70,575.51"/>
    </edge>
    <edge id="G38G39" from="G38" to="G39" priority="-1">
        <lane id="G38G39_0" index="0" allow="pedestrian" speed="13.89" length="500.00" shape="3001.60,19004.70 3001.60,19495.30"/>
    </edge>
    <edge id="G38H38" from="G38" to="H38" priority="-1">
        <lane id="G38H38_0" index="0" allow="pedestrian" speed="13.89" length="500.00" shape="3004.70,18998.40 3495.30,18998.40"/>
    </edge>
    <edge id="G39F39" from="G39" to="F39" priority="-1">
        <lane id="G39F39_0" index="0" allow="pedestrian" speed="13.89" length="500.00" shape="2995.30,19501.60 2504.70,19501.60"/>
    </edge>
    <edge id="G39G38" from="G39" to="G38" priority="-1">
        <lane id="G39G38_0" index="0" allow="pedestrian" speed="13.89" length="500.00" shape="2998.40,19495.30 2998.40,19004.70"/>
    </edge>
    <edge id="G39H39" from="G39" to="H39" priority="-1">
        <lane id="G39H39_0" index="0" allow="pedestrian" speed="13.89" length="500.00" shape="3004.70,19498.40 3495.30,19498.40"/>
    </edge>
    <edge id="H36G36" from="H36" to="G36" priority="-1">
        <lane id="H36G36_0" index="0" allow="pedestrian" speed="13.89" length="500.30" shape="3495.30,18001.60,584.30 3004.70,18001.60,567.36"/>
    </edge>
    <edge id="H36H37" from="H36" to="H37" priority="-1">
        <lane id="H36H37_0" index="0" allow="pedestrian" speed="13.89" length="500.28" shape="3501.60,18004.70,584.61 3501.60,18495.30,600.90"/>
    </edge>
    <edge id="H36I36" from="H36" to="I36" priority="-1">
        <lane id="H36I36_0" index="0" allow="pedestrian" speed="13.89" length="500.54" shape="3504.70,17998.40,584.46 3995.30,17998.40,607.41"/>
    </edge>
    <edge id="H37G37" from="H37" to="G37" priority="-1">
        <lane id="H37G37_0" index="0" allow="pedestrian" speed="13.89" length="500.66" shape="3495.30,18501.60,601.06 3004.70,18501.60,575.51"/>
    </edge>
    <edge id="H37H36" from="H37" to="H36" priority="-1">
        <lane id="H37H36_0" index="0" allow="pedestrian" speed="13.89" length="500.28" shape="3498.40,18495.30,600.90 3498.40,18004.70,584.61"/>
    </edge>
    <edge id="H37H38" from="H37" to="H38" priority="-1">
        <lane id="H37H38_0" index="0" allow="pedestrian" speed="13.89" length="785.26" shape="3501.60,18504.70,601.06 3501.60,18995.30"/>
    </edge>
    <edge id="H37I37" from="H37" to="I37" priority="-1">
        <lane id="H37I37_0" index="0" allow="pedestrian" speed="13.89" length="500.03" shape="3504.70,18498.40,601.01 3995.30,18498.40,595.74"/>
    </edge>
    <edge id="H38G38" from="H38" to="G38" priority="-1">
        <lane id="H38G38_0" index="0" allow="pedestrian" speed="13.89" length="500.00" shape="3495.30,19001.60 3004.70,19001.60"/>
    </edge>
    <edge id="H38H37" from="H38" to="H37" priority="-1">
        <lane id="H38H37_0" index="0" allow="pedestrian" speed="13.89" length="785.26" shape="3498.40,18995.30 3498.40,18504.70,601.06"/>
    </edge>
    <edge id="H38H39" from="H38" to="H39" priority="-1">
        <lane id="H38H39_0" index="0" allow="pedestrian" speed="13.89" length="500.00" shape="3501.60,19004.70 3501.60,19495.30"/>
    </edge>
    <edge id="H38I38" from="H38" to="I38" priority="-1">
        <lane id="H38I38_0" index="0" allow="pedestrian" speed="13.89" length="500.00" shape="3504.70,18998.40 3995.30,18998.40"/>
    </edge>
    <edge id="H39G39" from="H39" to="G39" priority="-1">
        <lane id="H39G39_0" index="0" allow="pedestrian" speed="13.89" length="500.00" shape="3495.30,19501.60 3004.70,19501.60"/>
    </edge>
    <edge id="H39H38" from="H39" to="H38" priority="-1">
        <lane id="H39H38_0" index="0" allow="pedestrian" speed="13.89" length="500.00" shape="3498.40,19495.30 3498.40,19004.70"/>
    </edge>
    <edge id="H39I39" from="H39" to="I39" priority="-1">
        <lane id="H39I39_0" index="0" allow="pedestrian" speed="13.89" length="500.00" shape="3504.70,19498.40 3995.30,19498.40"/>
    </edge>
    <edge id="I36H36" from="I36" to="H36" priority="-1">
        <lane id="I36H36_0" index="0" allow="pedestrian" speed="13.89" length="500.54" shape="3995.30,18001.60,607.41 3504.70,18001.60,584.46"/>
    </edge>
    <edge id="I36I37" from="I36" to="I37" priority="-1">
        <lane id="I36I37_0" index="0" allow="pedestrian" speed="13.89" length="500.14" shape="4001.60,18004.70,607.30 4001.60,18495.30,595.80"/>
    </edge>
    <edge id="I36J36" from="I36" to="J36" priority="-1">
        <lane id="I36J36_0" index="0" allow="pedestrian" speed="13.89" length="500.03" shape="4004.70,17998.40,607.36 4495.30,17998.40,602.03"/>
    </edge>
    <edge id="I37H37" from="I37" to="H37" priority="-1">
        <lane id="I37H37_0" index="0" allow="pedestrian" speed="13.89" length="500.03" shape="3995.30,18501.60,595.74 3504.70,18501.60,601.01"/>
    </edge>
    <edge id="I37I36" from="I37" to="I36" priority="-1">
        <lane id="I37I36_0" index="0" allow="pedestrian" speed="13.89" length="500.14" shape="3998.40,18495.30,595.80 3998.40,18004.70,607.30"/>
    </edge>
    <edge id="I37I38" from="I37" to="I38" priority="-1">
        <lane id="I37I38_0" index="0" allow="pedestrian" speed="13.89" length="781.11" shape="4001.60,18504.70,595.69 4001.60,18995.30"/>
    </edge>
    <edge id="I37J37" from="I37" to="J37" priority="-1">
        <lane id="I37J37_0" index="0" allow="pedestrian" speed="13.89" length="500.08" shape="4004.70,18498.40,595.61 4495.30,18498.40,586.94"/>
    </edge>
    <edge id="I38H38" from="I38" to="H38" priority="-1">
        <lane id="I38H38_0" index="0" allow="pedestrian" speed="13.89" length="500.00" shape="3995.30,19001.60 3504.70,19001.60"/>
    </edge>
    <edge id="I38I37" from="I38" to="I37" priority="-1">
        <lane id="I38I37_0" index="0" allow="pedestrian" speed="13.89" length="781.11" shape="3998.40,18995.30 3998.40,18504.70,595.69"/>
    </edge>
    <edge id="I38I39" from="I38" to="I39" priority="-1">
        <lane id="I38I39_0" index="0" allow="pedestrian" speed="13.89" length="500.00" shape="4001.60,19004.70 4001.60,19495.30"/>
    </edge>
    <edge id="I38J38" from="I38" to="J38" priority="-1">
        <lane id="I38J38_0" index="0" allow="pedestrian" speed="13.89" length="500.00" shape="4004.70,18998.40 4495.30,18998.40"/>
    </edge>
    <edge id="I39H39" from="I39" to="H39" priority="-1">
        <lane id="I39H39_0" index="0" allow="pedestrian" speed="13.89" length="500.00" shape="3995.30,19501.60 3504.70,19501.60"/>
    </edge>
    <edge id="I39I38" from="I39" to="I38" priority="-1">
        <lane id="I39I38_0" index="0" allow="pedestrian" speed="13.89" length="500.00" shape="3998.40,19495.30 3998.40,19004.70"/>
    </edge>
    <edge id="I39J39" from="I39" to="J39" priority="-1">
        <lane id="I39J39_0" index="0" allow="pedestrian" speed="13.89" length="500.00" shape="4004.70,19498.40 4495.30,19498.40"/>
    </edge>
    <edge id="J36I36" from="J36" to="I36" priority="-1">
        <lane id="J36I36_0" index="0" allow="pedestrian" speed="13.89" length="500.03" shape="4495.30,18001.60,602.03 4004.70,18001.60,607.36"/>
    </edge>
    <edge id="J36J37" from="J36" to="J37" priority="-1">
        <lane id="J36J37_0" index="0" allow="pedestrian" speed="13.89" length="500.23" shape="4501.60,18004.70,601.83 4501.60,18495.30,586.99"/>
    </edge>
    <edge id="J36K36" from="J36" to="K36" priority="-1">
        <lane id="J36K36_0" index="0" allow="pedestrian" speed="13.89" length="500.16" shape="4504.70,17998.40,601.86 4995.30,17998.40,589.45"/>
    </edge>
    <edge id="J37I37" from="J37" to="I37" priority="-1">
        <lane id="J37I37_0" index="0" allow="pedestrian" speed="13.89" length="500.08" shape="4495.30,18501.60,586.94 4004.70,18501.60,595.61"/>
    </edge>
    <edge id="J37J36" from="J37" to="J36" priority="-1">
        <lane id="J37J36_0" index="0" allow="pedestrian" speed="13.89" length="500.23" shape="4498.40,18495.30,586.99 4498.40,18004.70,601.83"/>
    </edge>
    <edge id="J37J38" from="J37" to="J38" priority="-1">
        <lane id="J37J38_0" index="0" allow="pedestrian" speed="13.89" length="774.31" shape="4501.60,18504.70,586.85 4501.60,18995.30"/>
    </edge>
    <edge id="J37K37" from="J37" to="K37" priority="-1">
        <lane id="J37K37_0" index="0" allow="pedestrian" speed="13.89" length="500.61" shape="4504.70,18498.40,586.85 4995.30,18498.40,611.25"/>
    </edge>
    <edge id="J38I38" from="J38" to="I38" priority="-1">
        <lane id="J38I38_0" index="0" allow="pedestrian" speed="13.89" length="500.00" shape="4495.30,19001.60 4004.70,19001.60"/>
    </edge>
    <edge id="J38J37" from="J38" to="J37" priority="-1">
        <lane id="J38J37_0" index="0" allow="pedestrian" speed="13.89" length="774.31" shape="4498.40,18995.30 4498.40,18504.70,586.85"/>
    </edge>
    <edge id="J38J39" from="J38" to="J39" priority="-1">
        <lane id="J38J39_0" index="0" allow="pedestrian" speed="13.89" length="500.00" shape="4501.60,19004.70 4501.60,19495.30"/>
    </edge>
    <edge id="J38K38" from="J38" to="K38" priority="-1">
        <lane id="J38K38_0" index="0" allow="pedestrian" speed="13.89" length="500.00" shape="4504.70,18998.40 4995.30,18998.40"/>
    </edge>
    <edge id="J39I39" from="J39" to="I39" priority="-1">
        <lane id="J39I39_0" index="0" allow="pedestrian" speed="13.89" length="500.00" shape="4495.30,19501.60 4004.70,19501.60"/>
    </edge>
    <edge id="J39J38" from="J39" to="J38" priority="-1">
        <lane id="J39J38_0" index="0" allow="pedestrian" speed="13.89" length="500.00" shape="4498.40,19495.30 4498.40,19004.70"/>
    </edge>
    <edge id="J39K39" from="J39" to="K39" priority="-1">