<?xml version="1.0" encoding="UTF-8"?>

<!-- generated on Wed Sep 28 13:48:53 2016 by SUMO netconvert Version dev-SVN-r21560
<?xml version="1.0" encoding="UTF-8"?>

<configuration xmlns:xsi="http://www.w3.org/2001/XMLSchema-instance" xsi:noNamespaceSchemaLocation="http://sumo.dlr.de/xsd/netconvertConfiguration.xsd">

    <input>
        <node-files value="input_plain.nod.xml"/>
        <edge-files value="input_plain.edg.xml"/>
    </input>

    <processing>
        <no-turnarounds value="true"/>
    </processing>

    <report>
        <xml-validation value="never"/>
    </report>

</configuration>
-->

<net version="0.27" xmlns:xsi="http://www.w3.org/2001/XMLSchema-instance" xsi:noNamespaceSchemaLocation="http://sumo.dlr.de/xsd/net_file.xsd">

    <location netOffset="-603464.43,-5793051.54" convBoundary="0.00,0.00,677.72,242.91" origBoundary="1036887.000000,5215434.000000,1076426.000000,5239923.000000" projParameter="+proj=utm +zone=32 +ellps=WGS84 +datum=WGS84 +units=m +no_defs"/>

    <edge id=":54534761_0" function="internal">
        <lane id=":54534761_0_0" index="0" speed="13.89" length="5.06" shape="210.88,95.83 209.50,95.56 208.36,95.79 207.48,96.51 206.85,97.72"/>
    </edge>
    <edge id=":54534761_1" function="internal">
        <lane id=":54534761_1_0" index="0" speed="13.89" length="8.80" shape="210.88,95.83 206.95,94.06 204.48,91.91 204.01,90.79"/>
    </edge>
    <edge id=":54534761_8" function="internal">
        <lane id=":54534761_8_0" index="0" speed="13.89" length="4.44" shape="204.01,90.79 203.44,89.39 203.84,86.49"/>
    </edge>
    <edge id=":54534761_2" function="internal">
        <lane id=":54534761_2_0" index="0" speed="13.89" length="5.02" shape="210.04,88.75 209.76,90.10 209.98,91.21 210.71,92.08 211.94,92.70"/>
    </edge>
    <edge id=":54534761_3" function="internal">
        <lane id=":54534761_3_0" index="0" speed="13.89" length="9.55" shape="210.04,88.75 206.85,97.72"/>
        <lane id=":54534761_3_1" index="1" speed="13.89" length="9.55" shape="206.94,87.62 203.73,96.64"/>
    </edge>
    <edge id=":54534761_5" function="internal">
        <lane id=":54534761_5_0" index="0" speed="13.89" length="9.65" shape="197.50,94.48 200.74,85.37"/>
        <lane id=":54534761_5_1" index="1" speed="13.89" length="9.65" shape="200.62,95.56 203.84,86.49"/>
    </edge>
    <edge id=":54534761_7" function="internal">
        <lane id=":54534761_7_0" index="0" speed="13.89" length="4.51" shape="200.62,95.56 202.11,93.13 203.56,92.34"/>
    </edge>
    <edge id=":54534761_9" function="internal">
        <lane id=":54534761_9_0" index="0" speed="13.89" length="8.62" shape="203.56,92.34 204.49,91.85 207.77,91.70 211.94,92.70"/>
    </edge>
    <edge id=":54534779_0" function="internal">
        <lane id=":54534779_0_0" index="0" speed="13.89" length="10.48" shape="195.47,130.52 191.65,140.36"/>
        <lane id=":54534779_0_1" index="1" speed="13.89" length="10.48" shape="192.36,129.44 188.59,139.12"/>
    </edge>
    <edge id=":54534779_2" function="internal">
        <lane id=":54534779_2_0" index="0" speed="13.89" length="3.62" shape="192.36,129.44 191.11,131.03 189.65,131.70"/>
    </edge>
    <edge id=":54534779_8" function="internal">
        <lane id=":54534779_8_0" index="0" speed="13.89" length="9.77" shape="189.65,131.70 188.65,132.16 184.96,132.84 180.05,133.06"/>
    </edge>
    <edge id=":54534779_3" function="internal">
        <lane id=":54534779_3_0" index="0" speed="13.89" length="6.95" shape="180.05,129.76 182.38,129.61 184.17,129.14 185.42,128.36 186.12,127.27"/>
    </edge>
    <edge id=":54534779_4" function="internal">
        <lane id=":54534779_4_0" index="0" speed="13.89" length="10.52" shape="180.05,129.76 185.20,130.35 188.34,132.11 188.97,133.73"/>
    </edge>
    <edge id=":54534779_9" function="internal">
        <lane id=":54534779_9_0" index="0" speed="13.89" length="5.58" shape="188.97,133.73 189.47,135.03 188.59,139.12"/>
    </edge>
    <edge id=":54534779_5" function="internal">
        <lane id=":54534779_5_0" index="0" speed="13.89" length="5.55" shape="182.47,136.65 182.86,135.08 182.59,133.96 181.65,133.29 180.05,133.06"/>
    </edge>
    <edge id=":54534779_6" function="internal">
        <lane id=":54534779_6_0" index="0" speed="13.89" length="10.15" shape="182.47,136.65 186.12,127.27"/>
        <lane id=":54534779_6_1" index="1" speed="13.89" length="10.15" shape="185.53,137.89 189.24,128.35"/>
    </edge>

    <edge id="-51809012" from="54534765" to="54534779" priority="-4" shape="0.00,140.79 134.64,131.37 189.92,131.42">
        <lane id="-51809012_0" index="0" speed="13.89" length="180.50" shape="-0.12,139.14 134.58,129.72 180.05,129.76"/>
    </edge>
    <edge id="-51811859" from="54534779" to="54534761" priority="-1">
        <lane id="-51811859_0" index="0" speed="13.89" length="34.71" shape="186.12,127.27 197.50,94.48"/>
        <lane id="-51811859_1" index="1" speed="13.89" length="34.71" shape="189.24,128.35 200.62,95.56"/>
    </edge>
    <edge id="-51812270" from="54535534" to="54534761" priority="-4" shape="677.72,171.72 371.10,148.58 203.72,91.65">
        <lane id="-51812270_0" index="0" speed="13.89" length="476.59" shape="677.60,173.37 370.77,150.21 210.88,95.83"/>
    </edge>
    <edge id="-717744589" from="54534761" to="806373935" priority="-1">
        <lane id="-717744589_0" index="0" speed="13.89" length="92.63" shape="200.74,85.37 232.39,-1.69"/>
        <lane id="-717744589_1" index="1" speed="13.89" length="92.63" shape="203.84,86.49 235.49,-0.56"/>
    </edge>
    <edge id="-763770254" from="838257708" to="54534779" priority="-1" shape="147.32,242.91 171.21,177.76 189.92,131.42">
        <lane id="-763770254_0" index="0" speed="13.89" length="111.83" shape="142.67,241.21 166.59,175.98 182.47,136.65"/>
        <lane id="-763770254_1" index="1" speed="13.89" length="111.83" shape="145.77,242.34 169.67,177.17 185.53,137.89"/>
    </edge>
    <edge id="51809012" from="54534779" to="54534765" priority="-4" shape="189.92,131.42 134.64,131.37 0.00,140.79">
        <lane id="51809012_0" index="0" speed="13.89" length="180.26" shape="180.05,133.06 134.70,133.02 0.12,142.44"/>
    </edge>
    <edge id="51811859" from="54534761" to="54534779" priority="-1">
        <lane id="51811859_0" index="0" speed="13.89" length="34.71" shape="206.85,97.72 195.47,130.52"/>
        <lane id="51811859_1" index="1" speed="13.89" length="34.71" shape="203.73,96.64 192.36,129.44"/>
    </edge>
    <edge id="51812270" from="54534761" to="54535534" priority="-4" shape="203.72,91.65 371.10,148.58 677.72,171.72">
        <lane id="51812270_0" index="0" speed="13.89" length="475.75" shape="211.94,92.70 371.43,146.95 677.84,170.07"/>
    </edge>
    <edge id="717744589" from="806373935" to="54534761" priority="-1">
        <lane id="717744589_0" index="0" speed="13.89" length="92.63" shape="241.69,1.69 210.04,88.75"/>
        <lane id="717744589_1" index="1" speed="13.89" length="92.63" shape="238.59,0.56 206.94,87.62"/>
    </edge>
    <edge id="763770254" from="54534779" to="838257708" priority="-1" shape="189.92,131.42 171.21,177.76 147.32,242.91">
        <lane id="763770254_0" index="0" speed="13.89" length="111.62" shape="191.65,140.36 175.83,179.54 151.97,244.61"/>
        <lane id="763770254_1" index="1" speed="13.89" length="111.62" shape="188.59,139.12 172.75,178.35 148.87,243.48"/>
    </edge>

    <tlLogic id="c2a" type="static" programID="0" offset="0">
        <phase duration="31" state="rrGGGGGgGGgrrGGG"/>
        <phase duration="4" state="rryyyyygyygrryyy"/>
        <phase duration="6" state="rrrrrrrGrrGrrrrr"/>
        <phase duration="4" state="rrrrrrryrryrrrrr"/>
        <phase duration="31" state="GgrrrGGGGGGGgrrr"/>
        <phase duration="4" state="ygrrryyyyyyygrrr"/>
        <phase duration="6" state="rGrrrrrrrrrrGrrr"/>
        <phase duration="4" state="ryrrrrrrrrrryrrr"/>
    </tlLogic>

    <junction id="54534761" type="traffic_light" x="203.72" y="91.65" incLanes="-51812270_0 717744589_0 717744589_1 -51811859_0 -51811859_1" intLanes=":54534761_0_0 :54534761_8_0 :54534761_2_0 :54534761_3_0 :54534761_3_1 :54534761_5_0 :54534761_5_1 :54534761_9_0" shape="210.36,97.34 212.45,91.19 211.55,89.29 199.23,84.82 195.99,93.95 208.36,98.25">
        <request index="0" response="00011000" foes="00011000" cont="0"/>
        <request index="1" response="11111000" foes="11111000" cont="1"/>
        <request index="2" response="00000000" foes="10000000" cont="0"/>
        <request index="3" response="00000000" foes="10000011" cont="0"/>
        <request index="4" response="00000000" foes="10000011" cont="0"/>
        <request index="5" response="00000000" foes="00000010" cont="0"/>
        <request index="6" response="00000000" foes="00000010" cont="0"/>
        <request index="7" response="00011100" foes="00011110" cont="1"/>
    </junction>
    <junction id="54534765" type="dead_end" x="0.00" y="140.79" incLanes="51809012_0" intLanes="" shape="-0.00,140.74 0.23,144.03 0.00,140.84"/>
    <junction id="54534779" type="traffic_light" x="189.92" y="131.42" incLanes="51811859_0 51811859_1 -51809012_0 -763770254_0 -763770254_1" intLanes=":54534779_0_0 :54534779_0_1 :54534779_8_0 :54534779_3_0 :54534779_9_0 :54534779_5_0 :54534779_6_0 :54534779_6_1" shape="196.98,131.04 184.61,126.75 180.05,128.16 180.05,134.66 180.99,136.05 193.13,140.96">
        <request index="0" response="00000000" foes="00010000" cont="0"/>
        <request index="1" response="00000000" foes="00010000" cont="0"/>
        <request index="2" response="11100000" foes="11110000" cont="1"/>
        <request index="3" response="11000000" foes="11000000" cont="0"/>
        <request index="4" response="11000111" foes="11000111" cont="1"/>
        <request index="5" response="00000000" foes="00000100" cont="0"/>
        <request index="6" response="00000000" foes="00011100" cont="0"/>
        <request index="7" response="00000000" foes="00011100" cont="0"/>
    </junction>
    <junction id="54535534" type="dead_end" x="677.72" y="171.72" incLanes="51812270_0" intLanes="" shape="677.72,171.77 677.96,168.48 677.72,171.67"/>
    <junction id="806373935" type="dead_end" x="237.04" y="0.00" incLanes="-717744589_0 -717744589_1" intLanes="" shape="237.09,0.02 230.88,-2.24 236.99,-0.02"/>
    <junction id="838257708" type="dead_end" x="147.32" y="242.91" incLanes="763770254_0 763770254_1" intLanes="" shape="147.27,242.89 153.47,245.17 147.37,242.93"/>

    <junction id=":54534761_8_0" type="internal" x="204.01" y="90.79" incLanes=":54534761_1_0 -51811859_0 -51811859_1" intLanes=":54534761_3_0 :54534761_3_1 :54534761_5_0 :54534761_5_1 :54534761_7_0"/>
    <junction id=":54534761_9_0" type="internal" x="203.56" y="92.34" incLanes=":54534761_7_0 717744589_0 717744589_1" intLanes=":54534761_1_0 :54534761_2_0 :54534761_3_0 :54534761_3_1"/>
    <junction id=":54534779_8_0" type="internal" x="189.65" y="131.70" incLanes=":54534779_2_0 -763770254_0 -763770254_1" intLanes=":54534779_4_0 :54534779_5_0 :54534779_6_0 :54534779_6_1"/>
    <junction id=":54534779_9_0" type="internal" x="188.97" y="133.73" incLanes=":54534779_4_0 51811859_0 51811859_1" intLanes=":54534779_0_0 :54534779_0_1 :54534779_2_0 :54534779_6_0 :54534779_6_1"/>

    <connection from="-51809012" to="-51811859" fromLane="0" toLane="0" via=":54534779_3_0" tl="c2a" linkIndex="11" dir="r" state="o"/>
    <connection from="-51809012" to="763770254" fromLane="0" toLane="1" via=":54534779_4_0" tl="c2a" linkIndex="12" dir="l" state="o"/>
    <connection from="-51811859" to="-717744589" fromLane="0" toLane="0" via=":54534761_5_0" tl="c2a" linkIndex="5" dir="s" state="o"/>
    <connection from="-51811859" to="-717744589" fromLane="1" toLane="1" via=":54534761_5_1" tl="c2a" linkIndex="6" dir="s" state="o"/>
    <connection from="-51811859" to="51812270" fromLane="1" toLane="0" via=":54534761_7_0" tl="c2a" linkIndex="7" dir="l" state="o"/>
    <connection from="-51812270" to="51811859" fromLane="0" toLane="0" via=":54534761_0_0" tl="c2a" linkIndex="0" dir="r" state="o"/>
    <connection from="-51812270" to="-717744589" fromLane="0" toLane="1" via=":54534761_1_0" tl="c2a" linkIndex="1" dir="l" state="o"/>
    <connection from="-763770254" to="51809012" fromLane="0" toLane="0" via=":54534779_5_0" tl="c2a" linkIndex="13" dir="r" state="o"/>
    <connection from="-763770254" to="-51811859" fromLane="0" toLane="0" via=":54534779_6_0" tl="c2a" linkIndex="14" dir="s" state="o"/>
    <connection from="-763770254" to="-51811859" fromLane="1" toLane="1" via=":54534779_6_1" tl="c2a" linkIndex="15" dir="s" state="o"/>
    <connection from="51811859" to="763770254" fromLane="0" toLane="0" via=":54534779_0_0" tl="c2a" linkIndex="8" dir="s" state="o"/>
    <connection from="51811859" to="763770254" fromLane="1" toLane="1" via=":54534779_0_1" tl="c2a" linkIndex="9" dir="s" state="o"/>
    <connection from="51811859" to="51809012" fromLane="1" toLane="0" via=":54534779_2_0" tl="c2a" linkIndex="10" dir="l" state="o"/>
    <connection from="717744589" to="51812270" fromLane="0" toLane="0" via=":54534761_2_0" tl="c2a" linkIndex="2" dir="r" state="o"/>
    <connection from="717744589" to="51811859" fromLane="0" toLane="0" via=":54534761_3_0" tl="c2a" linkIndex="3" dir="s" state="o"/>
    <connection from="717744589" to="51811859" fromLane="1" toLane="1" via=":54534761_3_1" tl="c2a" linkIndex="4" dir="s" state="o"/>

    <connection from=":54534761_0" to="51811859" fromLane="0" toLane="0" dir="s" state="M"/>
    <connection from=":54534761_1" to="-717744589" fromLane="0" toLane="1" via=":54534761_8_0" dir="s" state="m"/>
    <connection from=":54534761_8" to="-717744589" fromLane="0" toLane="1" dir="s" state="M"/>
    <connection from=":54534761_2" to="51812270" fromLane="0" toLane="0" dir="s" state="M"/>
    <connection from=":54534761_3" to="51811859" fromLane="0" toLane="0" dir="s" state="M"/>
    <connection from=":54534761_3" to="51811859" fromLane="1" toLane="1" dir="s" state="M"/>
    <connection from=":54534761_5" to="-717744589" fromLane="0" toLane="0" dir="s" state="M"/>
    <connection from=":54534761_5" to="-717744589" fromLane="1" toLane="1" dir="s" state="M"/>
    <connection from=":54534761_7" to="51812270" fromLane="0" toLane="0" via=":54534761_9_0" dir="s" state="m"/>
    <connection from=":54534761_9" to="51812270" fromLane="0" toLane="0" dir="s" state="M"/>
    <connection from=":54534779_0" to="763770254" fromLane="0" toLane="0" dir="s" state="M"/>
    <connection from=":54534779_0" to="763770254" fromLane="1" toLane="1" dir="s" state="M"/>
    <connection from=":54534779_2" to="51809012" fromLane="0" toLane="0" via=":54534779_8_0" dir="s" state="m"/>
    <connection from=":54534779_8" to="51809012" fromLane="0" toLane="0" dir="s" state="M"/>
    <connection from=":54534779_3" to="-51811859" fromLane="0" toLane="0" dir="s" state="M"/>
    <connection from=":54534779_4" to="763770254" fromLane="0" toLane="1" via=":54534779_9_0" dir="s" state="m"/>
    <connection from=":54534779_9" to="763770254" fromLane="0" toLane="1" dir="s" state="M"/>
    <connection from=":54534779_5" to="51809012" fromLane="0" toLane="0" dir="s" state="M"/>
    <connection from=":54534779_6" to="-51811859" fromLane="0" toLane="0" dir="s" state="M"/>
    <connection from=":54534779_6" to="-51811859" fromLane="1" toLane="1" dir="s" state="M"/>

</net>
