<?xml version="1.0" encoding="UTF-8"?>

<!-- generated on 20.11.2018 13:25:14 by Eclipse SUMO netedit Version v1_0_0+1004-1c7613c4e7
<configuration xmlns:xsi="http://www.w3.org/2001/XMLSchema-instance" xsi:noNamespaceSchemaLocation="http://sumo.dlr.de/xsd/netconvertConfiguration.xsd">

    <input>
        <sumo-net-file value="C:/Users/alva_pa/.texttest/tmp/netedit.gui.20Nov132504.3828/netedit.gui/additionalElements/e2detector/create/timetreshold\input_net.net.xml"/>
    </input>

    <output>
        <output-file value="C:/Users/alva_pa/.texttest/tmp/netedit.gui.20Nov132504.3828/netedit.gui/additionalElements/e2detector/create/timetreshold\net.net.xml"/>
    </output>

    <processing>
        <offset.disable-normalization value="true"/>
        <lefthand value="false"/>
    </processing>

    <junctions>
        <no-turnarounds value="true"/>
        <junctions.corner-detail value="5"/>
        <junctions.limit-turn-speed value="5.5"/>
        <rectangular-lane-cut value="false"/>
    </junctions>

    <pedestrian>
        <walkingareas value="false"/>
    </pedestrian>

    <netedit>
        <additionals-output value="C:/Users/alva_pa/.texttest/tmp/netedit.gui.20Nov132504.3828/netedit.gui/additionalElements/e2detector/create/timetreshold\additionals.xml"/>
        <shapes-output value="C:/Users/alva_pa/.texttest/tmp/netedit.gui.20Nov132504.3828/netedit.gui/additionalElements/e2detector/create/timetreshold\shapes.xml"/>
    </netedit>

    <visualisation>
        <gui-settings-file value="C:/Users/alva_pa/.texttest/tmp/netedit.gui.20Nov132504.3828/netedit.gui/additionalElements/e2detector/create/timetreshold\gui-settings.xml"/>
        <window-size value="700,500"/>
        <window-pos value="50,50"/>
        <gui-testing value="true"/>
        <gui-testing-debug value="true"/>
    </visualisation>

    <report>
        <no-warnings value="true"/>
        <error-log value="C:/Users/alva_pa/.texttest/tmp/netedit.gui.20Nov132504.3828/netedit.gui/additionalElements/e2detector/create/timetreshold\log.txt"/>
    </report>

</configuration>
-->

<additional xmlns:xsi="http://www.w3.org/2001/XMLSchema-instance" xsi:noNamespaceSchemaLocation="http://sumo.dlr.de/xsd/additional_file.xsd">
    <e2Detector id="e2Detector_gneE1_0_0" length="10.00" lane="gneE1_0" pos="33.00" freq="900.00" file="e2Detector_gneE1_0_0.xml" timeThreshold="10.50"/>
</additional>
