<?xml version="1.0"?>

<!-- generated on 05/04/09 15:49:37 by SUMO sumo Version dev-SVN-r7092
<configuration>

   <input>
      <net-file>net.net.xml</net-file>
      <additional-files>input_routes.rou.xml,input_additional.add.xml,input_additional2.add.xml</additional-files>
   </input>

   <time>
      <begin>0</begin>
      <end>1000</end>
   </time>

   <processing>
      <no-duration-log>true</no-duration-log>
      <no-step-log>true</no-step-log>
   </processing>

   <traci_server>
      <remote-port>8863</remote-port>
      <penetration>0.7</penetration>
   </traci_server>

</configuration>
-->

<e3-detector>
   <interval begin="0.00" end="1.00" id="3/1to2/1" meanTravelTime="-1.00" meanSpeed="-1.00" meanHaltsPerVehicle="-1.00" vehicleSum="0" meanSpeedWithin="-1.00" meanHaltsPerVehicleWithin="-1.00" meanDurationWithin="-1.00" vehicleSumWithin="0" meanIntervalSpeedWithin="-1.00" meanIntervalHaltsPerVehicleWithin="-1.00" meanIntervalDurationWithin="-1.00"/>
   <interval begin="0.00" end="1.00" id="4/1to3/1" meanTravelTime="-1.00" meanSpeed="-1.00" meanHaltsPerVehicle="-1.00" vehicleSum="0" meanSpeedWithin="-1.00" meanHaltsPerVehicleWithin="-1.00" meanDurationWithin="-1.00" vehicleSumWithin="0" meanIntervalSpeedWithin="-1.00" meanIntervalHaltsPerVehicleWithin="-1.00" meanIntervalDurationWithin="-1.00"/>
   <interval begin="1.00" end="2.00" id="3/1to2/1" meanTravelTime="-1.00" meanSpeed="-1.00" meanHaltsPerVehicle="-1.00" vehicleSum="0" meanSpeedWithin="-1.00" meanHaltsPerVehicleWithin="-1.00" meanDurationWithin="-1.00" vehicleSumWithin="0" meanIntervalSpeedWithin="-1.00" meanIntervalHaltsPerVehicleWithin="-1.00" meanIntervalDurationWithin="-1.00"/>
   <interval begin="1.00" end="2.00" id="4/1to3/1" meanTravelTime="-1.00" meanSpeed="-1.00" meanHaltsPerVehicle="-1.00" vehicleSum="0" meanSpeedWithin="10.00" meanHaltsPerVehicleWithin="0.00" meanDurationWithin="1.00" vehicleSumWithin="1" meanIntervalSpeedWithin="10.00" meanIntervalHaltsPerVehicleWithin="0.00" meanIntervalDurationWithin="1.00"/>
   <interval begin="2.00" end="3.00" id="3/1to2/1" meanTravelTime="-1.00" meanSpeed="-1.00" meanHaltsPerVehicle="-1.00" vehicleSum="0" meanSpeedWithin="-1.00" meanHaltsPerVehicleWithin="-1.00" meanDurationWithin="-1.00" vehicleSumWithin="0" meanIntervalSpeedWithin="-1.00" meanIntervalHaltsPerVehicleWithin="-1.00" meanIntervalDurationWithin="-1.00"/>
   <interval begin="2.00" end="3.00" id="4/1to3/1" meanTravelTime="-1.00" meanSpeed="-1.00" meanHaltsPerVehicle="-1.00" vehicleSum="0" meanSpeedWithin="10.00" meanHaltsPerVehicleWithin="0.00" meanDurationWithin="2.00" vehicleSumWithin="1" meanIntervalSpeedWithin="10.00" meanIntervalHaltsPerVehicleWithin="0.00" meanIntervalDurationWithin="1.00"/>
   <interval begin="3.00" end="4.00" id="3/1to2/1" meanTravelTime="-1.00" meanSpeed="-1.00" meanHaltsPerVehicle="-1.00" vehicleSum="0" meanSpeedWithin="-1.00" meanHaltsPerVehicleWithin="-1.00" meanDurationWithin="-1.00" vehicleSumWithin="0" meanIntervalSpeedWithin="-1.00" meanIntervalHaltsPerVehicleWithin="-1.00" meanIntervalDurationWithin="-1.00"/>
   <interval begin="3.00" end="4.00" id="4/1to3/1" meanTravelTime="-1.00" meanSpeed="-1.00" meanHaltsPerVehicle="-1.00" vehicleSum="0" meanSpeedWithin="10.00" meanHaltsPerVehicleWithin="0.00" meanDurationWithin="3.00" vehicleSumWithin="1" meanIntervalSpeedWithin="10.00" meanIntervalHaltsPerVehicleWithin="0.00" meanIntervalDurationWithin="1.00"/>
   <interval begin="4.00" end="5.00" id="3/1to2/1" meanTravelTime="-1.00" meanSpeed="-1.00" meanHaltsPerVehicle="-1.00" vehicleSum="0" meanSpeedWithin="-1.00" meanHaltsPerVehicleWithin="-1.00" meanDurationWithin="-1.00" vehicleSumWithin="0" meanIntervalSpeedWithin="-1.00" meanIntervalHaltsPerVehicleWithin="-1.00" meanIntervalDurationWithin="-1.00"/>
   <interval begin="4.00" end="5.00" id="4/1to3/1" meanTravelTime="-1.00" meanSpeed="-1.00" meanHaltsPerVehicle="-1.00" vehicleSum="0" meanSpeedWithin="10.00" meanHaltsPerVehicleWithin="0.00" meanDurationWithin="4.00" vehicleSumWithin="1" meanIntervalSpeedWithin="10.00" meanIntervalHaltsPerVehicleWithin="0.00" meanIntervalDurationWithin="1.00"/>
   <interval begin="5.00" end="6.00" id="3/1to2/1" meanTravelTime="-1.00" meanSpeed="-1.00" meanHaltsPerVehicle="-1.00" vehicleSum="0" meanSpeedWithin="-1.00" meanHaltsPerVehicleWithin="-1.00" meanDurationWithin="-1.00" vehicleSumWithin="0" meanIntervalSpeedWithin="-1.00" meanIntervalHaltsPerVehicleWithin="-1.00" meanIntervalDurationWithin="-1.00"/>
   <interval begin="5.00" end="6.00" id="4/1to3/1" meanTravelTime="-1.00" meanSpeed="-1.00" meanHaltsPerVehicle="-1.00" vehicleSum="0" meanSpeedWithin="10.00" meanHaltsPerVehicleWithin="0.00" meanDurationWithin="5.00" vehicleSumWithin="1" meanIntervalSpeedWithin="10.00" meanIntervalHaltsPerVehicleWithin="0.00" meanIntervalDurationWithin="1.00"/>
   <interval begin="6.00" end="7.00" id="3/1to2/1" meanTravelTime="-1.00" meanSpeed="-1.00" meanHaltsPerVehicle="-1.00" vehicleSum="0" meanSpeedWithin="-1.00" meanHaltsPerVehicleWithin="-1.00" meanDurationWithin="-1.00" vehicleSumWithin="0" meanIntervalSpeedWithin="-1.00" meanIntervalHaltsPerVehicleWithin="-1.00" meanIntervalDurationWithin="-1.00"/>
   <interval begin="6.00" end="7.00" id="4/1to3/1" meanTravelTime="-1.00" meanSpeed="-1.00" meanHaltsPerVehicle="-1.00" vehicleSum="0" meanSpeedWithin="10.00" meanHaltsPerVehicleWithin="0.00" meanDurationWithin="6.00" vehicleSumWithin="1" meanIntervalSpeedWithin="10.00" meanIntervalHaltsPerVehicleWithin="0.00" meanIntervalDurationWithin="1.00"/>
   <interval begin="7.00" end="8.00" id="3/1to2/1" meanTravelTime="-1.00" meanSpeed="-1.00" meanHaltsPerVehicle="-1.00" vehicleSum="0" meanSpeedWithin="-1.00" meanHaltsPerVehicleWithin="-1.00" meanDurationWithin="-1.00" vehicleSumWithin="0" meanIntervalSpeedWithin="-1.00" meanIntervalHaltsPerVehicleWithin="-1.00" meanIntervalDurationWithin="-1.00"/>
   <interval begin="7.00" end="8.00" id="4/1to3/1" meanTravelTime="-1.00" meanSpeed="-1.00" meanHaltsPerVehicle="-1.00" vehicleSum="0" meanSpeedWithin="10.00" meanHaltsPerVehicleWithin="0.00" meanDurationWithin="7.00" vehicleSumWithin="1" meanIntervalSpeedWithin="10.00" meanIntervalHaltsPerVehicleWithin="0.00" meanIntervalDurationWithin="1.00"/>
   <interval begin="8.00" end="9.00" id="3/1to2/1" meanTravelTime="-1.00" meanSpeed="-1.00" meanHaltsPerVehicle="-1.00" vehicleSum="0" meanSpeedWithin="-1.00" meanHaltsPerVehicleWithin="-1.00" meanDurationWithin="-1.00" vehicleSumWithin="0" meanIntervalSpeedWithin="-1.00" meanIntervalHaltsPerVehicleWithin="-1.00" meanIntervalDurationWithin="-1.00"/>
   <interval begin="8.00" end="9.00" id="4/1to3/1" meanTravelTime="-1.00" meanSpeed="-1.00" meanHaltsPerVehicle="-1.00" vehicleSum="0" meanSpeedWithin="10.00" meanHaltsPerVehicleWithin="0.00" meanDurationWithin="8.00" vehicleSumWithin="1" meanIntervalSpeedWithin="10.00" meanIntervalHaltsPerVehicleWithin="0.00" meanIntervalDurationWithin="1.00"/>
   <interval begin="9.00" end="10.00" id="3/1to2/1" meanTravelTime="-1.00" meanSpeed="-1.00" meanHaltsPerVehicle="-1.00" vehicleSum="0" meanSpeedWithin="-1.00" meanHaltsPerVehicleWithin="-1.00" meanDurationWithin="-1.00" vehicleSumWithin="0" meanIntervalSpeedWithin="-1.00" meanIntervalHaltsPerVehicleWithin="-1.00" meanIntervalDurationWithin="-1.00"/>
   <interval begin="9.00" end="10.00" id="4/1to3/1" meanTravelTime="-1.00" meanSpeed="-1.00" meanHaltsPerVehicle="-1.00" vehicleSum="0" meanSpeedWithin="10.00" meanHaltsPerVehicleWithin="0.00" meanDurationWithin="9.00" vehicleSumWithin="1" meanIntervalSpeedWithin="10.00" meanIntervalHaltsPerVehicleWithin="0.00" meanIntervalDurationWithin="1.00"/>
   <interval begin="10.00" end="11.00" id="3/1to2/1" meanTravelTime="-1.00" meanSpeed="-1.00" meanHaltsPerVehicle="-1.00" vehicleSum="0" meanSpeedWithin="-1.00" meanHaltsPerVehicleWithin="-1.00" meanDurationWithin="-1.00" vehicleSumWithin="0" meanIntervalSpeedWithin="-1.00" meanIntervalHaltsPerVehicleWithin="-1.00" meanIntervalDurationWithin="-1.00"/>
   <interval begin="10.00" end="11.00" id="4/1to3/1" meanTravelTime="-1.00" meanSpeed="-1.00" meanHaltsPerVehicle="-1.00" vehicleSum="0" meanSpeedWithin="10.00" meanHaltsPerVehicleWithin="0.00" meanDurationWithin="10.00" vehicleSumWithin="1" meanIntervalSpeedWithin="10.00" meanIntervalHaltsPerVehicleWithin="0.00" meanIntervalDurationWithin="1.00"/>
   <interval begin="11.00" end="12.00" id="3/1to2/1" meanTravelTime="-1.00" meanSpeed="-1.00" meanHaltsPerVehicle="-1.00" vehicleSum="0" meanSpeedWithin="-1.00" meanHaltsPerVehicleWithin="-1.00" meanDurationWithin="-1.00" vehicleSumWithin="0" meanIntervalSpeedWithin="-1.00" meanIntervalHaltsPerVehicleWithin="-1.00" meanIntervalDurationWithin="-1.00"/>
   <interval begin="11.00" end="12.00" id="4/1to3/1" meanTravelTime="-1.00" meanSpeed="-1.00" meanHaltsPerVehicle="-1.00" vehicleSum="0" meanSpeedWithin="10.00" meanHaltsPerVehicleWithin="0.00" meanDurationWithin="11.00" vehicleSumWithin="1" meanIntervalSpeedWithin="10.00" meanIntervalHaltsPerVehicleWithin="0.00" meanIntervalDurationWithin="1.00"/>
   <interval begin="12.00" end="13.00" id="3/1to2/1" meanTravelTime="-1.00" meanSpeed="-1.00" meanHaltsPerVehicle="-1.00" vehicleSum="0" meanSpeedWithin="-1.00" meanHaltsPerVehicleWithin="-1.00" meanDurationWithin="-1.00" vehicleSumWithin="0" meanIntervalSpeedWithin="-1.00" meanIntervalHaltsPerVehicleWithin="-1.00" meanIntervalDurationWithin="-1.00"/>
   <interval begin="12.00" end="13.00" id="4/1to3/1" meanTravelTime="-1.00" meanSpeed="-1.00" meanHaltsPerVehicle="-1.00" vehicleSum="0" meanSpeedWithin="10.00" meanHaltsPerVehicleWithin="0.00" meanDurationWithin="12.00" vehicleSumWithin="1" meanIntervalSpeedWithin="10.00" meanIntervalHaltsPerVehicleWithin="0.00" meanIntervalDurationWithin="1.00"/>
   <interval begin="13.00" end="14.00" id="3/1to2/1" meanTravelTime="-1.00" meanSpeed="-1.00" meanHaltsPerVehicle="-1.00" vehicleSum="0" meanSpeedWithin="-1.00" meanHaltsPerVehicleWithin="-1.00" meanDurationWithin="-1.00" vehicleSumWithin="0" meanIntervalSpeedWithin="-1.00" meanIntervalHaltsPerVehicleWithin="-1.00" meanIntervalDurationWithin="-1.00"/>
   <interval begin="13.00" end="14.00" id="4/1to3/1" meanTravelTime="-1.00" meanSpeed="-1.00" meanHaltsPerVehicle="-1.00" vehicleSum="0" meanSpeedWithin="10.00" meanHaltsPerVehicleWithin="0.00" meanDurationWithin="13.00" vehicleSumWithin="1" meanIntervalSpeedWithin="10.00" meanIntervalHaltsPerVehicleWithin="0.00" meanIntervalDurationWithin="1.00"/>
   <interval begin="14.00" end="15.00" id="3/1to2/1" meanTravelTime="-1.00" meanSpeed="-1.00" meanHaltsPerVehicle="-1.00" vehicleSum="0" meanSpeedWithin="-1.00" meanHaltsPerVehicleWithin="-1.00" meanDurationWithin="-1.00" vehicleSumWithin="0" meanIntervalSpeedWithin="-1.00" meanIntervalHaltsPerVehicleWithin="-1.00" meanIntervalDurationWithin="-1.00"/>
   <interval begin="14.00" end="15.00" id="4/1to3/1" meanTravelTime="-1.00" meanSpeed="-1.00" meanHaltsPerVehicle="-1.00" vehicleSum="0" meanSpeedWithin="10.00" meanHaltsPerVehicleWithin="0.00" meanDurationWithin="14.00" vehicleSumWithin="1" meanIntervalSpeedWithin="10.00" meanIntervalHaltsPerVehicleWithin="0.00" meanIntervalDurationWithin="1.00"/>
   <interval begin="15.00" end="16.00" id="3/1to2/1" meanTravelTime="-1.00" meanSpeed="-1.00" meanHaltsPerVehicle="-1.00" vehicleSum="0" meanSpeedWithin="-1.00" meanHaltsPerVehicleWithin="-1.00" meanDurationWithin="-1.00" vehicleSumWithin="0" meanIntervalSpeedWithin="-1.00" meanIntervalHaltsPerVehicleWithin="-1.00" meanIntervalDurationWithin="-1.00"/>
   <interval begin="15.00" end="16.00" id="4/1to3/1" meanTravelTime="-1.00" meanSpeed="-1.00" meanHaltsPerVehicle="-1.00" vehicleSum="0" meanSpeedWithin="10.00" meanHaltsPerVehicleWithin="0.00" meanDurationWithin="15.00" vehicleSumWithin="1" meanIntervalSpeedWithin="10.00" meanIntervalHaltsPerVehicleWithin="0.00" meanIntervalDurationWithin="1.00"/>
   <interval begin="16.00" end="17.00" id="3/1to2/1" meanTravelTime="-1.00" meanSpeed="-1.00" meanHaltsPerVehicle="-1.00" vehicleSum="0" meanSpeedWithin="-1.00" meanHaltsPerVehicleWithin="-1.00" meanDurationWithin="-1.00" vehicleSumWithin="0" meanIntervalSpeedWithin="-1.00" meanIntervalHaltsPerVehicleWithin="-1.00" meanIntervalDurationWithin="-1.00"/>
   <interval begin="16.00" end="17.00" id="4/1to3/1" meanTravelTime="-1.00" meanSpeed="-1.00" meanHaltsPerVehicle="-1.00" vehicleSum="0" meanSpeedWithin="10.00" meanHaltsPerVehicleWithin="0.00" meanDurationWithin="16.00" vehicleSumWithin="1" meanIntervalSpeedWithin="10.00" meanIntervalHaltsPerVehicleWithin="0.00" meanIntervalDurationWithin="1.00"/>
   <interval begin="17.00" end="18.00" id="3/1to2/1" meanTravelTime="-1.00" meanSpeed="-1.00" meanHaltsPerVehicle="-1.00" vehicleSum="0" meanSpeedWithin="-1.00" meanHaltsPerVehicleWithin="-1.00" meanDurationWithin="-1.00" vehicleSumWithin="0" meanIntervalSpeedWithin="-1.00" meanIntervalHaltsPerVehicleWithin="-1.00" meanIntervalDurationWithin="-1.00"/>
   <interval begin="17.00" end="18.00" id="4/1to3/1" meanTravelTime="-1.00" meanSpeed="-1.00" meanHaltsPerVehicle="-1.00" vehicleSum="0" meanSpeedWithin="10.00" meanHaltsPerVehicleWithin="0.00" meanDurationWithin="17.00" vehicleSumWithin="1" meanIntervalSpeedWithin="10.00" meanIntervalHaltsPerVehicleWithin="0.00" meanIntervalDurationWithin="1.00"/>
   <interval begin="18.00" end="19.00" id="3/1to2/1" meanTravelTime="-1.00" meanSpeed="-1.00" meanHaltsPerVehicle="-1.00" vehicleSum="0" meanSpeedWithin="-1.00" meanHaltsPerVehicleWithin="-1.00" meanDurationWithin="-1.00" vehicleSumWithin="0" meanIntervalSpeedWithin="-1.00" meanIntervalHaltsPerVehicleWithin="-1.00" meanIntervalDurationWithin="-1.00"/>
   <interval begin="18.00" end="19.00" id="4/1to3/1" meanTravelTime="-1.00" meanSpeed="-1.00" meanHaltsPerVehicle="-1.00" vehicleSum="0" meanSpeedWithin="10.00" meanHaltsPerVehicleWithin="0.00" meanDurationWithin="18.00" vehicleSumWithin="1" meanIntervalSpeedWithin="10.00" meanIntervalHaltsPerVehicleWithin="0.00" meanIntervalDurationWithin="1.00"/>
   <interval begin="19.00" end="20.00" id="3/1to2/1" meanTravelTime="-1.00" meanSpeed="-1.00" meanHaltsPerVehicle="-1.00" vehicleSum="0" meanSpeedWithin="-1.00" meanHaltsPerVehicleWithin="-1.00" meanDurationWithin="-1.00" vehicleSumWithin="0" meanIntervalSpeedWithin="-1.00" meanIntervalHaltsPerVehicleWithin="-1.00" meanIntervalDurationWithin="-1.00"/>
   <interval begin="19.00" end="20.00" id="4/1to3/1" meanTravelTime="-1.00" meanSpeed="-1.00" meanHaltsPerVehicle="-1.00" vehicleSum="0" meanSpeedWithin="10.00" meanHaltsPerVehicleWithin="0.00" meanDurationWithin="19.00" vehicleSumWithin="1" meanIntervalSpeedWithin="10.00" meanIntervalHaltsPerVehicleWithin="0.00" meanIntervalDurationWithin="1.00"/>
   <interval begin="20.00" end="21.00" id="3/1to2/1" meanTravelTime="-1.00" meanSpeed="-1.00" meanHaltsPerVehicle="-1.00" vehicleSum="0" meanSpeedWithin="-1.00" meanHaltsPerVehicleWithin="-1.00" meanDurationWithin="-1.00" vehicleSumWithin="0" meanIntervalSpeedWithin="-1.00" meanIntervalHaltsPerVehicleWithin="-1.00" meanIntervalDurationWithin="-1.00"/>
   <interval begin="20.00" end="21.00" id="4/1to3/1" meanTravelTime="-1.00" meanSpeed="-1.00" meanHaltsPerVehicle="-1.00" vehicleSum="0" meanSpeedWithin="10.00" meanHaltsPerVehicleWithin="0.00" meanDurationWithin="20.00" vehicleSumWithin="1" meanIntervalSpeedWithin="10.00" meanIntervalHaltsPerVehicleWithin="0.00" meanIntervalDurationWithin="1.00"/>
   <interval begin="21.00" end="22.00" id="3/1to2/1" meanTravelTime="-1.00" meanSpeed="-1.00" meanHaltsPerVehicle="-1.00" vehicleSum="0" meanSpeedWithin="-1.00" meanHaltsPerVehicleWithin="-1.00" meanDurationWithin="-1.00" vehicleSumWithin="0" meanIntervalSpeedWithin="-1.00" meanIntervalHaltsPerVehicleWithin="-1.00" meanIntervalDurationWithin="-1.00"/>
   <interval begin="21.00" end="22.00" id="4/1to3/1" meanTravelTime="20.00" meanSpeed="10.00" meanHaltsPerVehicle="0.00" vehicleSum="1" meanSpeedWithin="-1.00" meanHaltsPerVehicleWithin="-1.00" meanDurationWithin="-1.00" vehicleSumWithin="0" meanIntervalSpeedWithin="-1.00" meanIntervalHaltsPerVehicleWithin="-1.00" meanIntervalDurationWithin="-1.00"/>
   <interval begin="22.00" end="23.00" id="3/1to2/1" meanTravelTime="-1.00" meanSpeed="-1.00" meanHaltsPerVehicle="-1.00" vehicleSum="0" meanSpeedWithin="-1.00" meanHaltsPerVehicleWithin="-1.00" meanDurationWithin="-1.00" vehicleSumWithin="0" meanIntervalSpeedWithin="-1.00" meanIntervalHaltsPerVehicleWithin="-1.00" meanIntervalDurationWithin="-1.00"/>
   <interval begin="22.00" end="23.00" id="4/1to3/1" meanTravelTime="-1.00" meanSpeed="-1.00" meanHaltsPerVehicle="-1.00" vehicleSum="0" meanSpeedWithin="-1.00" meanHaltsPerVehicleWithin="-1.00" meanDurationWithin="-1.00" vehicleSumWithin="0" meanIntervalSpeedWithin="-1.00" meanIntervalHaltsPerVehicleWithin="-1.00" meanIntervalDurationWithin="-1.00"/>
   <interval begin="23.00" end="24.00" id="3/1to2/1" meanTravelTime="-1.00" meanSpeed="-1.00" meanHaltsPerVehicle="-1.00" vehicleSum="0" meanSpeedWithin="-1.00" meanHaltsPerVehicleWithin="-1.00" meanDurationWithin="-1.00" vehicleSumWithin="0" meanIntervalSpeedWithin="-1.00" meanIntervalHaltsPerVehicleWithin="-1.00" meanIntervalDurationWithin="-1.00"/>
   <interval begin="23.00" end="24.00" id="4/1to3/1" meanTravelTime="-1.00" meanSpeed="-1.00" meanHaltsPerVehicle="-1.00" vehicleSum="0" meanSpeedWithin="-1.00" meanHaltsPerVehicleWithin="-1.00" meanDurationWithin="-1.00" vehicleSumWithin="0" meanIntervalSpeedWithin="-1.00" meanIntervalHaltsPerVehicleWithin="-1.00" meanIntervalDurationWithin="-1.00"/>
   <interval begin="24.00" end="25.00" id="3/1to2/1" meanTravelTime="-1.00" meanSpeed="-1.00" meanHaltsPerVehicle="-1.00" vehicleSum="0" meanSpeedWithin="-1.00" meanHaltsPerVehicleWithin="-1.00" meanDurationWithin="-1.00" vehicleSumWithin="0" meanIntervalSpeedWithin="-1.00" meanIntervalHaltsPerVehicleWithin="-1.00" meanIntervalDurationWithin="-1.00"/>
   <interval begin="24.00" end="25.00" id="4/1to3/1" meanTravelTime="-1.00" meanSpeed="-1.00" meanHaltsPerVehicle="-1.00" vehicleSum="0" meanSpeedWithin="-1.00" meanHaltsPerVehicleWithin="-1.00" meanDurationWithin="-1.00" vehicleSumWithin="0" meanIntervalSpeedWithin="-1.00" meanIntervalHaltsPerVehicleWithin="-1.00" meanIntervalDurationWithin="-1.00"/>
   <interval begin="25.00" end="26.00" id="3/1to2/1" meanTravelTime="-1.00" meanSpeed="-1.00" meanHaltsPerVehicle="-1.00" vehicleSum="0" meanSpeedWithin="-1.00" meanHaltsPerVehicleWithin="-1.00" meanDurationWithin="-1.00" vehicleSumWithin="0" meanIntervalSpeedWithin="-1.00" meanIntervalHaltsPerVehicleWithin="-1.00" meanIntervalDurationWithin="-1.00"/>
   <interval begin="25.00" end="26.00" id="4/1to3/1" meanTravelTime="-1.00" meanSpeed="-1.00" meanHaltsPerVehicle="-1.00" vehicleSum="0" meanSpeedWithin="-1.00" meanHaltsPerVehicleWithin="-1.00" meanDurationWithin="-1.00" vehicleSumWithin="0" meanIntervalSpeedWithin="-1.00" meanIntervalHaltsPerVehicleWithin="-1.00" meanIntervalDurationWithin="-1.00"/>
   <interval begin="26.00" end="27.00" id="3/1to2/1" meanTravelTime="-1.00" meanSpeed="-1.00" meanHaltsPerVehicle="-1.00" vehicleSum="0" meanSpeedWithin="-1.00" meanHaltsPerVehicleWithin="-1.00" meanDurationWithin="-1.00" vehicleSumWithin="0" meanIntervalSpeedWithin="-1.00" meanIntervalHaltsPerVehicleWithin="-1.00" meanIntervalDurationWithin="-1.00"/>
   <interval begin="26.00" end="27.00" id="4/1to3/1" meanTravelTime="-1.00" meanSpeed="-1.00" meanHaltsPerVehicle="-1.00" vehicleSum="0" meanSpeedWithin="-1.00" meanHaltsPerVehicleWithin="-1.00" meanDurationWithin="-1.00" vehicleSumWithin="0" meanIntervalSpeedWithin="-1.00" meanIntervalHaltsPerVehicleWithin="-1.00" meanIntervalDurationWithin="-1.00"/>
   <interval begin="27.00" end="28.00" id="3/1to2/1" meanTravelTime="-1.00" meanSpeed="-1.00" meanHaltsPerVehicle="-1.00" vehicleSum="0" meanSpeedWithin="-1.00" meanHaltsPerVehicleWithin="-1.00" meanDurationWithin="-1.00" vehicleSumWithin="0" meanIntervalSpeedWithin="-1.00" meanIntervalHaltsPerVehicleWithin="-1.00" meanIntervalDurationWithin="-1.00"/>
   <interval begin="27.00" end="28.00" id="4/1to3/1" meanTravelTime="-1.00" meanSpeed="-1.00" meanHaltsPerVehicle="-1.00" vehicleSum="0" meanSpeedWithin="-1.00" meanHaltsPerVehicleWithin="-1.00" meanDurationWithin="-1.00" vehicleSumWithin="0" meanIntervalSpeedWithin="-1.00" meanIntervalHaltsPerVehicleWithin="-1.00" meanIntervalDurationWithin="-1.00"/>
   <interval begin="28.00" end="29.00" id="3/1to2/1" meanTravelTime="-1.00" meanSpeed="-1.00" meanHaltsPerVehicle="-1.00" vehicleSum="0" meanSpeedWithin="-1.00" meanHaltsPerVehicleWithin="-1.00" meanDurationWithin="-1.00" vehicleSumWithin="0" meanIntervalSpeedWithin="-1.00" meanIntervalHaltsPerVehicleWithin="-1.00" meanIntervalDurationWithin="-1.00"/>
   <interval begin="28.00" end="29.00" id="4/1to3/1" meanTravelTime="-1.00" meanSpeed="-1.00" meanHaltsPerVehicle="-1.00" vehicleSum="0" meanSpeedWithin="-1.00" meanHaltsPerVehicleWithin="-1.00" meanDurationWithin="-1.00" vehicleSumWithin="0" meanIntervalSpeedWithin="-1.00" meanIntervalHaltsPerVehicleWithin="-1.00" meanIntervalDurationWithin="-1.00"/>
   <interval begin="29.00" end="30.00" id="3/1to2/1" meanTravelTime="-1.00" meanSpeed="-1.00" meanHaltsPerVehicle="-1.00" vehicleSum="0" meanSpeedWithin="-1.00" meanHaltsPerVehicleWithin="-1.00" meanDurationWithin="-1.00" vehicleSumWithin="0" meanIntervalSpeedWithin="-1.00" meanIntervalHaltsPerVehicleWithin="-1.00" meanIntervalDurationWithin="-1.00"/>
   <interval begin="29.00" end="30.00" id="4/1to3/1" meanTravelTime="-1.00" meanSpeed="-1.00" meanHaltsPerVehicle="-1.00" vehicleSum="0" meanSpeedWithin="-1.00" meanHaltsPerVehicleWithin="-1.00" meanDurationWithin="-1.00" vehicleSumWithin="0" meanIntervalSpeedWithin="-1.00" meanIntervalHaltsPerVehicleWithin="-1.00" meanIntervalDurationWithin="-1.00"/>
   <interval begin="30.00" end="31.00" id="3/1to2/1" meanTravelTime="-1.00" meanSpeed="-1.00" meanHaltsPerVehicle="-1.00" vehicleSum="0" meanSpeedWithin="-1.00" meanHaltsPerVehicleWithin="-1.00" meanDurationWithin="-1.00" vehicleSumWithin="0" meanIntervalSpeedWithin="-1.00" meanIntervalHaltsPerVehicleWithin="-1.00" meanIntervalDurationWithin="-1.00"/>
   <interval begin="30.00" end="31.00" id="4/1to3/1" meanTravelTime="-1.00" meanSpeed="-1.00" meanHaltsPerVehicle="-1.00" vehicleSum="0" meanSpeedWithin="-1.00" meanHaltsPerVehicleWithin="-1.00" meanDurationWithin="-1.00" vehicleSumWithin="0" meanIntervalSpeedWithin="-1.00" meanIntervalHaltsPerVehicleWithin="-1.00" meanIntervalDurationWithin="-1.00"/>
   <interval begin="31.00" end="32.00" id="3/1to2/1" meanTravelTime="-1.00" meanSpeed="-1.00" meanHaltsPerVehicle="-1.00" vehicleSum="0" meanSpeedWithin="-1.00" meanHaltsPerVehicleWithin="-1.00" meanDurationWithin="-1.00" vehicleSumWithin="0" meanIntervalSpeedWithin="-1.00" meanIntervalHaltsPerVehicleWithin="-1.00" meanIntervalDurationWithin="-1.00"/>
   <interval begin="31.00" end="32.00" id="4/1to3/1" meanTravelTime="-1.00" meanSpeed="-1.00" meanHaltsPerVehicle="-1.00" vehicleSum="0" meanSpeedWithin="-1.00" meanHaltsPerVehicleWithin="-1.00" meanDurationWithin="-1.00" vehicleSumWithin="0" meanIntervalSpeedWithin="-1.00" meanIntervalHaltsPerVehicleWithin="-1.00" meanIntervalDurationWithin="-1.00"/>
   <interval begin="32.00" end="33.00" id="3/1to2/1" meanTravelTime="-1.00" meanSpeed="-1.00" meanHaltsPerVehicle="-1.00" vehicleSum="0" meanSpeedWithin="-1.00" meanHaltsPerVehicleWithin="-1.00" meanDurationWithin="-1.00" vehicleSumWithin="0" meanIntervalSpeedWithin="-1.00" meanIntervalHaltsPerVehicleWithin="-1.00" meanIntervalDurationWithin="-1.00"/>
   <interval begin="32.00" end="33.00" id="4/1to3/1" meanTravelTime="-1.00" meanSpeed="-1.00" meanHaltsPerVehicle="-1.00" vehicleSum="0" meanSpeedWithin="-1.00" meanHaltsPerVehicleWithin="-1.00" meanDurationWithin="-1.00" vehicleSumWithin="0" meanIntervalSpeedWithin="-1.00" meanIntervalHaltsPerVehicleWithin="-1.00" meanIntervalDurationWithin="-1.00"/>
   <interval begin="33.00" end="34.00" id="3/1to2/1" meanTravelTime="-1.00" meanSpeed="-1.00" meanHaltsPerVehicle="-1.00" vehicleSum="0" meanSpeedWithin="-1.00" meanHaltsPerVehicleWithin="-1.00" meanDurationWithin="-1.00" vehicleSumWithin="0" meanIntervalSpeedWithin="-1.00" meanIntervalHaltsPerVehicleWithin="-1.00" meanIntervalDurationWithin="-1.00"/>
   <interval begin="33.00" end="34.00" id="4/1to3/1" meanTravelTime="-1.00" meanSpeed="-1.00" meanHaltsPerVehicle="-1.00" vehicleSum="0" meanSpeedWithin="-1.00" meanHaltsPerVehicleWithin="-1.00" meanDurationWithin="-1.00" vehicleSumWithin="0" meanIntervalSpeedWithin="-1.00" meanIntervalHaltsPerVehicleWithin="-1.00" meanIntervalDurationWithin="-1.00"/>
   <interval begin="34.00" end="35.00" id="3/1to2/1" meanTravelTime="-1.00" meanSpeed="-1.00" meanHaltsPerVehicle="-1.00" vehicleSum="0" meanSpeedWithin="-1.00" meanHaltsPerVehicleWithin="-1.00" meanDurationWithin="-1.00" vehicleSumWithin="0" meanIntervalSpeedWithin="-1.00" meanIntervalHaltsPerVehicleWithin="-1.00" meanIntervalDurationWithin="-1.00"/>
   <interval begin="34.00" end="35.00" id="4/1to3/1" meanTravelTime="-1.00" meanSpeed="-1.00" meanHaltsPerVehicle="-1.00" vehicleSum="0" meanSpeedWithin="-1.00" meanHaltsPerVehicleWithin="-1.00" meanDurationWithin="-1.00" vehicleSumWithin="0" meanIntervalSpeedWithin="-1.00" meanIntervalHaltsPerVehicleWithin="-1.00" meanIntervalDurationWithin="-1.00"/>
   <interval begin="35.00" end="36.00" id="3/1to2/1" meanTravelTime="-1.00" meanSpeed="-1.00" meanHaltsPerVehicle="-1.00" vehicleSum="0" meanSpeedWithin="-1.00" meanHaltsPerVehicleWithin="-1.00" meanDurationWithin="-1.00" vehicleSumWithin="0" meanIntervalSpeedWithin="-1.00" meanIntervalHaltsPerVehicleWithin="-1.00" meanIntervalDurationWithin="-1.00"/>
   <interval begin="35.00" end="36.00" id="4/1to3/1" meanTravelTime="-1.00" meanSpeed="-1.00" meanHaltsPerVehicle="-1.00" vehicleSum="0" meanSpeedWithin="-1.00" meanHaltsPerVehicleWithin="-1.00" meanDurationWithin="-1.00" vehicleSumWithin="0" meanIntervalSpeedWithin="-1.00" meanIntervalHaltsPerVehicleWithin="-1.00" meanIntervalDurationWithin="-1.00"/>
   <interval begin="36.00" end="37.00" id="3/1to2/1" meanTravelTime="-1.00" meanSpeed="-1.00" meanHaltsPerVehicle="-1.00" vehicleSum="0" meanSpeedWithin="-1.00" meanHaltsPerVehicleWithin="-1.00" meanDurationWithin="-1.00" vehicleSumWithin="0" meanIntervalSpeedWithin="-1.00" meanIntervalHaltsPerVehicleWithin="-1.00" meanIntervalDurationWithin="-1.00"/>
   <interval begin="36.00" end="37.00" id="4/1to3/1" meanTravelTime="-1.00" meanSpeed="-1.00" meanHaltsPerVehicle="-1.00" vehicleSum="0" meanSpeedWithin="-1.00" meanHaltsPerVehicleWithin="-1.00" meanDurationWithin="-1.00" vehicleSumWithin="0" meanIntervalSpeedWithin="-1.00" meanIntervalHaltsPerVehicleWithin="-1.00" meanIntervalDurationWithin="-1.00"/>
   <interval begin="37.00" end="38.00" id="3/1to2/1" meanTravelTime="-1.00" meanSpeed="-1.00" meanHaltsPerVehicle="-1.00" vehicleSum="0" meanSpeedWithin="-1.00" meanHaltsPerVehicleWithin="-1.00" meanDurationWithin="-1.00" vehicleSumWithin="0" meanIntervalSpeedWithin="-1.00" meanIntervalHaltsPerVehicleWithin="-1.00" meanIntervalDurationWithin="-1.00"/>
   <interval begin="37.00" end="38.00" id="4/1to3/1" meanTravelTime="-1.00" meanSpeed="-1.00" meanHaltsPerVehicle="-1.00" vehicleSum="0" meanSpeedWithin="-1.00" meanHaltsPerVehicleWithin="-1.00" meanDurationWithin="-1.00" vehicleSumWithin="0" meanIntervalSpeedWithin="-1.00" meanIntervalHaltsPerVehicleWithin="-1.00" meanIntervalDurationWithin="-1.00"/>
   <interval begin="38.00" end="39.00" id="3/1to2/1" meanTravelTime="-1.00" meanSpeed="-1.00" meanHaltsPerVehicle="-1.00" vehicleSum="0" meanSpeedWithin="-1.00" meanHaltsPerVehicleWithin="-1.00" meanDurationWithin="-1.00" vehicleSumWithin="0" meanIntervalSpeedWithin="-1.00" meanIntervalHaltsPerVehicleWithin="-1.00" meanIntervalDurationWithin="-1.00"/>
   <interval begin="38.00" end="39.00" id="4/1to3/1" meanTravelTime="-1.00" meanSpeed="-1.00" meanHaltsPerVehicle="-1.00" vehicleSum="0" meanSpeedWithin="-1.00" meanHaltsPerVehicleWithin="-1.00" meanDurationWithin="-1.00" vehicleSumWithin="0" meanIntervalSpeedWithin="-1.00" meanIntervalHaltsPerVehicleWithin="-1.00" meanIntervalDurationWithin="-1.00"/>
   <interval begin="39.00" end="40.00" id="3/1to2/1" meanTravelTime="-1.00" meanSpeed="-1.00" meanHaltsPerVehicle="-1.00" vehicleSum="0" meanSpeedWithin="-1.00" meanHaltsPerVehicleWithin="-1.00" meanDurationWithin="-1.00" vehicleSumWithin="0" meanIntervalSpeedWithin="-1.00" meanIntervalHaltsPerVehicleWithin="-1.00" meanIntervalDurationWithin="-1.00"/>
   <interval begin="39.00" end="40.00" id="4/1to3/1" meanTravelTime="-1.00" meanSpeed="-1.00" meanHaltsPerVehicle="-1.00" vehicleSum="0" meanSpeedWithin="-1.00" meanHaltsPerVehicleWithin="-1.00" meanDurationWithin="-1.00" vehicleSumWithin="0" meanIntervalSpeedWithin="-1.00" meanIntervalHaltsPerVehicleWithin="-1.00" meanIntervalDurationWithin="-1.00"/>
   <interval begin="40.00" end="41.00" id="3/1to2/1" meanTravelTime="-1.00" meanSpeed="-1.00" meanHaltsPerVehicle="-1.00" vehicleSum="0" meanSpeedWithin="10.00" meanHaltsPerVehicleWithin="0.00" meanDurationWithin="0.95" vehicleSumWithin="1" meanIntervalSpeedWithin="10.00" meanIntervalHaltsPerVehicleWithin="0.00" meanIntervalDurationWithin="0.95"/>
   <interval begin="40.00" end="41.00" id="4/1to3/1" meanTravelTime="-1.00" meanSpeed="-1.00" meanHaltsPerVehicle="-1.00" vehicleSum="0" meanSpeedWithin="-1.00" meanHaltsPerVehicleWithin="-1.00" meanDurationWithin="-1.00" vehicleSumWithin="0" meanIntervalSpeedWithin="-1.00" meanIntervalHaltsPerVehicleWithin="-1.00" meanIntervalDurationWithin="-1.00"/>
   <interval begin="41.00" end="42.00" id="3/1to2/1" meanTravelTime="-1.00" meanSpeed="-1.00" meanHaltsPerVehicle="-1.00" vehicleSum="0" meanSpeedWithin="10.00" meanHaltsPerVehicleWithin="0.00" meanDurationWithin="1.95" vehicleSumWithin="1" meanIntervalSpeedWithin="10.00" meanIntervalHaltsPerVehicleWithin="0.00" meanIntervalDurationWithin="1.00"/>