<additional>
   <tlLogic id="1/1" type="static" programID="prog1" offset="0">
      <phase duration="10" state="GGGGGGGGGGGGGGGG"/>
      <phase duration="10" state="rrrrrrrrrrrrrrrr"/>
   </tlLogic>
</additional>
