<?xml version="1.0" encoding="UTF-8"?>

<!-- generated on 2021-06-30 09:10:36 by Eclipse SUMO netedit Version v1_9_2+0753-225fb93a20
-->

<additional xmlns:xsi="http://www.w3.org/2001/XMLSchema-instance" xsi:noNamespaceSchemaLocation="http://sumo.dlr.de/xsd/additional_file.xsd">
    <busStop id="bs_0" lane="gneE0_0" startPos="24.00" endPos="34.00">
        <access lane="gneE1_0" pos="29.00"/>
    </busStop>
</additional>
