<?xml version="1.0" encoding="UTF-8"?>

<!-- generated on 2022-10-04 14:20:04 by Eclipse SUMO netedit Version v1_14_1+1411-dc2522155a5
-->

<routes xmlns:xsi="http://www.w3.org/2001/XMLSchema-instance" xsi:noNamespaceSchemaLocation="http://sumo.dlr.de/xsd/routes_file.xsd">
    <!-- Vehicles, persons and containers (sorted by depart) -->
    <flow id="f_0" begin="0.00" departPosLat="5.60" end="3600.00" vehsPerHour="1800.00">
        <route edges="gneE2 gneE4 gneE5"/>
    </flow>
</routes>
