<?xml version="1.0" encoding="UTF-8"?>

<!-- generated on 2024-08-05 15:46:30 by Eclipse SUMO netedit Version v1_20_0+1528-fbf81e3bf5b
This data file and the accompanying materials
are made available under the terms of the Eclipse Public License v2.0
which accompanies this distribution, and is available at
http://www.eclipse.org/legal/epl-v20.html
This file may also be made available under the following Secondary
Licenses when the conditions for such availability set forth in the Eclipse
Public License 2.0 are satisfied: GNU General Public License, version 2
or later which is available at
https://www.gnu.org/licenses/old-licenses/gpl-2.0-standalone.html
SPDX-License-Identifier: EPL-2.0 OR GPL-2.0-or-later
<neteditConfiguration xmlns:xsi="http://www.w3.org/2001/XMLSchema-instance" xsi:noNamespaceSchemaLocation="http://sumo.dlr.de/xsd/neteditConfiguration.xsd">

    <input>
        <additional-files value="C:\Users\alva_pa\.texttest\tmp\netedit.gui.05Aug154536.15940\netedit.gui\network\edges\contextual_menu\edge_operations\straigthen_edge\additionals.add.xml"/>
        <route-files value="C:\Users\alva_pa\.texttest\tmp\netedit.gui.05Aug154536.15940\netedit.gui\network\edges\contextual_menu\edge_operations\straigthen_edge\routes.rou.xml"/>
        <data-files value="C:\Users\alva_pa\.texttest\tmp\netedit.gui.05Aug154536.15940\netedit.gui\network\edges\contextual_menu\edge_operations\straigthen_edge\datas.dat.xml"/>
        <sumo-net-file value="C:\Users\alva_pa\.texttest\tmp\netedit.gui.05Aug154536.15940\netedit.gui\network\edges\contextual_menu\edge_operations\straigthen_edge\net.net.xml"/>
    </input>

    <output>
        <write-license value="true"/>
        <output-file value="C:\Users\alva_pa\.texttest\tmp\netedit.gui.05Aug154536.15940\netedit.gui\network\edges\contextual_menu\edge_operations\straigthen_edge\net.net.xml"/>
    </output>

    <processing>
        <geometry.min-radius.fix.railways value="false"/>
        <geometry.max-grade.fix value="false"/>
        <offset.disable-normalization value="true"/>
        <lefthand value="0"/>
    </processing>

    <junctions>
        <no-turnarounds value="true"/>
        <junctions.corner-detail value="5"/>
        <junctions.limit-turn-speed value="5.50"/>
        <rectangular-lane-cut value="0"/>
    </junctions>

    <pedestrian>
        <walkingareas value="0"/>
    </pedestrian>

    <netedit>
        <ignore-supermode-question value="true"/>
    </netedit>

    <visualisation>
        <gui-settings-file value="C:\Users\alva_pa\.texttest\tmp\netedit.gui.05Aug154536.15940\netedit.gui\network\edges\contextual_menu\edge_operations\straigthen_edge\gui-settings.xml"/>
        <window-size value="1280, 720"/>
        <window-pos value="50,50"/>
        <gui-testing value="true"/>
        <gui-testing.setting-output value="C:\Users\alva_pa\.texttest\tmp\netedit.gui.05Aug154536.15940\netedit.gui\network\edges\contextual_menu\edge_operations\straigthen_edge\guisettingsoutput.xml"/>
    </visualisation>

    <report>
        <no-warnings value="true"/>
        <error-log value="C:\Users\alva_pa\.texttest\tmp\netedit.gui.05Aug154536.15940\netedit.gui\network\edges\contextual_menu\edge_operations\straigthen_edge\log.txt"/>
    </report>

</neteditConfiguration>
-->

<net version="1.20" junctionCornerDetail="5" limitTurnSpeed="5.50" xmlns:xsi="http://www.w3.org/2001/XMLSchema-instance" xsi:noNamespaceSchemaLocation="http://sumo.dlr.de/xsd/net_file.xsd">

    <location netOffset="0.00,0.00" convBoundary="-60.00,-30.00,60.00,30.00" origBoundary="-10000000000.000000,-10000000000.000000,10000000000.000000,10000000000.000000" projParameter="+proj=merc +a=6378137 +b=6378137 +lat_ts=0.0 +lon_0=0.0 +x_0=0.0 +y_0=0 +k=1.0 +units=m +nadgrids=@null +wktext +no_defs"/>

    <edge id=":J0_0" function="internal">
        <lane id=":J0_0_0" index="0" disallow="pedestrian" speed="3.65" length="4.67" shape="-30.00,1.60 -31.20,0.80 -31.60,0.00 -31.20,-0.80 -30.00,-1.60"/>
    </edge>
    <edge id=":J1_0" function="internal">
        <lane id=":J1_0_0" index="0" disallow="pedestrian" speed="3.65" length="4.67" shape="30.00,-1.60 31.20,-0.80 31.60,0.00 31.20,0.80 30.00,1.60"/>
    </edge>
    <edge id=":JunctionExtern0_0" function="internal">
        <lane id=":JunctionExtern0_0_0" index="0" disallow="pedestrian" speed="3.53" length="4.38" width="3.00" shape="-60.00,1.50 -61.12,0.75 -61.50,0.00 -61.12,-0.75 -60.00,-1.50"/>
    </edge>
    <edge id=":JunctionExtern1_0" function="internal">
        <lane id=":JunctionExtern1_0_0" index="0" disallow="pedestrian" speed="3.53" length="4.38" width="3.00" shape="60.00,-1.50 61.12,-0.75 61.50,0.00 61.12,0.75 60.00,1.50"/>
    </edge>

    <edge id="-E0" from="J1" to="J0" priority="-1" shape="30.00,0.00 20.00,0.00 20.00,10.00 15.00,10.00 15.00,0.00 -15.00,0.00 -15.00,10.00 -20.00,10.00 -20.00,0.00 -30.00,0.00">
        <lane id="-E0_0" index="0" disallow="pedestrian" speed="13.89" length="80.00" shape="30.00,1.60 21.60,1.60 21.60,11.60 13.40,11.60 13.40,1.60 -13.40,1.60 -13.40,11.60 -21.60,11.60 -21.60,1.60 -30.00,1.60">
            <neigh lane="E0_0"/>
        </lane>
    </edge>
    <edge id="E0" from="J0" to="J1" priority="-1">
        <lane id="E0_0" index="0" disallow="pedestrian" speed="13.89" length="80.00" shape="-30.00,-1.60 30.00,-1.60">
            <neigh lane="-E0_0"/>
        </lane>
    </edge>
    <edge id="EdgeExternBot" from="JunctionExtern0" to="JunctionExtern1" priority="-1" length="175.00" shape="-60.00,0.00 -45.00,0.00 -45.00,-25.00 -40.00,-30.00 40.00,-30.00 45.00,-25.00 45.00,0.00 60.00,0.00">
        <lane id="EdgeExternBot_0" index="0" disallow="pedestrian" speed="13.89" length="175.00" width="3.00" shape="-60.00,-1.50 -46.50,-1.50 -46.50,-25.62 -40.62,-31.50 40.62,-31.50 46.50,-25.62 46.50,-1.50 60.00,-1.50"/>
    </edge>
    <edge id="EdgeExternTop" from="JunctionExtern1" to="JunctionExtern0" priority="-1" length="175.00" shape="60.00,0.00 45.00,0.00 45.00,25.00 40.00,30.00 -40.00,30.00 -45.00,25.00 -45.00,0.00 -60.00,0.00">
        <lane id="EdgeExternTop_0" index="0" disallow="pedestrian" speed="13.89" length="175.00" width="3.00" shape="60.00,1.50 46.50,1.50 46.50,25.62 40.62,31.50 -40.62,31.50 -46.50,25.62 -46.50,1.50 -60.00,1.50"/>
    </edge>

    <tlLogic id="J0" type="static" programID="0" offset="0">
        <phase duration="82" state="G"/>
        <phase duration="3"  state="y"/>
        <phase duration="5"  state="r"/>
    </tlLogic>
    <tlLogic id="J1" type="static" programID="0" offset="0">
        <phase duration="82" state="G"/>
        <phase duration="3"  state="y"/>
        <phase duration="5"  state="r"/>
    </tlLogic>

    <junction id="J0" type="traffic_light" x="-30.00" y="0.00" incLanes="-E0_0" intLanes=":J0_0_0" shape="-30.00,0.00 -30.00,3.20 -30.00,0.00">
        <request index="0" response="0" foes="0" cont="0"/>
    </junction>
    <junction id="J1" type="traffic_light" x="30.00" y="0.00" incLanes="E0_0" intLanes=":J1_0_0" shape="30.00,0.00 30.00,-3.20 30.00,0.00">
        <request index="0" response="0" foes="0" cont="0"/>
    </junction>
    <junction id="JunctionExtern0" type="priority" x="-60.00" y="0.00" incLanes="EdgeExternTop_0" intLanes=":JunctionExtern0_0_0" shape="-60.00,0.00 -60.00,3.00 -60.00,0.00">
        <request index="0" response="0" foes="0" cont="0"/>
    </junction>
    <junction id="JunctionExtern1" type="priority" x="60.00" y="0.00" incLanes="EdgeExternBot_0" intLanes=":JunctionExtern1_0_0" shape="60.00,0.00 60.00,-3.00 60.00,0.00">
        <request index="0" response="0" foes="0" cont="0"/>
    </junction>

    <connection from="-E0" to="E0" fromLane="0" toLane="0" via=":J0_0_0" tl="J0" linkIndex="0" dir="t" state="O"/>
    <connection from="E0" to="-E0" fromLane="0" toLane="0" via=":J1_0_0" tl="J1" linkIndex="0" dir="t" state="O"/>
    <connection from="EdgeExternBot" to="EdgeExternTop" fromLane="0" toLane="0" via=":JunctionExtern1_0_0" dir="t" state="M"/>
    <connection from="EdgeExternTop" to="EdgeExternBot" fromLane="0" toLane="0" via=":JunctionExtern0_0_0" dir="t" state="M"/>

    <connection from=":J0_0" to="E0" fromLane="0" toLane="0" dir="t" state="M"/>
    <connection from=":J1_0" to="-E0" fromLane="0" toLane="0" dir="t" state="M"/>
    <connection from=":JunctionExtern0_0" to="EdgeExternBot" fromLane="0" toLane="0" dir="t" state="M"/>
    <connection from=":JunctionExtern1_0" to="EdgeExternTop" fromLane="0" toLane="0" dir="t" state="M"/>

</net>
