<?xml version="1.0" encoding="UTF-8"?>

<!-- generated on 2023-02-03 12:04:44 by Eclipse SUMO netedit Version v1_15_0+2138-949a66da79b
-->

<routes xmlns:xsi="http://www.w3.org/2001/XMLSchema-instance" xsi:noNamespaceSchemaLocation="http://sumo.dlr.de/xsd/routes_file.xsd">
    <!-- VTypes -->
    <vType id="typeA" length="20.00" vClass="bus" width="5.00" height="12.00" color="cyan"/>
    <vType id="typeB" length="20.00" vClass="bus" width="5.00" height="12.00" color="cyan"/>
    <vType id="typeC" length="20.00" vClass="bus" width="5.00" height="12.00" color="cyan"/>
    <!-- Routes -->
    <route id="routeA" edges="gneE2 gneE4 gneE5" color="yellow"/>
    <route id="routeB" edges="gneE6 gneE3 gneE7" color="yellow"/>
    <!-- Vehicles, persons and containers (sorted by depart) -->
    <vehicle id="vehicleA" type="typeC" depart="1.00" departLane="0" departPos="2.00" departPosLat="2.00" departSpeed="12.00" arrivalLane="0" arrivalPos="3.00" arrivalPosLat="3.00" arrivalSpeed="12.00" color="red" line="line A" personNumber="1" containerNumber="5" route="routeA">
        <param key="KeyA1" value="valueA1"/>
        <param key="KeyA2" value="valueA3"/>
        <param key="KeyA3" value="valueA2"/>
    </vehicle>
    <vehicle id="vehicleB" type="typeC" depart="2.00" departLane="free" departPos="random" departPosLat="random_free" departSpeed="speedLimit" arrivalLane="current" arrivalPos="random" arrivalPosLat="right" arrivalSpeed="current" color="blue" line="line B" personNumber="2" containerNumber="10" route="routeB">
        <param key="KeyB1" value="valueB1"/>
        <param key="KeyB2" value="valueB3"/>
        <param key="KeyB3" value="valueB2"/>
    </vehicle>
</routes>
