<routes xmlns:xsi="http://www.w3.org/2001/XMLSchema-instance" xsi:noNamespaceSchemaLocation="http://sumo.dlr.de/xsd/routes_file.xsd">
   <vType id="DEFAULT_VEHTYPE" sigma="0"/>
    <person id="up" depart="0" departPos="5" color="red">
        <walk edges=":C_c1 CN"/>
    </person>
    <person id="down" depart="0" departPos="3" color="blue">
        <walk edges=":C_c1 SC"/>
    </person>
</routes>
