<?xml version="1.0"?>

<!-- generated on 07/01/10 12:46:06 by SUMO netconvert Version dev-SVN-r8163
<configuration>

    <input>
        <osm-files value="osm.xml"/>
    </input>

    <projection>
        <proj.utm value="true"/>
    </projection>

    <processing>
        <no-internal-links value="true"/>
    </processing>

    <report>
        <verbose value="true"/>
    </report>

</configuration>
-->

<net>

   <location netOffset="-651925.45,-5410956.58" convBoundary="0.00,0.00,21507.55,19090.37" origBoundary="11.071919,48.828054,11.371208,48.998938" projParameter="+proj=utm +zone=32 +ellps=WGS84 +datum=WGS84 +units=m +no_defs"/>


   <edge id="-10424782" from="89112330" to="89112315" priority="2" type="highway.service" function="normal">
      <lanes>
         <lane id="-10424782_0" depart="1" allow="delivery" maxspeed="5.56" length="8.13" shape="10316.05,6348.16 10315.54,6356.28"/>
      </lanes>
   </edge>

   <edge id="-10424784#0" from="308628804" to="89112352" priority="5" type="highway.unclassified" function="normal">
      <lanes>
         <lane id="-10424784#0_0" depart="1" maxspeed="22.22" length="2.64" shape="7898.43,6797.50 7896.77,6795.44"/>
      </lanes>
   </edge>

   <edge id="-10424784#1" from="89112358" to="308628804" priority="5" type="highway.unclassified" function="normal">
      <lanes>
         <lane id="-10424784#1_0" depart="1" maxspeed="22.22" length="26.42" shape="7921.54,6826.77 7905.19,6806.03"/>
      </lanes>
   </edge>

   <edge id="-10424784#2" from="263885942" to="89112358" priority="5" type="highway.unclassified" function="normal">
      <lanes>
         <lane id="-10424784#2_0" depart="1" maxspeed="22.22" length="65.87" shape="7992.21,6820.64 7944.14,6834.06 7928.40,6831.40"/>
      </lanes>
   </edge>

   <edge id="-10424791#0" from="297079974" to="27230158" priority="7" type="highway.secondary" function="normal">
      <lanes>
         <lane id="-10424791#0_0" depart="1" maxspeed="27.78" length="104.66" shape="6825.15,7652.70 6796.02,7619.24 6767.94,7565.44"/>
         <lane id="-10424791#0_1" depart="0" maxspeed="27.78" length="104.66" shape="6827.64,7650.54 6798.76,7617.36 6770.86,7563.92"/>
      </lanes>
   </edge>

   <edge id="-10424791#1" from="297079978" to="297079974" priority="7" type="highway.secondary" function="normal">
      <lanes>
         <lane id="-10424791#1_0" depart="1" maxspeed="27.78" length="207.97" shape="6995.92,7787.02 6974.10,7772.02 6923.29,7734.53 6855.22,7683.32 6831.55,7659.65"/>
         <lane id="-10424791#1_1" depart="0" maxspeed="27.78" length="207.97" shape="6997.79,7784.30 6975.97,7769.30 6925.25,7731.87 6857.20,7680.69 6833.88,7657.32"/>
      </lanes>
   </edge>

   <edge id="-10424791#2" from="297080139" to="297079978" priority="7" type="highway.secondary" function="normal">
      <lanes>
         <lane id="-10424791#2_0" depart="1" maxspeed="27.78" length="106.76" shape="7102.41,7831.46 7076.93,7826.95 7046.19,7818.13 7004.01,7792.18"/>
         <lane id="-10424791#2_1" depart="0" maxspeed="27.78" length="106.76" shape="7102.99,7828.21 7077.51,7823.70 7047.54,7815.09 7005.74,7789.37"/>
      </lanes>
   </edge>

   <edge id="-10424791#3" from="320165206" to="297080139" priority="7" type="highway.secondary" function="normal">
      <lanes>
         <lane id="-10424791#3_0" depart="1" maxspeed="27.78" length="304.17" shape="7409.69,7795.57 7372.24,7797.27 7313.11,7813.29 7242.01,7837.50 7153.51,7838.07 7111.75,7832.84"/>
         <lane id="-10424791#3_1" depart="0" maxspeed="27.78" length="304.17" shape="7409.54,7792.28 7371.73,7793.99 7312.25,7810.10 7241.45,7834.21 7153.49,7834.77 7112.16,7829.57"/>
      </lanes>
   </edge>

   <edge id="-10424791#4" from="89112449" to="320165206" priority="7" type="highway.secondary" function="normal">
      <lanes>
         <lane id="-10424791#4_0" depart="1" maxspeed="27.78" length="20.34" shape="7440.22,7794.36 7432.52,7794.65 7419.90,7795.15"/>
         <lane id="-10424791#4_1" depart="0" maxspeed="27.78" length="20.34" shape="7440.09,7791.06 7432.40,7791.35 7419.77,7791.85"/>
      </lanes>
   </edge>

   <edge id="-10424793#0" from="300748050" to="89112591" priority="6" type="highway.tertiary" function="normal">
      <lanes>
         <lane id="-10424793#0_0" depart="1" maxspeed="22.22" length="18.10" shape="9076.28,8513.98 9094.35,8513.14"/>
      </lanes>
   </edge>

   <edge id="-10424793#1" from="437740521" to="300748050" priority="6" type="highway.tertiary" function="normal">
      <lanes>
         <lane id="-10424793#1_0" depart="1" maxspeed="22.22" length="342.89" shape="8737.03,8587.36 8850.39,8587.41 8961.08,8562.41 9030.87,8534.39 9067.62,8516.55"/>
      </lanes>
   </edge>

   <edge id="-10424793#2" from="320198914" to="437740521" priority="6" type="highway.tertiary" function="normal">
      <lanes>
         <lane id="-10424793#2_0" depart="1" maxspeed="22.22" length="268.57" shape="8459.00,8578.83 8607.72,8587.30 8727.32,8587.35"/>
      </lanes>
   </edge>

   <edge id="-10424793#3" from="320198906" to="320198914" priority="6" type="highway.tertiary" function="normal">
      <lanes>
         <lane id="-10424793#3_0" depart="1" maxspeed="22.22" length="215.15" shape="8232.27,8566.37 8297.30,8567.07 8447.01,8578.07"/>
      </lanes>
   </edge>

   <edge id="-10424793#4" from="89112633" to="320198906" priority="6" type="highway.tertiary" function="normal">
      <lanes>
         <lane id="-10424793#4_0" depart="1" maxspeed="22.22" length="258.26" shape="7963.99,8584.60 8166.83,8568.34 8221.56,8566.51"/>
      </lanes>
   </edge>

   <edge id="-10424793#5" from="301445359" to="89112633" priority="6" type="highway.tertiary" function="normal">
      <lanes>
         <lane id="-10424793#5_0" depart="1" maxspeed="22.22" length="592.86" shape="7366.81,8665.19 7550.35,8642.29 7735.50,8614.97 7954.28,8585.64"/>
      </lanes>
   </edge>

   <edge id="-10424793#6" from="301666658" to="301445359" priority="6" type="highway.tertiary" function="normal">
      <lanes>
         <lane id="-10424793#6_0" depart="1" maxspeed="22.22" length="289.42" shape="7072.78,8716.99 7151.44,8696.82 7357.43,8666.46"/>
      </lanes>
   </edge>

   <edge id="-10424793#7" from="26698911" to="301666658" priority="6" type="highway.tertiary" function="normal">
      <lanes>
         <lane id="-10424793#7_0" depart="1" maxspeed="22.22" length="1875.25" shape="5238.15,9122.36 5419.04,9067.86 5753.01,8963.11 5905.16,8928.47 6102.67,8911.61 6706.30,8794.53 6712.22,8793.87 6818.12,8787.03 6877.40,8777.44 7063.64,8719.55"/>
      </lanes>
   </edge>

   <edge id="-10424795" from="300745371" to="89112295" priority="4" type="highway.residential" function="normal">
      <lanes>
         <lane id="-10424795_0" depart="1" maxspeed="13.89" length="123.21" shape="10045.47,6978.29 10059.31,6991.65 10080.38,7009.30 10141.96,7054.67"/>
      </lanes>
   </edge>

   <edge id="-10424797#0" from="297076275" to="27230157" priority="6" type="highway.tertiary" function="normal">
      <lanes>
         <lane id="-10424797#0_0" depart="1" maxspeed="22.22" length="390.50" shape="6881.83,7117.14 6870.26,7132.89 6847.86,7194.85 6841.61,7257.34 6849.16,7345.77 6872.83,7415.85 6902.97,7455.67 6920.83,7479.30"/>
      </lanes>
   </edge>

   <edge id="-10424797#1" from="89112728" to="297076275" priority="6" type="highway.tertiary" function="normal">
      <lanes>
         <lane id="-10424797#1_0" depart="1" maxspeed="22.22" length="1150.64" shape="7488.67,6144.33 7483.54,6171.88 7438.65,6326.50 7411.21,6388.00 7381.53,6455.07 7313.04,6583.35 7225.76,6691.36 7071.04,6869.70 7000.04,6948.64 6934.61,7037.84 6888.53,7107.77"/>
      </lanes>
   </edge>

   <edge id="-10424797#2" from="89112749" to="89112728" priority="6" type="highway.tertiary" function="normal">
      <lanes>
         <lane id="-10424797#2_0" depart="1" maxspeed="22.22" length="603.08" shape="7411.52,5547.54 7402.57,5603.14 7411.03,5673.44 7442.77,5774.70 7482.44,5857.33 7493.37,5892.86 7493.59,5972.00 7490.49,6109.53 7489.53,6133.81"/>
      </lanes>
   </edge>

   <edge id="-10675428#0" from="94560419" to="89112278" priority="7" type="highway.secondary" function="normal">
      <lanes>
         <lane id="-10675428#0_0" depart="1" maxspeed="27.78" length="11.22" shape="10046.69,7687.00 10057.13,7682.89"/>
         <lane id="-10675428#0_1" depart="0" maxspeed="27.78" length="11.22" shape="10047.90,7690.07 10058.34,7685.96"/>
      </lanes>
   </edge>

   <edge id="-10675428#1" from="300748279" to="94560419" priority="7" type="highway.secondary" function="normal">
      <lanes>
         <lane id="-10675428#1_0" depart="1" maxspeed="27.78" length="70.36" shape="9976.15,7713.01 10042.48,7689.52"/>
         <lane id="-10675428#1_1" depart="0" maxspeed="27.78" length="70.36" shape="9977.25,7716.12 10043.58,7692.63"/>
      </lanes>
   </edge>

   <edge id="-10675428#2" from="89112580" to="300748279" priority="7" type="highway.secondary" function="normal">
      <lanes>
         <lane id="-10675428#2_0" depart="1" maxspeed="27.78" length="472.82" shape="9537.88,7949.38 9585.99,7913.69 9670.26,7848.40 9730.31,7811.53 9836.99,7765.51 9949.32,7722.94"/>
         <lane id="-10675428#2_1" depart="0" maxspeed="27.78" length="472.82" shape="9539.84,7952.03 9587.96,7916.34 9672.28,7851.01 9732.04,7814.35 9838.29,7768.54 9950.49,7726.02"/>
      </lanes>
   </edge>

   <edge id="-10675428#3" from="300748098" to="89112580" priority="7" type="highway.secondary" function="normal">
      <lanes>
         <lane id="-10675428#3_0" depart="1" maxspeed="27.78" length="641.69" shape="9117.11,8437.32 9121.61,8417.73 9141.91,8365.24 9187.57,8289.25 9268.81,8202.53 9401.61,8071.22 9499.34,7983.09 9529.57,7956.15"/>
         <lane id="-10675428#3_1" depart="0" maxspeed="27.78" length="641.69" shape="9120.32,8438.06 9124.82,8418.47 9144.99,8366.43 9190.22,8291.25 9271.21,8204.79 9403.93,8073.57 9501.55,7985.54 9531.77,7958.62"/>
      </lanes>
   </edge>

   <edge id="-10675428#4" from="89112591" to="300748098" priority="7" type="highway.secondary" function="normal">
      <lanes>
         <lane id="-10675428#4_0" depart="1" maxspeed="27.78" length="70.53" shape="9098.69,8510.38 9116.85,8442.23"/>
         <lane id="-10675428#4_1" depart="0" maxspeed="27.78" length="70.53" shape="9101.88,8511.23 9120.03,8443.08"/>
      </lanes>
   </edge>

   <edge id="-10675428#5" from="437732144" to="89112591" priority="7" type="highway.secondary" function="normal">
      <lanes>
         <lane id="-10675428#5_0" depart="1" maxspeed="27.78" length="260.16" shape="9100.90,8779.58 9094.01,8634.43 9097.63,8519.51"/>
         <lane id="-10675428#5_1" depart="0" maxspeed="27.78" length="260.16" shape="9104.20,8779.42 9097.30,8634.28 9100.93,8519.61"/>
      </lanes>
   </edge>

   <edge id="-10675428#6" from="309179639" to="437732144" priority="7" type="highway.secondary" function="normal">
      <lanes>
         <lane id="-10675428#6_0" depart="1" maxspeed="27.78" length="1375.51" shape="9069.09,10149.06 9072.57,10128.39 9097.04,10024.47 9106.60,9970.13 9116.52,9866.62 9118.45,9846.49 9119.56,9698.87 9152.49,9517.74 9160.17,9441.10 9175.24,9312.19 9171.84,9233.81 9162.38,9126.46 9134.81,8972.35 9103.36,8829.93 9101.36,8789.09"/>
         <lane id="-10675428#6_1" depart="0" maxspeed="27.78" length="1375.51" shape="9072.35,10149.61 9075.83,10128.94 9100.25,10025.23 9109.85,9970.70 9119.80,9866.94 9121.73,9846.80 9122.86,9698.90 9155.74,9518.34 9163.46,9441.43 9178.52,9312.57 9175.14,9233.67 9165.67,9126.17 9138.06,8971.77 9106.59,8829.22 9104.65,8788.93"/>
      </lanes>
   </edge>

   <edge id="-10675428#7" from="254421993" to="309179639" priority="7" type="highway.secondary" function="normal">
      <lanes>
         <lane id="-10675428#7_0" depart="1" maxspeed="27.78" length="7367.74" shape="10733.30,16312.58 10726.15,16273.60 10734.71,16089.02 10733.97,16007.16 10736.77,15928.49 10737.48,15908.79 10757.75,15820.55 10794.07,15723.82 10803.79,15685.33 10837.69,15551.49 10861.75,15490.59 10924.20,15385.50 10940.55,15336.97 10980.82,15138.16 10989.76,15047.32 11004.55,15010.74 11047.44,14950.76 11063.09,14925.18 11090.34,14883.53 11156.05,14783.06 11165.07,14766.07 11199.87,14687.97 11220.73,14642.15 11232.07,14609.64 11232.58,14592.16 11228.47,14583.31 11224.75,14575.32 11188.82,14549.07 11139.13,14531.74 11101.36,14529.41 11076.71,14532.55 11061.12,14527.29 11021.20,14497.96 10915.40,14408.13 10848.55,14355.50 10761.02,14268.22 10704.72,14184.03 10587.87,13955.05 10546.31,13887.51 10473.46,13811.14 10431.01,13769.52 10397.90,13718.74 10371.50,13646.59 10345.22,13590.17 10302.00,13529.07 10267.57,13481.07 10246.95,13444.26 10218.11,13364.30 10206.83,13322.93 10190.18,13296.70 10179.98,13287.88 10171.06,13280.16 10143.82,13268.36 10080.37,13237.58 9967.29,13179.08 9900.02,13154.14 9870.39,13147.31 9820.73,13152.04 9769.65,13156.83 9688.90,13153.24 9647.53,13135.06 9618.14,13107.31 9598.39,13085.80 9583.22,13065.06 9585.82,13038.55 9590.70,13021.56 9600.30,13004.66 9632.22,12977.71 9641.14,12970.18 9660.29,12951.38 9674.52,12926.69 9692.66,12877.71 9752.38,12614.72 9766.44,12508.82 9770.01,12454.36 9770.94,12431.14 9771.44,12371.10 9762.45,12270.34 9747.09,12173.02 9725.00,12069.15 9664.05,11900.56 9618.81,11768.07 9605.93,11706.91 9587.92,11481.19 9557.65,11391.91 9509.98,11326.91 9382.86,11211.26 9283.91,11113.20 9223.89,11025.14 9199.76,10981.42 9175.55,10937.54 9149.72,10845.92 9144.32,10793.95 9139.75,10749.44 9121.60,10509.95 9106.74,10413.09 9080.04,10271.32 9068.43,10193.00 9067.93,10160.78"/>
         <lane id="-10675428#7_1" depart="0" maxspeed="27.78" length="7367.74" shape="10736.55,16311.99 10729.47,16273.37 10738.00,16089.17 10737.27,16007.13 10740.07,15928.61 10740.76,15909.22 10760.97,15821.29 10797.16,15724.98 10806.99,15686.14 10840.89,15552.30 10864.82,15491.80 10927.21,15386.89 10943.68,15338.02 10984.05,15138.81 10992.99,15048.11 11007.47,15012.34 11050.12,14952.68 11065.91,14926.91 11093.10,14885.33 11158.81,14784.87 11167.98,14767.62 11202.89,14689.31 11223.73,14643.52 11235.35,14610.25 11235.90,14591.48 11231.46,14581.91 11227.38,14573.15 11190.37,14546.11 11139.78,14528.47 11101.26,14526.10 11077.05,14529.18 11062.66,14524.33 11023.15,14495.30 10917.54,14405.62 10850.59,14352.91 10763.58,14266.11 10707.47,14182.20 10590.80,13953.55 10548.94,13885.49 10475.84,13808.86 10433.57,13767.41 10400.87,13717.25 10374.60,13645.46 10348.09,13588.51 10304.69,13527.16 10270.25,13479.14 10249.83,13442.65 10221.21,13363.19 10209.88,13321.59 10192.71,13294.53 10182.14,13285.38 10172.84,13277.33 10145.13,13265.33 10081.81,13234.61 9968.81,13176.15 9901.17,13151.05 9870.61,13143.97 9820.42,13148.75 9769.34,13153.54 9689.67,13149.97 9649.38,13132.27 9620.40,13104.91 9600.82,13083.56 9586.63,13064.13 9589.07,13039.17 9593.76,13022.85 9602.88,13006.80 9634.35,12980.23 9643.26,12972.71 9662.92,12953.42 9677.38,12928.33 9695.75,12878.86 9755.59,12615.45 9769.71,12509.26 9773.30,12454.57 9774.24,12431.27 9774.74,12371.13 9765.73,12270.05 9750.35,12172.50 9728.23,12068.46 9667.16,11899.43 9621.93,11767.00 9609.16,11706.23 9591.17,11480.52 9560.61,11390.37 9512.45,11324.69 9385.08,11208.82 9286.45,11111.08 9226.62,11023.28 9202.65,10979.83 9178.62,10936.28 9152.90,10845.02 9147.60,10793.61 9143.03,10749.10 9124.89,10509.70 9110.00,10412.59 9083.29,10270.71 9071.69,10192.52 9071.23,10160.73"/>
      </lanes>
   </edge>

   <edge id="-23951397" from="308263368" to="263885904" priority="1" type="highway.footway" function="normal">
      <lanes>
         <lane id="-23951397_0" depart="1" allow="pedestrian" maxspeed="8.33" length="19.85" shape="9629.06,5719.88 9617.81,5703.52"/>
      </lanes>
   </edge>

   <edge id="-23951777#0" from="89112391" to="27229880" priority="4" type="highway.residential" function="normal">
      <lanes>
         <lane id="-23951777#0_0" depart="1" maxspeed="13.89" length="236.06" shape="9305.23,6242.34 9388.45,6195.90 9422.93,6171.58 9511.99,6129.34"/>
      </lanes>
   </edge>

   <edge id="-23951777#1" from="300745278" to="89112391" priority="4" type="highway.residential" function="normal">
      <lanes>
         <lane id="-23951777#1_0" depart="1" maxspeed="13.89" length="50.37" shape="9249.61,6270.28 9294.66,6247.76"/>
      </lanes>
   </edge>

   <edge id="-23951777#2" from="300745255" to="300745278" priority="4" type="highway.residential" function="normal">
      <lanes>
         <lane id="-23951777#2_0" depart="1" maxspeed="13.89" length="98.77" shape="9154.44,6321.81 9241.23,6274.65"/>
      </lanes>
   </edge>

   <edge id="-23951777#3" from="300745248" to="300745255" priority="4" type="highway.residential" function="normal">
      <lanes>
         <lane id="-23951777#3_0" depart="1" maxspeed="13.89" length="164.13" shape="8991.86,6385.72 9018.96,6377.81 9109.33,6343.28 9144.79,6326.68"/>
      </lanes>
   </edge>

   <edge id="-23951777#4" from="297063760" to="300745248" priority="4" type="highway.residential" function="normal">
      <lanes>
         <lane id="-23951777#4_0" depart="1" maxspeed="13.89" length="55.44" shape="8929.01,6401.36 8982.85,6388.15"/>
      </lanes>
   </edge>

   <edge id="-23951777#5" from="297063706" to="297063760" priority="4" type="highway.residential" function="normal">
      <lanes>
         <lane id="-23951777#5_0" depart="1" maxspeed="13.89" length="118.00" shape="8811.75,6450.17 8889.65,6412.22 8919.83,6403.76"/>
      </lanes>
   </edge>

   <edge id="-23951780#0" from="297082642" to="89112449" priority="4" type="highway.residential" function="normal">
      <lanes>
         <lane id="-23951780#0_0" depart="1" maxspeed="13.89" length="20.86" shape="7489.57,7795.05 7468.93,7792.03"/>
      </lanes>
   </edge>

   <edge id="-23951780#1" from="297082675" to="297082642" priority="4" type="highway.residential" function="normal">
      <lanes>
         <lane id="-23951780#1_0" depart="1" maxspeed="13.89" length="466.66" shape="7847.76,7499.59 7841.61,7515.48 7815.70,7553.71 7786.58,7582.34 7702.08,7656.34 7662.54,7694.26 7621.19,7730.67 7549.15,7776.58 7514.00,7795.31 7498.86,7795.70"/>
      </lanes>
   </edge>

   <edge id="-23951780#2" from="89112465" to="297082675" priority="4" type="highway.residential" function="normal">
      <lanes>
         <lane id="-23951780#2_0" depart="1" maxspeed="13.89" length="90.74" shape="7907.11,7418.71 7874.16,7457.82 7852.24,7490.80"/>
      </lanes>
   </edge>

   <edge id="-23951780#3" from="297082726" to="89112465" priority="4" type="highway.residential" function="normal">
      <lanes>
         <lane id="-23951780#3_0" depart="1" maxspeed="13.89" length="55.66" shape="7947.04,7366.90 7913.22,7411.11"/>
      </lanes>
   </edge>

   <edge id="-23951780#4" from="297082761" to="297082726" priority="4" type="highway.residential" function="normal">
      <lanes>
         <lane id="-23951780#4_0" depart="1" maxspeed="13.89" length="101.37" shape="7999.86,7269.39 7995.59,7278.49 7955.16,7355.00 7952.55,7359.00"/>
      </lanes>
   </edge>

   <edge id="-23951780#5" from="89112476" to="297082761" priority="4" type="highway.residential" function="normal">
      <lanes>
         <lane id="-23951780#5_0" depart="1" maxspeed="13.89" length="54.99" shape="8021.74,7208.73 8003.53,7260.61"/>
      </lanes>
   </edge>

   <edge id="-23951780#6" from="297063775" to="89112476" priority="4" type="highway.residential" function="normal">
      <lanes>
         <lane id="-23951780#6_0" depart="1" maxspeed="13.89" length="57.64" shape="8047.27,7146.21 8033.65,7179.47 8025.24,7199.47"/>
      </lanes>
   </edge>

   <edge id="-23951780#7" from="89112479" to="297063775" priority="4" type="highway.residential" function="normal">
      <lanes>
         <lane id="-23951780#7_0" depart="1" maxspeed="13.89" length="26.44" shape="8060.25,7112.23 8050.93,7136.98"/>
      </lanes>
   </edge>

   <edge id="-23951780#8" from="286919915" to="89112479" priority="4" type="highway.residential" function="normal">
      <lanes>
         <lane id="-23951780#8_0" depart="1" maxspeed="13.89" length="45.05" shape="8078.83,7064.43 8075.50,7075.26 8062.55,7106.39"/>
      </lanes>
   </edge>

   <edge id="-23951781" from="26698821" to="89112449" priority="9" type="highway.primary" function="normal">
      <lanes>
         <lane id="-23951781_0" depart="1" maxspeed="27.78" length="186.00" shape="7301.46,7919.58 7371.27,7863.62 7434.77,7805.34 7441.87,7798.10"/>
         <lane id="-23951781_1" depart="0" maxspeed="27.78" length="186.00" shape="7303.52,7922.15 7373.33,7866.19 7437.00,7807.77 7444.22,7800.41"/>
      </lanes>
   </edge>

   <edge id="-23951782#0" from="297342149" to="262209282" priority="1" type="highway.cycleway" function="normal">
      <lanes>
         <lane id="-23951782#0_0" depart="1" allow="bicycle" maxspeed="5.56" length="467.18" shape="7688.63,7339.81 7714.81,7316.62 7836.45,7192.00 7912.61,7093.40 7976.83,6976.40"/>
      </lanes>
   </edge>

   <edge id="-23951782#1" from="297798852" to="297342149" priority="1" type="highway.cycleway" function="normal">
      <lanes>
         <lane id="-23951782#1_0" depart="1" allow="bicycle" maxspeed="5.56" length="94.73" shape="7611.21,7409.70 7681.50,7346.19"/>
      </lanes>
   </edge>

   <edge id="-23951782#2" from="262209287" to="297798852" priority="1" type="highway.cycleway" function="normal">
      <lanes>
         <lane id="-23951782#2_0" depart="1" allow="bicycle" maxspeed="5.56" length="83.46" shape="7533.62,7462.33 7589.29,7430.96 7603.28,7417.28"/>
      </lanes>
   </edge>

   <edge id="-23951783" from="89112449" to="286919868" priority="9" type="highway.primary" function="normal">
      <lanes>
         <lane id="-23951783_0" depart="1" maxspeed="27.78" length="253.81" shape="7460.44,7778.31 7506.47,7725.03 7525.92,7650.73 7519.86,7587.18 7513.25,7546.41"/>
         <lane id="-23951783_1" depart="0" maxspeed="27.78" length="253.81" shape="7462.94,7780.47 7509.47,7726.61 7529.26,7651.00 7523.14,7586.87 7516.51,7545.88"/>
      </lanes>
   </edge>

   <edge id="-23951784" from="259651955" to="259651954" priority="1" type="highway.cycleway" function="normal">
      <lanes>
         <lane id="-23951784_0" depart="1" allow="bicycle" maxspeed="5.56" length="21.64" shape="6598.51,7199.92 6576.90,7198.83"/>
      </lanes>
   </edge>

   <edge id="-23951785#0" from="297080024" to="27230168" priority="7" type="highway.secondary" function="normal">
      <lanes>
         <lane id="-23951785#0_0" depart="1" maxspeed="27.78" length="23.25" shape="7080.27,6105.94 7065.99,6124.29"/>
         <lane id="-23951785#0_1" depart="0" maxspeed="27.78" length="23.25" shape="7077.67,6103.91 7063.38,6122.26"/>
      </lanes>
   </edge>

   <edge id="-23951785#1" from="27230172" to="297080024" priority="7" type="highway.secondary" function="normal">
      <lanes>
         <lane id="-23951785#1_0" depart="1" maxspeed="27.78" length="410.19" shape="7095.11,5710.87 7150.29,5818.52 7149.91,5892.06 7126.29,5999.02 7089.41,6095.03 7085.91,6099.00"/>
         <lane id="-23951785#1_1" depart="0" maxspeed="27.78" length="410.19" shape="7092.17,5712.38 7146.98,5819.31 7146.62,5891.69 7123.06,5998.31 7086.55,6093.29 7083.43,6096.81"/>
      </lanes>
   </edge>

   <edge id="-23951786#0" from="301450899" to="27230172" priority="7" type="highway.secondary" function="normal">
      <lanes>
         <lane id="-23951786#0_0" depart="1" maxspeed="27.78" length="1771.86" shape="5459.08,5787.22 5557.04,5741.95 5858.14,5637.42 6097.49,5539.15 6182.77,5509.28 6291.30,5472.55 6519.83,5445.53 6721.03,5469.26 6812.88,5492.71 6897.36,5535.50 6996.93,5618.61 7095.41,5709.49"/>
         <lane id="-23951786#0_1" depart="0" maxspeed="27.78" length="1771.86" shape="5460.47,5790.22 5558.43,5744.94 5859.23,5640.54 6098.74,5542.20 6183.87,5512.39 6292.03,5475.78 6519.83,5448.85 6720.65,5472.53 6811.71,5495.81 6895.53,5538.27 6994.81,5621.15 7089.60,5708.62"/>
      </lanes>
   </edge>

   <edge id="-23951786#1" from="301671132" to="301450899" priority="7" type="highway.secondary" function="normal">
      <lanes>
         <lane id="-23951786#1_0" depart="1" maxspeed="27.78" length="455.84" shape="5105.11,6085.36 5265.97,5921.09 5318.69,5873.99 5417.51,5810.17 5450.72,5791.57"/>
         <lane id="-23951786#1_1" depart="0" maxspeed="27.78" length="455.84" shape="5107.47,6087.67 5268.33,5923.40 5320.88,5876.45 5419.30,5812.95 5452.33,5794.44"/>
      </lanes>
   </edge>

   <edge id="-23951786#2" from="259652043" to="301671132" priority="7" type="highway.secondary" function="normal">
      <lanes>
         <lane id="-23951786#2_0" depart="1" maxspeed="27.78" length="123.79" shape="5001.92,6176.06 5056.22,6133.66 5095.11,6095.20"/>
         <lane id="-23951786#2_1" depart="0" maxspeed="27.78" length="123.79" shape="5003.95,6178.66 5058.26,6136.26 5097.43,6097.54"/>
      </lanes>
   </edge>

   <edge id="-23951787" from="286919886" to="286919905" priority="1" type="highway.cycleway" function="normal">
      <lanes>
         <lane id="-23951787_0" depart="1" allow="bicycle" maxspeed="5.56" length="1166.85" shape="6727.55,5106.21 6728.17,5105.19 6754.89,5131.67 6824.74,5240.93 6874.98,5313.54 6922.99,5387.97 6964.72,5456.79 6986.65,5506.09 6998.42,5554.98 7026.47,5605.89 7065.49,5652.47 7099.80,5709.07 7122.34,5742.27 7145.26,5786.78 7158.19,5830.86 7163.10,5874.37 7158.10,5907.10 7138.15,5967.38 7114.35,6046.63 7103.07,6076.88 7087.74,6099.40 7068.95,6126.41"/>
      </lanes>
   </edge>

   <edge id="-23951905" from="297076365" to="286919869" priority="6" type="highway.tertiary" function="normal">
      <lanes>
         <lane id="-23951905_0" depart="1" maxspeed="22.22" length="95.70" shape="6809.31,7536.66 6895.45,7494.96"/>
      </lanes>
   </edge>

   <edge id="-23952223#0" from="27230162" to="259651954" priority="7" type="highway.secondary" function="normal">
      <lanes>
         <lane id="-23952223#0_0" depart="1" maxspeed="27.78" length="63.45" shape="6559.69,7128.80 6571.70,7191.10"/>
         <lane id="-23952223#0_1" depart="0" maxspeed="27.78" length="63.45" shape="6556.45,7129.42 6568.46,7191.73"/>
      </lanes>
   </edge>

   <edge id="-23952223#1" from="297080010" to="27230162" priority="7" type="highway.secondary" function="normal">
      <lanes>
         <lane id="-23952223#1_0" depart="1" maxspeed="27.78" length="29.38" shape="6565.19,7094.65 6559.95,7123.56"/>
         <lane id="-23952223#1_1" depart="0" maxspeed="27.78" length="29.38" shape="6561.95,7094.06 6556.70,7122.97"/>
      </lanes>
   </edge>

   <edge id="-23952223#2" from="297085347" to="297080010" priority="7" type="highway.secondary" function="normal">
      <lanes>
         <lane id="-23952223#2_0" depart="1" maxspeed="27.78" length="66.18" shape="6577.00,7019.22 6566.83,7084.62"/>
         <lane id="-23952223#2_1" depart="0" maxspeed="27.78" length="66.18" shape="6573.74,7018.71 6563.57,7084.11"/>
      </lanes>
   </edge>

   <edge id="-23952223#3" from="297085332" to="297085347" priority="7" type="highway.secondary" function="normal">
      <lanes>
         <lane id="-23952223#3_0" depart="1" maxspeed="27.78" length="113.07" shape="6588.91,6897.16 6580.74,6991.38 6578.33,7009.80"/>
         <lane id="-23952223#3_1" depart="0" maxspeed="27.78" length="113.07" shape="6585.62,6896.88 6577.45,6991.10 6575.06,7009.37"/>
      </lanes>
   </edge>

   <edge id="-23952223#4" from="297085320" to="297085332" priority="7" type="highway.secondary" function="normal">
      <lanes>
         <lane id="-23952223#4_0" depart="1" maxspeed="27.78" length="41.64" shape="6595.06,6846.51 6591.26,6858.78 6589.57,6887.12"/>
         <lane id="-23952223#4_1" depart="0" maxspeed="27.78" length="41.64" shape="6591.91,6845.53 6587.99,6858.18 6586.27,6886.92"/>
      </lanes>
   </edge>

   <edge id="-23952223#5" from="262208875" to="297085320" priority="7" type="highway.secondary" function="normal">
      <lanes>
         <lane id="-23952223#5_0" depart="1" maxspeed="27.78" length="338.99" shape="6734.96,6528.63 6700.18,6581.18 6598.36,6837.31"/>
         <lane id="-23952223#5_1" depart="0" maxspeed="27.78" length="338.99" shape="6732.21,6526.80 6697.24,6579.64 6595.29,6836.09"/>
      </lanes>
   </edge>

   <edge id="-23952223#6" from="297080074" to="262208875" priority="7" type="highway.secondary" function="normal">
      <lanes>
         <lane id="-23952223#6_0" depart="1" maxspeed="27.78" length="163.08" shape="6833.91,6385.22 6805.68,6418.40 6741.34,6518.86"/>
         <lane id="-23952223#6_1" depart="0" maxspeed="27.78" length="163.08" shape="6831.40,6383.08 6803.17,6416.26 6738.56,6517.08"/>
      </lanes>
   </edge>

   <edge id="-23952224" from="286919838" to="259652044" priority="4" type="highway.residential" function="normal">
      <lanes>
         <lane id="-23952224_0" depart="1" maxspeed="13.89" length="58.83" shape="4739.99,6324.47 4731.59,6310.47 4712.73,6272.39"/>
      </lanes>
   </edge>

   <edge id="-23952225#0" from="301450904" to="259652043" priority="7" type="highway.secondary" function="normal">
      <lanes>
         <lane id="-23952225#0_0" depart="1" maxspeed="27.78" length="26.37" shape="4963.15,6198.78 4986.61,6186.74"/>
         <lane id="-23952225#0_1" depart="0" maxspeed="27.78" length="26.37" shape="4964.65,6201.72 4988.12,6189.68"/>
      </lanes>
   </edge>

   <edge id="-23952225#1" from="259652044" to="301450904" priority="7" type="highway.secondary" function="normal">
      <lanes>
         <lane id="-23952225#1_0" depart="1" maxspeed="27.78" length="245.41" shape="4716.46,6257.28 4764.94,6250.98 4838.12,6238.01 4914.33,6212.72 4954.28,6200.96"/>
         <lane id="-23952225#1_1" depart="0" maxspeed="27.78" length="245.41" shape="4716.88,6260.55 4765.37,6254.25 4838.69,6241.26 4915.37,6215.86 4955.21,6204.13"/>
      </lanes>
   </edge>

   <edge id="-23952225#2" from="360824669" to="259652044" priority="7" type="highway.secondary" function="normal">
      <lanes>