<?xml version="1.0" encoding="UTF-8"?>

<!-- generated on Thu Oct 27 15:44:01 2016 by SUMO netconvert Version dev-SVN-r21818
<?xml version="1.0" encoding="UTF-8"?>

<configuration xmlns:xsi="http://www.w3.org/2001/XMLSchema-instance" xsi:noNamespaceSchemaLocation="http://sumo.dlr.de/xsd/netconvertConfiguration.xsd">

    <input>
        <osm-files value="osm.xml"/>
    </input>

    <output>
        <output.street-names value="true"/>
    </output>

    <projection>
        <proj.utm value="true"/>
    </projection>

    <edge_removal>
        <keep-edges.by-vclass value="passenger"/>
    </edge_removal>

    <processing>
        <no-internal-links value="true"/>
        <geometry.max-angle value="-1"/>
        <geometry.min-radius value="-1"/>
        <roundabouts.guess value="true"/>
    </processing>

    <report>
        <verbose value="true"/>
        <xml-validation value="never"/>
    </report>

</configuration>
-->

<net version="0.27" xmlns:xsi="http://www.w3.org/2001/XMLSchema-instance" xsi:noNamespaceSchemaLocation="http://sumo.dlr.de/xsd/net_file.xsd">

    <location netOffset="-654114.72,-5410956.58" convBoundary="0.00,0.00,19318.29,19090.37" origBoundary="10.981769,48.828054,11.371208,48.998938" projParameter="+proj=utm +zone=32 +ellps=WGS84 +datum=WGS84 +units=m +no_defs"/>

    <type id="highway.bridleway" priority="1" numLanes="1" speed="2.78" allow="pedestrian" oneway="1" width="2.00"/>
    <type id="highway.bus_guideway" priority="1" numLanes="1" speed="8.33" allow="bus" oneway="1"/>
    <type id="highway.cycleway" priority="1" numLanes="1" speed="5.56" allow="bicycle" oneway="0" width="1.00"/>
    <type id="highway.footway" priority="1" numLanes="1" speed="2.78" allow="pedestrian" oneway="1" width="2.00"/>
    <type id="highway.ford" priority="1" numLanes="1" speed="2.78" allow="army" oneway="0"/>
    <type id="highway.living_street" priority="3" numLanes="1" speed="2.78" disallow="tram rail_urban rail rail_electric ship" oneway="0"/>
    <type id="highway.motorway" priority="13" numLanes="2" speed="44.44" allow="private emergency authority army vip passenger hov taxi bus coach delivery truck trailer motorcycle evehicle custom1 custom2" oneway="1"/>
    <type id="highway.motorway_link" priority="12" numLanes="1" speed="22.22" allow="private emergency authority army vip passenger hov taxi bus coach delivery truck trailer motorcycle evehicle custom1 custom2" oneway="1"/>
    <type id="highway.path" priority="1" numLanes="1" speed="2.78" allow="bicycle pedestrian" oneway="1" width="2.00"/>
    <type id="highway.pedestrian" priority="1" numLanes="1" speed="2.78" allow="pedestrian" oneway="1" width="2.00"/>
    <type id="highway.primary" priority="9" numLanes="2" speed="27.78" disallow="tram rail_urban rail rail_electric ship" oneway="0"/>
    <type id="highway.primary_link" priority="8" numLanes="1" speed="22.22" disallow="tram rail_urban rail rail_electric ship" oneway="0"/>
    <type id="highway.raceway" priority="14" numLanes="2" speed="83.33" allow="vip" oneway="0"/>
    <type id="highway.residential" priority="4" numLanes="1" speed="13.89" disallow="tram rail_urban rail rail_electric ship" oneway="0"/>
    <type id="highway.secondary" priority="7" numLanes="2" speed="27.78" disallow="tram rail_urban rail rail_electric ship" oneway="0"/>
    <type id="highway.secondary_link" priority="6" numLanes="1" speed="22.22" disallow="tram rail_urban rail rail_electric ship" oneway="0"/>
    <type id="highway.service" priority="2" numLanes="1" speed="5.56" allow="delivery bicycle pedestrian" oneway="0"/>
    <type id="highway.services" priority="1" numLanes="1" speed="8.33" disallow="tram rail_urban rail rail_electric ship" oneway="0"/>
    <type id="highway.stairs" priority="1" numLanes="1" speed="1.39" allow="pedestrian" oneway="1" width="2.00"/>
    <type id="highway.step" priority="1" numLanes="1" speed="1.39" allow="pedestrian" oneway="1" width="2.00"/>
    <type id="highway.steps" priority="1" numLanes="1" speed="1.39" allow="pedestrian" oneway="1" width="2.00"/>
    <type id="highway.tertiary" priority="6" numLanes="1" speed="22.22" disallow="tram rail_urban rail rail_electric ship" oneway="0"/>
    <type id="highway.tertiary_link" priority="5" numLanes="1" speed="22.22" disallow="tram rail_urban rail rail_electric ship" oneway="0"/>
    <type id="highway.track" priority="1" numLanes="1" speed="5.56" disallow="tram rail_urban rail rail_electric ship" oneway="0"/>
    <type id="highway.trunk" priority="11" numLanes="2" speed="27.78" disallow="tram rail_urban rail rail_electric bicycle pedestrian ship" oneway="0"/>
    <type id="highway.trunk_link" priority="10" numLanes="1" speed="22.22" disallow="tram rail_urban rail rail_electric bicycle pedestrian ship" oneway="0"/>
    <type id="highway.unclassified" priority="5" numLanes="1" speed="13.89" disallow="tram rail_urban rail rail_electric ship" oneway="0"/>
    <type id="highway.unsurfaced" priority="1" numLanes="1" speed="8.33" disallow="tram rail_urban rail rail_electric ship" oneway="0"/>
    <type id="railway.light_rail" priority="15" numLanes="1" speed="27.78" allow="rail_urban" oneway="1"/>
    <type id="railway.preserved" priority="15" numLanes="1" speed="27.78" allow="rail" oneway="1"/>
    <type id="railway.rail" priority="15" numLanes="1" speed="83.33" allow="rail rail_electric" oneway="1"/>
    <type id="railway.subway" priority="15" numLanes="1" speed="27.78" allow="rail_urban" oneway="1"/>
    <type id="railway.tram" priority="15" numLanes="1" speed="13.89" allow="tram" oneway="1"/>

    <edge id="-10424784#0" from="308628804" to="89112352" name="Bahnhofplatz" priority="5" type="highway.unclassified">
        <lane id="-10424784#0_0" index="0" disallow="tram rail_urban rail rail_electric ship" speed="13.89" length="13.50" shape="5711.67,6800.63 5709.16,6797.50"/>
    </edge>
    <edge id="-10424784#1" from="89112358" to="308628804" name="Bahnhofplatz" priority="5" type="highway.unclassified">
        <lane id="-10424784#1_0" index="0" disallow="tram rail_urban rail rail_electric ship" speed="13.89" length="37.61" shape="5732.27,6826.77 5711.84,6800.85"/>
    </edge>
    <edge id="-10424784#2" from="263885942" to="89112358" name="Bahnhofplatz" priority="5" type="highway.unclassified" shape="5802.59,6819.03 5754.79,6832.37 5736.33,6829.25">
        <lane id="-10424784#2_0" index="0" disallow="tram rail_urban rail rail_electric ship" speed="13.89" length="68.35" shape="5802.92,6820.65 5754.88,6834.06 5739.14,6831.40"/>
    </edge>
    <edge id="-10424791#0" from="297079974" to="27230158" name="Rebdorfer Straße" priority="7" type="highway.secondary" shape="4643.17,7653.54 4610.87,7616.43 4580.86,7558.94">
        <lane id="-10424791#0_0" index="0" disallow="tram rail_urban rail rail_electric ship" speed="27.78" length="114.05" shape="4635.89,7652.70 4606.75,7619.24 4578.67,7565.44"/>
        <lane id="-10424791#0_1" index="1" disallow="tram rail_urban rail rail_electric ship" speed="27.78" length="114.05" shape="4638.38,7650.54 4609.50,7617.36 4581.60,7563.92"/>
    </edge>
    <edge id="-10424791#1" from="297079978" to="297079974" name="Rebdorfer Straße" priority="7" type="highway.secondary" shape="4811.97,7784.67 4787.64,7767.94 4736.96,7730.54 4668.93,7679.37 4643.17,7653.54">
        <lane id="-10424791#1_0" index="0" disallow="tram rail_urban rail rail_electric ship" speed="27.78" length="214.11" shape="4806.65,7787.02 4784.77,7771.97 4734.00,7734.51 4665.67,7683.11 4642.28,7659.65"/>
        <lane id="-10424791#1_1" index="1" disallow="tram rail_urban rail rail_electric ship" speed="27.78" length="214.11" shape="4808.52,7784.30 4786.68,7769.29 4735.97,7731.87 4667.84,7680.62 4644.62,7657.32"/>
    </edge>
    <edge id="-10424791#2" from="297080139" to="297079978" name="Rebdorfer Straße" priority="7" type="highway.secondary" shape="4918.06,7827.30 4888.53,7822.07 4858.95,7813.56 4811.97,7784.67">
        <lane id="-10424791#2_0" index="0" disallow="tram rail_urban rail rail_electric ship" speed="27.78" length="115.93" shape="4913.15,7831.46 4887.41,7826.90 4856.93,7818.13 4814.74,7792.18"/>
        <lane id="-10424791#2_1" index="1" disallow="tram rail_urban rail rail_electric ship" speed="27.78" length="115.93" shape="4913.72,7828.21 4888.16,7823.68 4858.27,7815.09 4816.47,7789.37"/>
    </edge>
    <edge id="-10424791#3" from="320165206" to="297080139" name="Rebdorfer Straße" priority="7" type="highway.secondary" shape="5222.20,7790.54 5182.21,7792.35 5122.56,7808.51 5051.91,7832.56 4964.22,7833.12 4918.06,7827.30">
        <lane id="-10424791#3_0" index="0" disallow="tram rail_urban rail rail_electric ship" speed="27.78" length="310.67" shape="5222.27,7795.49 5182.98,7797.27 5124.00,7813.25 5052.74,7837.50 4963.92,7838.07 4922.48,7832.84"/>
        <lane id="-10424791#3_1" index="1" disallow="tram rail_urban rail rail_electric ship" speed="27.78" length="310.67" shape="5222.12,7792.19 5182.47,7793.99 5123.04,7810.09 5052.19,7834.21 4964.12,7834.77 4922.89,7829.57"/>
    </edge>
    <edge id="-10424791#4" from="89112449" to="320165206" name="Rebdorfer Straße" priority="7" type="highway.secondary" shape="5268.69,7788.75 5243.07,7789.70 5222.20,7790.54">
        <lane id="-10424791#4_0" index="0" disallow="tram rail_urban rail rail_electric ship" speed="27.78" length="46.53" shape="5250.95,7794.36 5243.26,7794.65 5222.54,7795.48"/>
        <lane id="-10424791#4_1" index="1" disallow="tram rail_urban rail rail_electric ship" speed="27.78" length="46.53" shape="5250.82,7791.06 5243.13,7791.35 5222.41,7792.18"/>
    </edge>
    <edge id="-10424793#0" from="300748050" to="89112591" priority="6" type="highway.tertiary">
        <lane id="-10424793#0_0" index="0" disallow="tram rail_urban rail rail_electric ship" speed="22.22" length="29.79" shape="6887.01,8513.98 6905.09,8513.14"/>
    </edge>
    <edge id="-10424793#1" from="437740521" to="300748050" priority="6" type="highway.tertiary" shape="6543.73,8589.01 6661.30,8589.06 6772.18,8564.02 6842.22,8535.92 6883.72,8515.78">
        <lane id="-10424793#1_0" index="0" disallow="tram rail_urban rail rail_electric ship" speed="22.22" length="352.83" shape="6547.76,8587.36 6661.12,8587.41 6771.69,8562.44 6841.56,8534.41 6878.35,8516.55"/>
    </edge>
    <edge id="-10424793#2" from="320198914" to="437740521" priority="6" type="highway.tertiary" shape="6262.53,8580.08 6418.36,8588.95 6543.73,8589.01">
        <lane id="-10424793#2_0" index="0" disallow="tram rail_urban rail rail_electric ship" speed="22.22" length="281.46" shape="6269.73,8578.83 6418.41,8587.30 6538.06,8587.35"/>
    </edge>
    <edge id="-10424793#3" from="320198906" to="320198914" priority="6" type="highway.tertiary" shape="6038.18,8567.97 6108.02,8568.72 6262.53,8580.08">
        <lane id="-10424793#3_0" index="0" disallow="tram rail_urban rail rail_electric ship" speed="22.22" length="224.77" shape="6043.01,8566.37 6108.09,8567.07 6257.75,8578.07"/>
    </edge>
    <edge id="-10424793#4" from="89112633" to="320198906" priority="6" type="highway.tertiary" shape="5770.14,8586.62 5977.69,8569.99 6038.18,8567.97">
        <lane id="-10424793#4_0" index="0" disallow="tram rail_urban rail rail_electric ship" speed="22.22" length="268.73" shape="5774.72,8584.60 5977.60,8568.34 6032.30,8566.51"/>
    </edge>
    <edge id="-10424793#5" from="301445359" to="89112633" priority="6" type="highway.tertiary" shape="5173.06,8667.41 5361.29,8643.93 5546.48,8616.60 5770.14,8586.62">
        <lane id="-10424793#5_0" index="0" disallow="tram rail_urban rail rail_electric ship" speed="22.22" length="602.55" shape="5177.54,8665.19 5361.06,8642.30 5546.25,8614.97 5765.01,8585.64"/>
    </edge>
    <edge id="-10424793#6" from="301666658" to="301445359" priority="6" type="highway.tertiary" shape="4878.90,8719.87 4962.59,8698.41 5173.06,8667.41">
        <lane id="-10424793#6_0" index="0" disallow="tram rail_urban rail rail_electric ship" speed="22.22" length="299.14" shape="4883.51,8716.99 4962.26,8696.80 5168.16,8666.46"/>
    </edge>
    <edge id="-10424793#7" from="26698911" to="301666658" priority="6" type="highway.tertiary" shape="3049.36,9123.94 3230.25,9069.44 3564.24,8964.69 3716.26,8930.08 3913.54,8913.25 4517.35,8796.15 4523.14,8795.51 4628.96,8788.68 4688.40,8779.07 4878.90,8719.87">
        <lane id="-10424793#7_0" index="0" disallow="tram rail_urban rail rail_electric ship" speed="22.22" length="1879.48" shape="3048.88,9122.36 3229.76,9067.86 3563.81,8963.09 3716.01,8928.45 3913.32,8911.62 4517.10,8794.52 4523.00,8793.86 4628.78,8787.04 4688.02,8777.46 4874.38,8719.55"/>
    </edge>
    <edge id="-10424795" from="300745371" to="89112295" name="Dr.-Hans-Hutter-Straße" priority="4" type="highway.residential" shape="7851.16,6975.71 7868.90,6992.84 7890.05,7010.56 7958.08,7060.68">
        <lane id="-10424795_0" index="0" disallow="tram rail_urban rail rail_electric ship" speed="13.89" length="136.75" shape="7856.20,6978.29 7870.01,6991.61 7891.07,7009.27 7952.70,7054.67"/>
    </edge>
    <edge id="-10424797#0" from="297076275" to="27230157" name="Hofmühlstraße" priority="6" type="highway.tertiary" shape="4696.29,7109.28 4679.53,7132.11 4656.98,7194.49 4650.69,7257.33 4658.27,7346.11 4682.09,7416.63 4712.39,7456.66 4733.64,7484.78">
        <lane id="-10424797#0_0" index="0" disallow="tram rail_urban rail rail_electric ship" speed="22.22" length="406.79" shape="4692.57,7117.14 4681.00,7132.89 4658.60,7194.85 4652.35,7257.34 4659.89,7345.77 4683.57,7415.85 4713.71,7455.67 4731.56,7479.30"/>
    </edge>
    <edge id="-10424797#1" from="89112728" to="297076275" name="Hofmühlstraße" priority="6" type="highway.tertiary" shape="5298.33,6141.06 5292.65,6171.58 5247.80,6326.04 5220.44,6387.33 5190.76,6454.41 5122.40,6582.44 5035.21,6690.32 4880.53,6868.62 4809.54,6947.54 4744.01,7036.87 4696.29,7109.28">
        <lane id="-10424797#1_0" index="0" disallow="tram rail_urban rail rail_electric ship" speed="22.22" length="1155.90" shape="5299.40,6144.33 5294.26,6171.96 5249.35,6326.61 5221.95,6388.00 5192.24,6455.13 5123.78,6583.35 5036.48,6691.38 4881.76,6869.72 4810.83,6948.58 4745.37,7037.81 4699.27,7107.77"/>
    </edge>
    <edge id="-10424797#2" from="89112749" to="89112728" name="Hofmühlstraße" priority="6" type="highway.tertiary" shape="5220.67,5547.01 5211.63,5603.10 5220.14,5673.79 5251.93,5775.19 5291.69,5858.05 5302.45,5893.11 5302.68,5972.01 5299.58,6109.49 5298.33,6141.06">
        <lane id="-10424797#2_0" index="0" disallow="tram rail_urban rail rail_electric ship" speed="22.22" length="610.88" shape="5222.26,5547.54 5213.30,5603.14 5221.76,5673.44 5253.47,5774.58 5293.23,5857.45 5304.10,5892.86 5304.33,5972.02 5301.23,6109.54 5300.27,6133.81"/>
    </edge>
    <edge id="-10675428#0" from="94560419" to="89112278" priority="7" type="highway.secondary">
        <lane id="-10675428#0_0" index="0" disallow="tram rail_urban rail rail_electric ship" speed="27.78" length="24.04" shape="7857.43,7687.00 7867.87,7682.89"/>
        <lane id="-10675428#0_1" index="1" disallow="tram rail_urban rail rail_electric ship" speed="27.78" length="24.04" shape="7858.63,7690.07 7869.07,7685.96"/>
    </edge>
    <edge id="-10675428#1" from="300748279" to="94560419" priority="7" type="highway.secondary">
        <lane id="-10675428#1_0" index="0" disallow="tram rail_urban rail rail_electric ship" speed="27.78" length="84.70" shape="7786.89,7713.01 7853.21,7689.52"/>
        <lane id="-10675428#1_1" index="1" disallow="tram rail_urban rail rail_electric ship" speed="27.78" length="84.70" shape="7787.99,7716.12 7854.32,7692.63"/>
    </edge>
    <edge id="-10675428#2" from="89112580" to="300748279" priority="7" type="highway.secondary" shape="7347.56,7956.32 7399.67,7917.66 7484.03,7852.31 7543.64,7815.75 7649.68,7770.05 7778.90,7721.09">
        <lane id="-10675428#2_0" index="0" disallow="tram rail_urban rail rail_electric ship" speed="27.78" length="495.18" shape="7348.61,7949.38 7396.68,7913.72 7481.21,7848.24 7541.35,7811.35 7647.83,7765.46 7760.05,7722.94"/>
        <lane id="-10675428#2_1" index="1" disallow="tram rail_urban rail rail_electric ship" speed="27.78" length="495.18" shape="7350.58,7952.03 7398.68,7916.35 7483.09,7850.96 7542.88,7814.29 7649.06,7768.52 7761.22,7726.02"/>
    </edge>
    <edge id="-10675428#3" from="300748098" to="89112580" priority="7" type="highway.secondary" shape="6926.11,8466.99 6937.16,8418.84 6957.26,8367.03 7002.27,8292.25 7083.15,8205.92 7215.83,8074.74 7313.39,7986.77 7347.56,7956.32">
        <lane id="-10675428#3_0" index="0" disallow="tram rail_urban rail rail_electric ship" speed="27.78" length="674.27" shape="6921.31,8465.77 6932.42,8417.39 6952.80,8364.84 6998.30,8289.25 7079.61,8202.46 7212.43,8071.14 7310.08,7983.08 7340.31,7956.15"/>
        <lane id="-10675428#3_1" index="1" disallow="tram rail_urban rail rail_electric ship" speed="27.78" length="674.27" shape="6924.53,8466.51 6935.58,8418.36 6955.77,8366.30 7000.95,8291.25 7081.97,8204.76 7214.70,8073.54 7312.29,7985.54 7342.50,7958.62"/>
    </edge>
    <edge id="-10675428#4" from="89112591" to="300748098" priority="7" type="highway.secondary">
        <lane id="-10675428#4_0" index="0" disallow="tram rail_urban rail rail_electric ship" speed="27.78" length="49.06" shape="6909.43,8510.38 6921.30,8465.82"/>
        <lane id="-10675428#4_1" index="1" disallow="tram rail_urban rail rail_electric ship" speed="27.78" length="49.06" shape="6912.61,8511.23 6924.48,8466.68"/>
    </edge>
    <edge id="-10675428#5" from="437732144" to="89112591" priority="7" type="highway.secondary" shape="6916.78,8783.55 6909.68,8634.20 6913.48,8514.40">
        <lane id="-10675428#5_0" index="0" disallow="tram rail_urban rail rail_electric ship" speed="27.78" length="269.38" shape="6911.84,8783.78 6904.73,8634.24 6908.36,8519.51"/>
        <lane id="-10675428#5_1" index="1" disallow="tram rail_urban rail rail_electric ship" speed="27.78" length="269.38" shape="6915.13,8783.63 6908.03,8634.21 6911.66,8519.61"/>
    </edge>
    <edge id="-10675428#6" from="309179639" to="437732144" priority="7" type="highway.secondary" shape="6883.56,10156.72 6888.19,10129.22 6912.59,10025.61 6922.21,9970.99 6932.18,9867.09 6934.11,9846.96 6935.25,9698.91 6968.10,9518.63 6975.83,9441.60 6990.89,9312.76 6987.52,9233.60 6978.05,9126.02 6950.42,8971.48 6918.93,8828.87 6916.78,8783.55">
        <lane id="-10675428#6_0" index="0" disallow="tram rail_urban rail rail_electric ship" speed="27.78" length="1388.46" shape="6879.83,10149.06 6883.33,10128.24 6907.74,10024.61 6917.30,9970.32 6927.25,9866.62 6929.16,9846.70 6930.30,9698.45 6963.19,9517.94 6970.91,9441.06 6985.93,9312.58 6982.58,9233.93 6973.13,9126.68 6945.57,8972.45 6914.01,8829.52 6911.84,8783.78"/>
        <lane id="-10675428#6_1" index="1" disallow="tram rail_urban rail rail_electric ship" speed="27.78" length="1388.46" shape="6883.08,10149.61 6886.57,10128.89 6910.98,10025.28 6920.57,9970.76 6930.54,9866.94 6932.46,9846.87 6933.60,9698.76 6966.46,9518.40 6974.19,9441.42 6989.24,9312.70 6985.87,9233.71 6976.41,9126.24 6948.80,8971.81 6917.29,8829.09 6915.13,8783.63"/>
    </edge>
    <edge id="-10675428#7" from="254421993" to="309179639" priority="7" type="highway.secondary" shape="8548.90,16311.69 8541.86,16273.26 8550.39,16089.25 8549.65,16007.11 8552.45,15928.67 8553.14,15909.44 8573.31,15821.66 8609.44,15725.56 8619.32,15686.55 8653.23,15552.71 8677.08,15492.41 8739.45,15387.58 8755.98,15338.55 8796.41,15139.14 8805.35,15048.51 8819.66,15013.14 8862.20,14953.64 8878.05,14927.77 8905.21,14886.24 8970.92,14785.77 8980.17,14768.40 9015.13,14689.98 9035.97,14644.20 9047.73,14610.55 9048.30,14591.13 9043.69,14581.22 9039.43,14572.07 9001.88,14544.64 8950.85,14526.84 8911.94,14524.44 8887.95,14527.50 8874.16,14522.85 8834.86,14493.97 8729.34,14404.36 8662.35,14351.61 8575.60,14265.06 8519.57,14181.28 8403.01,13952.80 8360.99,13884.47 8287.77,13807.72 8245.59,13766.36 8213.09,13716.51 8186.89,13644.89 8160.25,13587.68 8116.78,13526.21 8082.33,13478.18 8062.01,13441.84 8033.50,13362.63 8022.14,13320.91 8004.71,13293.44 7993.95,13284.13 7984.46,13275.92 7956.52,13263.82 7893.26,13233.13 7780.30,13174.68 7712.48,13149.50 7681.46,13142.30 7631.00,13147.11 7579.92,13151.90 7500.78,13148.34 7461.04,13130.88 7432.27,13103.71 7412.77,13082.45 7399.06,13063.66 7401.44,13039.48 7406.03,13023.49 7414.91,13007.88 7446.15,12981.49 7455.06,12973.97 7474.98,12954.44 7489.55,12929.16 7508.03,12879.43 7567.94,12615.82 7582.08,12509.48 7585.68,12454.68 7586.62,12431.33 7587.12,12371.14 7578.11,12269.90 7562.71,12172.25 7540.58,12068.12 7479.44,11898.87 7434.23,11766.47 7421.51,11705.89 7403.54,11480.18 7372.82,11389.60 7324.42,11323.58 7196.92,11207.60 7098.46,11110.02 7038.72,11022.35 7014.83,10979.03 6990.90,10935.65 6965.22,10844.58 6959.98,10793.44 6955.41,10748.93 6937.27,10509.57 6922.37,10412.34 6895.64,10270.40 6884.06,10192.27 6883.56,10156.72">
        <lane id="-10675428#7_0" index="0" disallow="tram rail_urban rail rail_electric ship" speed="27.78" length="7371.11" shape="8544.04,16312.58 8536.89,16273.60 8545.44,16089.16 8544.70,16007.05 8547.51,15928.49 8548.21,15908.79 8568.56,15820.22 8604.71,15724.08 8614.52,15685.33 8648.51,15551.18 8672.63,15490.22 8734.93,15385.50 8751.19,15337.26 8791.50,15138.40 8800.49,15047.32 8815.29,15010.74 8858.07,14950.90 8873.87,14925.12 8901.07,14883.53 8966.66,14783.25 8975.72,14766.23 9010.62,14687.95 9031.37,14642.36 9042.80,14609.64 9043.32,14592.16 9039.20,14583.31 9035.48,14575.32 8999.56,14549.07 8949.86,14531.74 8912.10,14529.41 8887.45,14532.55 8871.85,14527.29 8831.79,14497.86 8726.21,14408.19 8659.06,14355.32 8571.75,14268.22 8515.30,14183.79 8398.69,13955.22 8357.05,13887.51 8284.25,13811.20 8241.74,13769.52 8208.64,13718.74 8182.31,13646.79 8155.95,13590.17 8112.74,13529.08 8078.14,13480.84 8057.49,13443.90 8028.78,13364.12 8017.56,13322.93 8000.92,13296.70 7990.71,13287.88 7981.80,13280.16 7954.45,13268.32 7891.04,13237.56 7778.30,13179.22 7711.06,13154.25 7681.12,13147.31 7631.47,13152.04 7580.04,13156.86 7499.64,13153.24 7458.27,13135.06 7428.74,13107.18 7408.93,13085.59 7393.95,13065.06 7396.55,13038.55 7401.43,13021.56 7411.04,13004.66 7442.95,12977.71 7451.73,12970.30 7471.03,12951.38 7485.05,12927.04 7503.28,12878.02 7563.06,12614.94 7577.15,12508.99 7580.74,12454.42 7581.67,12431.21 7582.17,12371.34 7573.20,12270.51 7557.84,12173.15 7535.81,12069.48 7474.77,11900.52 7429.45,11767.78 7416.60,11706.60 7398.65,11481.19 7368.38,11391.91 7320.72,11326.91 7193.51,11211.19 7094.64,11113.20 7034.50,11024.95 7010.49,10981.42 6986.29,10937.54 6960.34,10845.51 6955.05,10793.95 6950.48,10749.37 6932.35,10510.14 6917.49,10413.17 6890.76,10271.22 6879.12,10192.67 6878.66,10160.78"/>
        <lane id="-10675428#7_1" index="1" disallow="tram rail_urban rail rail_electric ship" speed="27.78" length="7371.11" shape="8547.28,16311.99 8540.20,16273.37 8548.74,16089.22 8548.00,16007.09 8550.81,15928.61 8551.50,15909.22 8571.73,15821.18 8607.87,15725.07 8617.72,15686.14 8651.65,15552.20 8675.60,15491.68 8737.95,15386.89 8754.38,15338.12 8794.77,15138.90 8803.73,15048.11 8818.20,15012.34 8860.83,14952.73 8876.66,14926.89 8903.83,14885.33 8969.50,14784.93 8978.69,14767.68 9013.63,14689.31 9034.43,14643.59 9046.09,14610.25 9046.64,14591.48 9042.19,14581.92 9038.12,14573.15 9001.11,14546.11 8950.52,14528.47 8911.99,14526.10 8887.78,14529.18 8873.39,14524.33 8833.84,14495.27 8728.30,14405.64 8661.25,14352.85 8574.32,14266.11 8518.15,14182.12 8401.57,13953.60 8359.68,13885.49 8286.60,13808.88 8244.31,13767.41 8211.61,13717.25 8185.36,13645.52 8158.82,13588.51 8115.43,13527.17 8080.93,13479.07 8060.50,13442.53 8031.93,13363.12 8020.62,13321.59 8003.45,13294.53 7992.87,13285.38 7983.57,13277.33 7955.83,13265.32 7892.52,13234.61 7779.63,13176.19 7712.01,13151.09 7681.34,13143.97 7631.16,13148.75 7579.96,13153.55 7500.40,13149.97 7460.12,13132.27 7431.10,13104.87 7411.49,13083.50 7397.36,13064.13 7399.81,13039.17 7404.49,13022.85 7413.62,13006.80 7445.08,12980.23 7453.95,12972.75 7473.66,12953.42 7488.05,12928.45 7506.45,12878.96 7566.31,12615.53 7580.44,12509.31 7584.03,12454.59 7584.97,12431.29 7585.47,12371.21 7576.47,12270.10 7561.09,12172.55 7538.99,12068.58 7477.89,11899.42 7432.63,11766.91 7419.88,11706.13 7401.91,11480.52 7371.34,11390.37 7323.18,11324.69 7195.79,11208.80 7097.19,11111.08 7037.31,11023.22 7013.38,10979.83 6989.36,10936.28 6963.60,10844.89 6958.33,10793.61 6953.76,10749.08 6935.63,10509.76 6920.74,10412.61 6894.01,10270.68 6882.41,10192.41 6881.96,10160.73"/>
    </edge>
    <edge id="-23951777#0" from="89112391" to="27229880" name="Römerstraße" priority="4" type="highway.residential" shape="7114.33,6245.14 7199.99,6197.34 7234.62,6172.93 7331.06,6127.21">
        <lane id="-23951777#0_0" index="0" disallow="tram rail_urban rail rail_electric ship" speed="13.89" length="247.19" shape="7115.97,6242.34 7199.11,6195.94 7233.78,6171.50 7322.72,6129.34"/>
    </edge>
    <edge id="-23951777#1" from="300745278" to="89112391" name="Römerstraße" priority="4" type="highway.residential">
        <lane id="-23951777#1_0" index="0" disallow="tram rail_urban rail rail_electric ship" speed="13.89" length="64.28" shape="7060.34,6270.28 7105.39,6247.76"/>
    </edge>
    <edge id="-23951777#2" from="300745255" to="300745278" name="Römerstraße" priority="4" type="highway.residential">
        <lane id="-23951777#2_0" index="0" disallow="tram rail_urban rail rail_electric ship" speed="13.89" length="108.77" shape="6965.18,6321.81 7051.96,6274.65"/>
    </edge>
    <edge id="-23951777#3" from="300745248" to="300745255" name="Römerstraße" priority="4" type="highway.residential" shape="6798.20,6388.72 6830.15,6379.40 6920.66,6344.82 6961.26,6325.82">
        <lane id="-23951777#3_0" index="0" disallow="tram rail_urban rail rail_electric ship" speed="13.89" length="175.00" shape="6802.59,6385.72 6829.63,6377.83 6920.01,6343.30 6955.52,6326.68"/>
    </edge>
    <edge id="-23951777#4" from="297063760" to="300745248" name="Römerstraße" priority="4" type="highway.residential">
        <lane id="-23951777#4_0" index="0" disallow="tram rail_urban rail rail_electric ship" speed="13.89" length="64.88" shape="6734.91,6402.54 6793.59,6388.15"/>
    </edge>
    <edge id="-23951777#5" from="297063706" to="297063760" name="Römerstraße" priority="4" type="highway.residential" shape="6618.21,6454.09 6700.98,6413.77 6735.18,6404.18">
        <lane id="-23951777#5_0" index="0" disallow="tram rail_urban rail rail_electric ship" speed="13.89" length="127.59" shape="6622.48,6450.17 6700.39,6412.22 6734.62,6402.62"/>
    </edge>
    <edge id="-23951780#0" from="297082642" to="89112449" name="Westenstraße" priority="4" type="highway.residential">
        <lane id="-23951780#0_0" index="0" disallow="tram rail_urban rail rail_electric ship" speed="13.89" length="37.28" shape="5300.31,7795.05 5279.67,7792.03"/>
    </edge>
    <edge id="-23951780#1" from="297082675" to="297082642" name="Westenstraße" priority="4" type="highway.residential" shape="5658.95,7493.87 5650.88,7514.71 5625.16,7552.65 5596.16,7581.16 5511.73,7655.10 5472.14,7693.07 5430.84,7729.43 5359.00,7775.19 5324.31,7793.67 5305.58,7794.16">
        <lane id="-23951780#1_0" index="0" disallow="tram rail_urban rail rail_electric ship" speed="13.89" length="474.18" shape="5658.50,7499.59 5652.35,7515.48 5626.43,7553.71 5597.28,7582.37 5512.85,7656.32 5473.25,7694.28 5431.83,7730.75 5359.83,7776.61 5324.74,7795.31 5309.59,7795.70"/>
    </edge>
    <edge id="-23951780#2" from="89112465" to="297082675" name="Westenstraße" priority="4" type="highway.residential" shape="5719.87,7413.74 5683.63,7456.75 5658.95,7493.87">
        <lane id="-23951780#2_0" index="0" disallow="tram rail_urban rail rail_electric ship" speed="13.89" length="100.82" shape="5717.84,7418.71 5684.95,7457.75 5662.97,7490.80"/>
    </edge>
    <edge id="-23951780#3" from="297082726" to="89112465" name="Westenstraße" priority="4" type="highway.residential">
        <lane id="-23951780#3_0" index="0" disallow="tram rail_urban rail rail_electric ship" speed="13.89" length="64.08" shape="5757.78,7366.90 5723.96,7411.11"/>
    </edge>
    <edge id="-23951780#4" from="297082761" to="297082726" name="Westenstraße" priority="4" type="highway.residential" shape="5811.41,7263.76 5804.84,7277.79 5764.43,7354.23 5758.80,7362.84">
        <lane id="-23951780#4_0" index="0" disallow="tram rail_urban rail rail_electric ship" speed="13.89" length="112.24" shape="5812.83,7264.61 5806.31,7278.53 5765.86,7355.06 5763.28,7359.00"/>
    </edge>
    <edge id="-23951780#5" from="89112476" to="297082761" name="Westenstraße" priority="4" type="highway.residential">
        <lane id="-23951780#5_0" index="0" disallow="tram rail_urban rail rail_electric ship" speed="13.89" length="64.91" shape="5832.47,7208.73 5813.02,7264.16"/>
    </edge>
    <edge id="-23951780#6" from="297063775" to="89112476" name="Westenstraße" priority="4" type="highway.residential" shape="5858.83,7139.83 5842.86,7178.84 5832.90,7202.52">
        <lane id="-23951780#6_0" index="0" disallow="tram rail_urban rail rail_electric ship" speed="13.89" length="67.84" shape="5860.31,7140.58 5844.39,7179.48 5835.97,7199.47"/>
    </edge>
    <edge id="-23951780#7" from="89112479" to="297063775" name="Westenstraße" priority="4" type="highway.residential">
        <lane id="-23951780#7_0" index="0" disallow="tram rail_urban rail rail_electric ship" speed="13.89" length="33.61" shape="5870.98,7112.23 5860.42,7140.29"/>
    </edge>
    <edge id="-23951780#8" from="286919915" to="89112479" name="Westenstraße" priority="4" type="highway.residential" shape="5886.78,7067.88 5884.66,7074.77 5870.67,7108.38">
        <lane id="-23951780#8_0" index="0" disallow="tram rail_urban rail rail_electric ship" speed="13.89" length="50.97" shape="5889.57,7064.43 5886.21,7075.33 5873.28,7106.39"/>
    </edge>