<?xml version="1.0" encoding="UTF-8"?>

<!-- generated on Tue Jul 30 15:49:31 2013 by SUMO netconvert Version dev-SVN-r14318
<?xml version="1.0" encoding="UTF-8"?>

<configuration xmlns:xsi="http://www.w3.org/2001/XMLSchema-instance" xsi:noNamespaceSchemaLocation="http://sumo.sf.net/xsd/netconvertConfiguration.xsd">

    <input>
        <osm-files value="osm.xml"/>
    </input>

    <output>
        <output-file value="net.net.xml"/>
        <output.street-names value="true"/>
    </output>

    <projection>
        <proj.utm value="true"/>
    </projection>

    <processing>
        <no-internal-links value="true"/>
    </processing>

    <report>
        <verbose value="true"/>
    </report>

</configuration>
-->

<net version="0.13" xmlns:xsi="http://www.w3.org/2001/XMLSchema-instance" xsi:noNamespaceSchemaLocation="http://sumo.sf.net/xsd/net_file.xsd">

    <location netOffset="-651925.45,-5410956.58" convBoundary="0.00,0.00,21507.55,19090.37" origBoundary="11.071919,48.828054,11.371208,48.998938" projParameter="+proj=utm +zone=32 +ellps=WGS84 +datum=WGS84 +units=m +no_defs"/>

    <edge id="-10424782" from="89112330" to="89112315" priority="2" type="highway.service">
        <lane id="-10424782_0" index="0" allow="delivery" speed="5.56" length="8.13" shape="10316.04,6348.31 10316.03,6348.51"/>
    </edge>
    <edge id="-10424784#0" from="308628804" to="89112352" name="Bahnhofplatz" priority="5" type="highway.unclassified">
        <lane id="-10424784#0_0" index="0" speed="22.22" length="13.50" shape="7898.43,6797.50 7898.30,6797.34"/>
    </edge>
    <edge id="-10424784#1" from="89112358" to="308628804" name="Bahnhofplatz" priority="5" type="highway.unclassified">
        <lane id="-10424784#1_0" index="0" speed="22.22" length="37.61" shape="7921.54,6826.77 7905.19,6806.03"/>
    </edge>
    <edge id="-10424784#2" from="263885942" to="89112358" name="Bahnhofplatz" priority="5" type="highway.unclassified" shape="7991.85,6819.03 7944.05,6832.37 7925.59,6829.25">
        <lane id="-10424784#2_0" index="0" speed="22.22" length="68.35" shape="7992.30,6820.61 7944.14,6834.06 7928.40,6831.40"/>
    </edge>
    <edge id="-10424791#0" from="297079974" to="27230158" name="Rebdorfer Straße" priority="7" type="highway.secondary" shape="6832.44,7653.54 6800.13,7616.43 6770.13,7558.94">
        <lane id="-10424791#0_0" index="0" speed="27.78" length="114.05" shape="6825.15,7652.70 6796.02,7619.24 6767.94,7565.44"/>
        <lane id="-10424791#0_1" index="1" speed="27.78" length="114.05" shape="6827.64,7650.54 6798.76,7617.36 6770.86,7563.92"/>
    </edge>
    <edge id="-10424791#1" from="297079978" to="297079974" name="Rebdorfer Straße" priority="7" type="highway.secondary" shape="7001.23,7784.67 6976.91,7767.94 6926.23,7730.54 6858.19,7679.37 6832.44,7653.54">
        <lane id="-10424791#1_0" index="0" speed="27.78" length="214.11" shape="6995.92,7787.02 6974.10,7772.02 6923.29,7734.53 6855.22,7683.32 6831.55,7659.65"/>
        <lane id="-10424791#1_1" index="1" speed="27.78" length="214.11" shape="6997.79,7784.30 6975.97,7769.30 6925.25,7731.87 6857.20,7680.69 6833.88,7657.32"/>
    </edge>
    <edge id="-10424791#2" from="297080139" to="297079978" name="Rebdorfer Straße" priority="7" type="highway.secondary" shape="7107.33,7827.30 7077.80,7822.07 7048.21,7813.56 7001.23,7784.67">
        <lane id="-10424791#2_0" index="0" speed="27.78" length="115.93" shape="7102.41,7831.46 7076.93,7826.95 7046.19,7818.13 7004.01,7792.18"/>
        <lane id="-10424791#2_1" index="1" speed="27.78" length="115.93" shape="7102.99,7828.21 7077.51,7823.70 7047.54,7815.09 7005.74,7789.37"/>
    </edge>
    <edge id="-10424791#3" from="320165206" to="297080139" name="Rebdorfer Straße" priority="7" type="highway.secondary" shape="7411.46,7790.54 7371.48,7792.35 7311.82,7808.51 7241.17,7832.56 7153.48,7833.12 7107.33,7827.30">
        <lane id="-10424791#3_0" index="0" speed="27.78" length="310.67" shape="7409.69,7795.57 7372.24,7797.27 7313.11,7813.29 7242.01,7837.50 7153.51,7838.07 7111.75,7832.84"/>
        <lane id="-10424791#3_1" index="1" speed="27.78" length="310.67" shape="7409.54,7792.28 7371.73,7793.99 7312.25,7810.10 7241.45,7834.21 7153.49,7834.77 7112.16,7829.57"/>
    </edge>
    <edge id="-10424791#4" from="89112449" to="320165206" name="Rebdorfer Straße" priority="7" type="highway.secondary" shape="7457.96,7788.75 7432.34,7789.70 7411.46,7790.54">
        <lane id="-10424791#4_0" index="0" speed="27.78" length="46.53" shape="7440.22,7794.36 7432.52,7794.65 7419.90,7795.15"/>
        <lane id="-10424791#4_1" index="1" speed="27.78" length="46.53" shape="7440.09,7791.06 7432.40,7791.35 7419.77,7791.85"/>
    </edge>
    <edge id="-10424793#0" from="300748050" to="89112591" priority="6" type="highway.tertiary">
        <lane id="-10424793#0_0" index="0" speed="22.22" length="29.79" shape="9076.28,8513.98 9094.35,8513.14"/>
    </edge>
    <edge id="-10424793#1" from="437740521" to="300748050" priority="6" type="highway.tertiary" shape="8733.00,8589.01 8850.57,8589.06 8961.44,8564.02 9031.49,8535.92 9072.98,8515.78">
        <lane id="-10424793#1_0" index="0" speed="22.22" length="352.83" shape="8737.03,8587.36 8850.39,8587.41 8961.08,8562.41 9030.87,8534.39 9067.62,8516.55"/>
    </edge>
    <edge id="-10424793#2" from="320198914" to="437740521" priority="6" type="highway.tertiary" shape="8451.79,8580.08 8607.63,8588.95 8733.00,8589.01">
        <lane id="-10424793#2_0" index="0" speed="22.22" length="281.46" shape="8459.00,8578.83 8607.72,8587.30 8727.32,8587.35"/>
    </edge>
    <edge id="-10424793#3" from="320198906" to="320198914" priority="6" type="highway.tertiary" shape="8227.44,8567.97 8297.28,8568.72 8451.79,8580.08">
        <lane id="-10424793#3_0" index="0" speed="22.22" length="224.77" shape="8232.27,8566.37 8297.30,8567.07 8447.01,8578.07"/>
    </edge>
    <edge id="-10424793#4" from="89112633" to="320198906" priority="6" type="highway.tertiary" shape="7959.41,8586.62 8166.96,8569.99 8227.44,8567.97">
        <lane id="-10424793#4_0" index="0" speed="22.22" length="268.73" shape="7963.99,8584.60 8166.83,8568.34 8221.56,8566.51"/>
    </edge>
    <edge id="-10424793#5" from="301445359" to="89112633" priority="6" type="highway.tertiary" shape="7362.32,8667.41 7550.55,8643.93 7735.74,8616.60 7959.41,8586.62">
        <lane id="-10424793#5_0" index="0" speed="22.22" length="602.55" shape="7366.81,8665.19 7550.35,8642.29 7735.50,8614.97 7954.28,8585.64"/>
    </edge>
    <edge id="-10424793#6" from="301666658" to="301445359" priority="6" type="highway.tertiary" shape="7068.16,8719.87 7151.85,8698.41 7362.32,8667.41">
        <lane id="-10424793#6_0" index="0" speed="22.22" length="299.14" shape="7072.78,8716.99 7151.44,8696.82 7357.43,8666.46"/>
    </edge>
    <edge id="-10424793#7" from="26698911" to="301666658" priority="6" type="highway.tertiary" shape="5238.62,9123.94 5419.51,9069.44 5753.50,8964.69 5905.53,8930.08 6102.81,8913.25 6706.62,8796.15 6712.41,8795.51 6818.23,8788.68 6877.66,8779.07 7068.16,8719.87">
        <lane id="-10424793#7_0" index="0" speed="22.22" length="1879.48" shape="5238.15,9122.36 5419.04,9067.86 5753.01,8963.11 5905.16,8928.47 6102.67,8911.61 6706.30,8794.53 6712.22,8793.87 6818.12,8787.03 6877.40,8777.44 7063.64,8719.55"/>
    </edge>
    <edge id="-10424795" from="300745371" to="89112295" name="Dr.-Hans-Hutter-Straße" priority="4" type="highway.residential" shape="10040.42,6975.71 10058.17,6992.84 10079.32,7010.56 10147.34,7060.68">
        <lane id="-10424795_0" index="0" speed="13.89" length="136.75" shape="10045.47,6978.29 10059.31,6991.65 10080.38,7009.30 10141.96,7054.67"/>
    </edge>
    <edge id="-10424797#0" from="297076275" to="27230157" name="Hofmühlstraße" priority="6" type="highway.tertiary" shape="6885.56,7109.28 6868.79,7132.11 6846.24,7194.49 6839.96,7257.33 6847.53,7346.11 6871.35,7416.63 6901.66,7456.66 6922.90,7484.78">
        <lane id="-10424797#0_0" index="0" speed="22.22" length="406.79" shape="6881.83,7117.14 6870.26,7132.89 6847.86,7194.85 6841.61,7257.34 6849.16,7345.77 6872.83,7415.85 6902.97,7455.67 6920.83,7479.30"/>
    </edge>
    <edge id="-10424797#1" from="89112728" to="297076275" name="Hofmühlstraße" priority="6" type="highway.tertiary" shape="7487.60,6141.06 7481.92,6171.58 7437.06,6326.04 7409.71,6387.33 7380.02,6454.41 7311.66,6582.44 7224.48,6690.32 7069.79,6868.62 6998.81,6947.54 6933.28,7036.87 6885.56,7109.28">
        <lane id="-10424797#1_0" index="0" speed="22.22" length="1155.90" shape="7488.67,6144.33 7483.54,6171.88 7438.65,6326.50 7411.21,6388.00 7381.53,6455.07 7313.04,6583.35 7225.76,6691.36 7071.04,6869.70 7000.04,6948.64 6934.61,7037.84 6888.53,7107.77"/>
    </edge>
    <edge id="-10424797#2" from="89112749" to="89112728" name="Hofmühlstraße" priority="6" type="highway.tertiary" shape="7409.94,5547.01 7400.90,5603.10 7409.41,5673.79 7441.20,5775.19 7480.95,5858.05 7491.72,5893.11 7491.94,5972.01 7488.84,6109.49 7487.60,6141.06">
        <lane id="-10424797#2_0" index="0" speed="22.22" length="610.88" shape="7411.52,5547.54 7402.57,5603.14 7411.03,5673.44 7442.77,5774.70 7482.44,5857.33 7493.37,5892.86 7493.59,5972.00 7490.49,6109.53 7489.53,6133.81"/>
    </edge>
    <edge id="-10675428#0" from="94560419" to="89112278" priority="7" type="highway.secondary">
        <lane id="-10675428#0_0" index="0" speed="27.78" length="74.22" shape="10046.69,7687.00 10057.13,7682.89"/>
        <lane id="-10675428#0_1" index="1" speed="27.78" length="74.22" shape="10047.90,7690.07 10058.34,7685.96"/>
    </edge>
    <edge id="-10675428#1" from="300748279" to="94560419" priority="7" type="highway.secondary">
        <lane id="-10675428#1_0" index="0" speed="27.78" length="83.67" shape="9976.15,7713.01 10042.48,7689.52"/>
        <lane id="-10675428#1_1" index="1" speed="27.78" length="83.67" shape="9977.25,7716.12 10043.58,7692.63"/>
    </edge>
    <edge id="-10675428#2" from="89112580" to="300748279" priority="7" type="highway.secondary" shape="9536.83,7956.32 9588.94,7917.66 9673.29,7852.31 9732.90,7815.75 9838.95,7770.05 9968.16,7721.09">
        <lane id="-10675428#2_0" index="0" speed="27.78" length="495.18" shape="9537.88,7949.38 9585.99,7913.69 9670.26,7848.40 9730.31,7811.53 9836.99,7765.51 9949.32,7722.94"/>
        <lane id="-10675428#2_1" index="1" speed="27.78" length="495.18" shape="9539.84,7952.03 9587.96,7916.34 9672.28,7851.01 9732.04,7814.35 9838.29,7768.54 9950.49,7726.02"/>
    </edge>
    <edge id="-10675428#3" from="300748098" to="89112580" priority="7" type="highway.secondary" shape="9115.37,8466.99 9126.43,8418.84 9146.53,8367.03 9191.54,8292.25 9272.42,8205.92 9405.09,8074.74 9502.65,7986.77 9536.83,7956.32">
        <lane id="-10675428#3_0" index="0" speed="27.78" length="701.29" shape="9117.11,8437.32 9121.61,8417.73 9141.91,8365.24 9187.57,8289.25 9268.81,8202.53 9401.61,8071.22 9499.34,7983.09 9529.57,7956.15"/>
        <lane id="-10675428#3_1" index="1" speed="27.78" length="701.29" shape="9120.32,8438.06 9124.82,8418.47 9144.99,8366.43 9190.22,8291.25 9271.21,8204.79 9403.93,8073.57 9501.55,7985.54 9531.77,7958.62"/>
    </edge>
    <edge id="-10675428#4" from="89112591" to="300748098" priority="7" type="highway.secondary">
        <lane id="-10675428#4_0" index="0" speed="27.78" length="76.08" shape="9098.69,8510.38 9116.85,8442.23"/>
        <lane id="-10675428#4_1" index="1" speed="27.78" length="76.08" shape="9101.88,8511.23 9120.03,8443.08"/>
    </edge>
    <edge id="-10675428#5" from="437732144" to="89112591" priority="7" type="highway.secondary" shape="9106.05,8783.55 9098.95,8634.20 9102.74,8514.40">
        <lane id="-10675428#5_0" index="0" speed="27.78" length="269.38" shape="9100.90,8779.58 9094.01,8634.43 9097.63,8519.51"/>
        <lane id="-10675428#5_1" index="1" speed="27.78" length="269.38" shape="9104.20,8779.42 9097.30,8634.28 9100.93,8519.61"/>
    </edge>
    <edge id="-10675428#6" from="309179639" to="437732144" priority="7" type="highway.secondary" shape="9072.82,10156.72 9077.45,10129.22 9101.86,10025.61 9111.47,9970.99 9121.44,9867.09 9123.38,9846.96 9124.51,9698.91 9157.36,9518.63 9165.10,9441.60 9180.16,9312.76 9176.79,9233.60 9167.31,9126.02 9139.69,8971.48 9108.20,8828.87 9106.05,8783.55">
        <lane id="-10675428#6_0" index="0" speed="27.78" length="1388.46" shape="9069.09,10149.06 9072.57,10128.39 9097.04,10024.47 9106.60,9970.13 9116.52,9866.62 9118.45,9846.49 9119.56,9698.87 9152.49,9517.74 9160.17,9441.10 9175.24,9312.19 9171.84,9233.81 9162.38,9126.46 9134.81,8972.35 9103.36,8829.93 9101.36,8789.09"/>
        <lane id="-10675428#6_1" index="1" speed="27.78" length="1388.46" shape="9072.35,10149.61 9075.83,10128.94 9100.25,10025.23 9109.85,9970.70 9119.80,9866.94 9121.73,9846.80 9122.86,9698.90 9155.74,9518.34 9163.46,9441.43 9178.52,9312.57 9175.14,9233.67 9165.67,9126.17 9138.06,8971.77 9106.59,8829.22 9104.65,8788.93"/>
    </edge>
    <edge id="-10675428#7" from="254421993" to="309179639" priority="7" type="highway.secondary" shape="10738.17,16311.69 10731.12,16273.26 10739.65,16089.25 10738.92,16007.11 10741.72,15928.67 10742.41,15909.44 10762.58,15821.66 10798.71,15725.56 10808.59,15686.55 10842.49,15552.71 10866.35,15492.41 10928.72,15387.58 10945.24,15338.55 10985.67,15139.14 10994.61,15048.51 11008.92,15013.14 11051.47,14953.64 11067.31,14927.77 11094.48,14886.24 11160.19,14785.77 11169.44,14768.40 11204.39,14689.98 11225.23,14644.20 11237.00,14610.55 11237.57,14591.13 11232.96,14581.22 11228.70,14572.07 11191.15,14544.64 11140.11,14526.84 11101.20,14524.44 11077.22,14527.50 11063.43,14522.85 11024.13,14493.97 10918.61,14404.36 10851.61,14351.61 10764.86,14265.06 10708.84,14181.28 10592.27,13952.80 10550.26,13884.47 10477.04,13807.72 10434.86,13766.36 10402.36,13716.51 10376.15,13644.89 10349.52,13587.68 10306.04,13526.21 10271.59,13478.18 10251.27,13441.84 10222.77,13362.63 10211.41,13320.91 10193.97,13293.44 10183.22,13284.13 10173.73,13275.92 10145.78,13263.82 10082.53,13233.13 9969.57,13174.68 9901.75,13149.50 9870.72,13142.30 9820.27,13147.11 9769.19,13151.90 9690.05,13148.34 9650.31,13130.88 9621.54,13103.71 9602.03,13082.45 9588.33,13063.66 9590.70,13039.48 9595.29,13023.49 9604.17,13007.88 9635.41,12981.49 9644.33,12973.97 9664.24,12954.44 9678.81,12929.16 9697.30,12879.43 9757.20,12615.82 9771.34,12509.48 9774.95,12454.68 9775.89,12431.33 9776.39,12371.14 9767.38,12269.90 9751.98,12172.25 9729.84,12068.12 9668.71,11898.87 9623.49,11766.47 9610.78,11705.89 9592.80,11480.18 9562.09,11389.60 9513.68,11323.58 9386.19,11207.60 9287.73,11110.02 9227.99,11022.35 9204.09,10979.03 9180.16,10935.65 9154.49,10844.58 9149.24,10793.44 9144.67,10748.93 9126.54,10509.57 9111.63,10412.34 9084.91,10270.40 9073.33,10192.27 9072.82,10156.72">
        <lane id="-10675428#7_0" index="0" speed="27.78" length="7371.11" shape="10733.30,16312.58 10726.15,16273.60 10734.71,16089.02 10733.97,16007.16 10736.77,15928.49 10737.48,15908.79 10757.75,15820.55 10794.07,15723.82 10803.79,15685.33 10837.69,15551.49 10861.75,15490.59 10924.20,15385.50 10940.55,15336.97 10980.82,15138.16 10989.76,15047.32 11004.55,15010.74 11047.44,14950.76 11063.09,14925.18 11090.34,14883.53 11156.05,14783.06 11165.07,14766.07 11199.87,14687.97 11220.73,14642.15 11232.07,14609.64 11232.58,14592.16 11228.47,14583.31 11224.75,14575.32 11188.82,14549.07 11139.13,14531.74 11101.36,14529.41 11076.71,14532.55 11061.12,14527.29 11021.20,14497.96 10915.40,14408.13 10848.55,14355.50 10761.02,14268.22 10704.72,14184.03 10587.87,13955.05 10546.31,13887.51 10473.46,13811.14 10431.01,13769.52 10397.90,13718.74 10371.50,13646.59 10345.22,13590.17 10302.00,13529.07 10267.57,13481.07 10246.95,13444.26 10218.11,13364.30 10206.83,13322.93 10190.18,13296.70 10179.98,13287.88 10171.06,13280.16 10143.82,13268.36 10080.37,13237.58 9967.29,13179.08 9900.02,13154.14 9870.39,13147.31 9820.73,13152.04 9769.65,13156.83 9688.90,13153.24 9647.53,13135.06 9618.14,13107.31 9598.39,13085.80 9583.22,13065.06 9585.82,13038.55 9590.70,13021.56 9600.30,13004.66 9632.22,12977.71 9641.14,12970.18 9660.29,12951.38 9674.52,12926.69 9692.66,12877.71 9752.38,12614.72 9766.44,12508.82 9770.01,12454.36 9770.94,12431.14 9771.44,12371.10 9762.45,12270.34 9747.09,12173.02 9725.00,12069.15 9664.05,11900.56 9618.81,11768.07 9605.93,11706.91 9587.92,11481.19 9557.65,11391.91 9509.98,11326.91 9382.86,11211.26 9283.91,11113.20 9223.89,11025.14 9199.76,10981.42 9175.55,10937.54 9149.72,10845.92 9144.32,10793.95 9139.75,10749.44 9121.60,10509.95 9106.74,10413.09 9080.04,10271.32 9068.43,10193.00 9067.93,10160.78"/>
        <lane id="-10675428#7_1" index="1" speed="27.78" length="7371.11" shape="10736.55,16311.99 10729.47,16273.37 10738.00,16089.17 10737.27,16007.13 10740.07,15928.61 10740.76,15909.22 10760.97,15821.29 10797.16,15724.98 10806.99,15686.14 10840.89,15552.30 10864.82,15491.80 10927.21,15386.89 10943.68,15338.02 10984.05,15138.81 10992.99,15048.11 11007.47,15012.34 11050.12,14952.68 11065.91,14926.91 11093.10,14885.33 11158.81,14784.87 11167.98,14767.62 11202.89,14689.31 11223.73,14643.52 11235.35,14610.25 11235.90,14591.48 11231.46,14581.91 11227.38,14573.15 11190.37,14546.11 11139.78,14528.47 11101.26,14526.10 11077.05,14529.18 11062.66,14524.33 11023.15,14495.30 10917.54,14405.62 10850.59,14352.91 10763.58,14266.11 10707.47,14182.20 10590.80,13953.55 10548.94,13885.49 10475.84,13808.86 10433.57,13767.41 10400.87,13717.25 10374.60,13645.46 10348.09,13588.51 10304.69,13527.16 10270.25,13479.14 10249.83,13442.65 10221.21,13363.19 10209.88,13321.59 10192.71,13294.53 10182.14,13285.38 10172.84,13277.33 10145.13,13265.33 10081.81,13234.61 9968.81,13176.15 9901.17,13151.05 9870.61,13143.97 9820.42,13148.75 9769.34,13153.54 9689.67,13149.97 9649.38,13132.27 9620.40,13104.91 9600.82,13083.56 9586.63,13064.13 9589.07,13039.17 9593.76,13022.85 9602.88,13006.80 9634.35,12980.23 9643.26,12972.71 9662.92,12953.42 9677.38,12928.33 9695.75,12878.86 9755.59,12615.45 9769.71,12509.26 9773.30,12454.57 9774.24,12431.27 9774.74,12371.13 9765.73,12270.05 9750.35,12172.50 9728.23,12068.46 9667.16,11899.43 9621.93,11767.00 9609.16,11706.23 9591.17,11480.52 9560.61,11390.37 9512.45,11324.69 9385.08,11208.82 9286.45,11111.08 9226.62,11023.28 9202.65,10979.83 9178.62,10936.28 9152.90,10845.02 9147.60,10793.61 9143.03,10749.10 9124.89,10509.70 9110.00,10412.59 9083.29,10270.71 9071.69,10192.52 9071.23,10160.73"/>
    </edge>
    <edge id="-23951397" from="308263368" to="263885904" name="Ohne-Tritt-Steg" priority="1" type="highway.footway">
        <lane id="-23951397_0" index="0" allow="pedestrian" speed="8.33" length="29.25" shape="9629.06,5719.88 9617.81,5703.52"/>
    </edge>
    <edge id="-23951777#0" from="89112391" to="27229880" name="Römerstraße" priority="4" type="highway.residential" shape="9303.60,6245.14 9389.25,6197.34 9423.88,6172.93 9520.32,6127.21">
        <lane id="-23951777#0_0" index="0" speed="13.89" length="247.19" shape="9305.23,6242.34 9388.45,6195.90 9422.93,6171.58 9511.99,6129.34"/>
    </edge>
    <edge id="-23951777#1" from="300745278" to="89112391" name="Römerstraße" priority="4" type="highway.residential">
        <lane id="-23951777#1_0" index="0" speed="13.89" length="64.28" shape="9249.61,6270.28 9294.66,6247.76"/>
    </edge>
    <edge id="-23951777#2" from="300745255" to="300745278" name="Römerstraße" priority="4" type="highway.residential">
        <lane id="-23951777#2_0" index="0" speed="13.89" length="108.77" shape="9154.44,6321.81 9241.23,6274.65"/>
    </edge>
    <edge id="-23951777#3" from="300745248" to="300745255" name="Römerstraße" priority="4" type="highway.residential" shape="8987.46,6388.72 9019.42,6379.40 9109.92,6344.82 9150.53,6325.82">
        <lane id="-23951777#3_0" index="0" speed="13.89" length="175.00" shape="8991.86,6385.72 9018.96,6377.81 9109.33,6343.28 9144.79,6326.68"/>
    </edge>
    <edge id="-23951777#4" from="297063760" to="300745248" name="Römerstraße" priority="4" type="highway.residential">
        <lane id="-23951777#4_0" index="0" speed="13.89" length="64.88" shape="8929.01,6401.36 8982.85,6388.15"/>
    </edge>
    <edge id="-23951777#5" from="297063706" to="297063760" name="Römerstraße" priority="4" type="highway.residential" shape="8807.47,6454.09 8890.24,6413.77 8924.45,6404.18">
        <lane id="-23951777#5_0" index="0" speed="13.89" length="127.59" shape="8811.75,6450.17 8889.65,6412.22 8919.83,6403.76"/>
    </edge>
    <edge id="-23951780#0" from="297082642" to="89112449" name="Westenstraße" priority="4" type="highway.residential">
        <lane id="-23951780#0_0" index="0" speed="13.89" length="37.28" shape="7489.57,7795.05 7468.93,7792.03"/>
    </edge>
    <edge id="-23951780#1" from="297082675" to="297082642" name="Westenstraße" priority="4" type="highway.residential" shape="7848.21,7493.87 7840.14,7514.71 7814.42,7552.65 7785.43,7581.16 7701.00,7655.10 7661.40,7693.07 7620.10,7729.43 7548.26,7775.19 7513.57,7793.67 7494.84,7794.16">
        <lane id="-23951780#1_0" index="0" speed="13.89" length="474.18" shape="7847.76,7499.59 7841.61,7515.48 7815.70,7553.71 7786.58,7582.34 7702.08,7656.34 7662.54,7694.26 7621.19,7730.67 7549.15,7776.58 7514.00,7795.31 7498.86,7795.70"/>
    </edge>
    <edge id="-23951780#2" from="89112465" to="297082675" name="Westenstraße" priority="4" type="highway.residential" shape="7909.14,7413.74 7872.89,7456.75 7848.21,7493.87">
        <lane id="-23951780#2_0" index="0" speed="13.89" length="100.82" shape="7907.11,7418.71 7874.16,7457.82 7852.24,7490.80"/>
    </edge>
    <edge id="-23951780#3" from="297082726" to="89112465" name="Westenstraße" priority="4" type="highway.residential">
        <lane id="-23951780#3_0" index="0" speed="13.89" length="64.08" shape="7947.04,7366.90 7913.22,7411.11"/>
    </edge>
    <edge id="-23951780#4" from="297082761" to="297082726" name="Westenstraße" priority="4" type="highway.residential" shape="8000.67,7263.76 7994.10,7277.79 7953.70,7354.23 7948.07,7362.84">
        <lane id="-23951780#4_0" index="0" speed="13.89" length="112.24" shape="7999.86,7269.39 7995.59,7278.49 7955.16,7355.00 7952.55,7359.00"/>
    </edge>
    <edge id="-23951780#5" from="89112476" to="297082761" name="Westenstraße" priority="4" type="highway.residential">
        <lane id="-23951780#5_0" index="0" speed="13.89" length="64.91" shape="8021.74,7208.73 8003.53,7260.61"/>
    </edge>
    <edge id="-23951780#6" from="297063775" to="89112476" name="Westenstraße" priority="4" type="highway.residential" shape="8048.09,7139.83 8032.13,7178.84 8022.17,7202.52">
        <lane id="-23951780#6_0" index="0" speed="13.89" length="67.84" shape="8047.27,7146.21 8033.65,7179.47 8025.24,7199.47"/>
    </edge>
    <edge id="-23951780#7" from="89112479" to="297063775" name="Westenstraße" priority="4" type="highway.residential">
        <lane id="-23951780#7_0" index="0" speed="13.89" length="33.61" shape="8060.25,7112.23 8050.93,7136.98"/>
    </edge>
    <edge id="-23951780#8" from="286919915" to="89112479" name="Westenstraße" priority="4" type="highway.residential" shape="8076.04,7067.88 8073.92,7074.77 8059.93,7108.38">
        <lane id="-23951780#8_0" index="0" speed="13.89" length="50.95" shape="8078.83,7064.43 8075.50,7075.26 8062.55,7106.39"/>
    </edge>
    <edge id="-23951781" from="26698821" to="89112449" name="Weißenburger Straße" priority="9" type="highway.primary" shape="7303.79,7924.05 7374.36,7867.48 7438.11,7808.99 7457.96,7788.75">
        <lane id="-23951781_0" index="0" speed="27.78" length="205.31" shape="7301.46,7919.58 7371.27,7863.62 7434.77,7805.34 7441.87,7798.10"/>
        <lane id="-23951781_1" index="1" speed="27.78" length="205.31" shape="7303.52,7922.15 7373.33,7866.19 7437.00,7807.77 7444.22,7800.41"/>
    </edge>
    <edge id="-23951782#0" from="297342149" to="262209282" priority="1" type="highway.cycleway" shape="7686.31,7344.07 7715.90,7317.86 7837.64,7193.15 7913.92,7094.41 7980.98,6972.27">
        <lane id="-23951782#0_0" index="0" allow="bicycle" speed="5.56" length="477.91" shape="7688.63,7339.81 7714.81,7316.62 7836.45,7192.00 7912.61,7093.40 7976.83,6976.40"/>
    </edge>
    <edge id="-23951782#1" from="297798852" to="297342149" priority="1" type="highway.cycleway">
        <lane id="-23951782#1_0" index="0" allow="bicycle" speed="5.56" length="102.82" shape="7611.21,7409.70 7681.50,7346.19"/>
    </edge>
    <edge id="-23951782#2" from="262209287" to="297798852" priority="1" type="highway.cycleway" shape="7531.32,7465.52 7590.29,7432.29 7610.03,7413.00">
        <lane id="-23951782#2_0" index="0" allow="bicycle" speed="5.56" length="97.20" shape="7533.62,7462.33 7589.29,7430.96 7603.28,7417.28"/>
    </edge>
    <edge id="-23951783" from="89112449" to="286919868" name="Weißenburger Straße" priority="9" type="highway.primary" shape="7457.96,7788.75 7510.97,7727.40 7530.93,7651.13 7524.78,7586.71 7518.14,7545.62">
        <lane id="-23951783_0" index="0" speed="27.78" length="266.26" shape="7460.44,7778.31 7506.47,7725.03 7525.92,7650.73 7519.86,7587.18 7513.25,7546.41"/>
        <lane id="-23951783_1" index="1" speed="27.78" length="266.26" shape="7462.94,7780.47 7509.47,7726.61 7529.26,7651.00 7523.14,7586.87 7516.51,7545.88"/>
    </edge>
    <edge id="-23951784" from="259651955" to="259651954" priority="1" type="highway.cycleway">
        <lane id="-23951784_0" index="0" allow="bicycle" speed="5.56" length="35.22" shape="6598.51,7199.92 6576.90,7198.83"/>
    </edge>
    <edge id="-23951785#0" from="297080024" to="27230168" priority="7" type="highway.secondary">
        <lane id="-23951785#0_0" index="0" speed="27.78" length="34.89" shape="7080.27,6105.94 7065.99,6124.29"/>
        <lane id="-23951785#0_1" index="1" speed="27.78" length="34.89" shape="7077.67,6103.91 7063.38,6122.26"/>
    </edge>
    <edge id="-23951785#1" from="27230172" to="297080024" priority="7" type="highway.secondary" shape="7089.49,5710.76 7145.33,5819.70 7144.97,5891.51 7121.45,5997.95 7085.11,6092.42 7080.13,6098.06">
        <lane id="-23951785#1_0" index="0" speed="27.78" length="411.98" shape="7095.11,5710.87 7150.29,5818.52 7149.91,5892.06 7126.29,5999.02 7089.41,6095.03 7085.91,6099.00"/>
        <lane id="-23951785#1_1" index="1" speed="27.78" length="411.98" shape="7092.17,5712.38 7146.98,5819.31 7146.62,5891.69 7123.06,5998.31 7086.55,6093.29 7083.43,6096.81"/>
    </edge>
    <edge id="-23951786#0" from="301450899" to="27230172" priority="7" type="highway.secondary" shape="5457.84,5793.25 5559.12,5746.44 5859.77,5642.10 6099.37,5543.73 6184.41,5513.95 6292.40,5477.40 6519.83,5450.51 6720.45,5474.17 6811.12,5497.37 6894.62,5539.66 6993.76,5622.41 7089.49,5710.76">
        <lane id="-23951786#0_0" index="0" speed="27.78" length="1770.54" shape="5459.08,5787.22 5557.04,5741.95 5858.14,5637.42 6097.49,5539.15 6182.77,5509.28 6291.30,5472.55 6519.83,5445.53 6721.03,5469.26 6812.88,5492.71 6897.36,5535.50 6996.93,5618.61 7095.41,5709.49"/>
        <lane id="-23951786#0_1" index="1" speed="27.78" length="1770.54" shape="5460.47,5790.22 5558.43,5744.94 5859.23,5640.54 6098.74,5542.20 6183.87,5512.39 6292.03,5475.78 6519.83,5448.85 6720.65,5472.53 6811.71,5495.81 6895.53,5538.27 6994.81,5621.15 7089.60,5708.62"/>
    </edge>
    <edge id="-23951786#1" from="301671132" to="301450899" priority="7" type="highway.secondary" shape="5110.30,6087.14 5269.50,5924.56 5321.98,5877.68 5420.19,5814.33 5457.84,5793.25">
        <lane id="-23951786#1_0" index="0" speed="27.78" length="469.49" shape="5105.11,6085.36 5265.97,5921.09 5318.69,5873.99 5417.51,5810.17 5450.72,5791.57"/>
        <lane id="-23951786#1_1" index="1" speed="27.78" length="469.49" shape="5107.47,6087.67 5268.33,5923.40 5320.88,5876.45 5419.30,5812.95 5452.33,5794.44"/>
    </edge>
    <edge id="-23951786#2" from="259652043" to="301671132" priority="7" type="highway.secondary" shape="4994.04,6188.50 5059.27,6137.56 5110.30,6087.14">
        <lane id="-23951786#2_0" index="0" speed="27.78" length="166.05" shape="5001.92,6176.06 5056.22,6133.66 5095.11,6095.20"/>
        <lane id="-23951786#2_1" index="1" speed="27.78" length="166.05" shape="5003.95,6178.66 5058.26,6136.26 5097.43,6097.54"/>
    </edge>
    <edge id="-23951787" from="286919886" to="286919905" priority="1" type="highway.cycleway" shape="6725.32,5113.04 6728.49,5107.84 6753.59,5132.71 6823.35,5241.81 6873.62,5314.48 6921.60,5388.86 6963.31,5457.64 6985.08,5506.62 6996.87,5555.58 7025.10,5606.82 7064.23,5653.53 7098.39,5709.92 7120.97,5743.19 7143.72,5787.39 7156.60,5831.32 7161.44,5874.34 7156.47,5906.85 7136.58,5966.86 7112.77,6046.15 7101.59,6076.11 7086.37,6098.47 7064.87,6129.37">
        <lane id="-23951787_0" index="0" allow="bicycle" speed="5.56" length="1172.13" shape="6727.55,5106.21 6728.17,5105.19 6754.89,5131.67 6824.74,5240.93 6874.98,5313.54 6922.99,5387.97 6964.72,5456.79 6986.65,5506.09 6998.42,5554.98 7026.47,5605.89 7065.49,5652.47 7099.80,5709.07 7122.34,5742.27 7145.26,5786.78 7158.19,5830.86 7163.10,5874.37 7158.10,5907.10 7138.15,5967.38 7114.35,6046.63 7103.07,6076.88 7087.74,6099.40 7068.95,6126.41"/>
    </edge>
    <edge id="-23951905" from="297076365" to="286919869" name="Schlagbrücke" priority="6" type="highway.tertiary">
        <lane id="-23951905_0" index="0" speed="22.22" length="95.69" shape="6809.30,7536.67 6895.45,7494.96"/>
    </edge>
    <edge id="-23952223#0" from="27230162" to="259651954" name="Rebdorfer Straße" priority="7" type="highway.secondary">
        <lane id="-23952223#0_0" index="0" speed="27.78" length="71.01" shape="6559.69,7128.80 6571.70,7191.10"/>
        <lane id="-23952223#0_1" index="1" speed="27.78" length="71.01" shape="6556.45,7129.42 6568.46,7191.73"/>
    </edge>
    <edge id="-23952223#1" from="297080010" to="27230162" name="Rebdorfer Straße" priority="7" type="highway.secondary">
        <lane id="-23952223#1_0" index="0" speed="27.78" length="36.58" shape="6565.19,7094.65 6559.95,7123.56"/>