<?xml version="1.0" encoding="UTF-8"?>


<additional xmlns:xsi="http://www.w3.org/2001/XMLSchema-instance" xsi:noNamespaceSchemaLocation="http://sumo.dlr.de/xsd/additional_file.xsd">
    <busStop id="busStopA" lane="gneE1_0" startPos="23.00" endPos="33.00">
        <access lane="gneE1_0" pos="10.00" length="5" friendlyPos="1"/>
    </busStop>
    <busStop id="busStopB" lane="gneE0_0" startPos="23.00" endPos="33.00">
        <access lane="gneE0_0" pos="20.00" length="5" friendlyPos="1"/>
    </busStop>
</additional>
