<?xml version="1.0" encoding="UTF-8"?>

<!-- generated on Mon Sep 25 15:15:33 2017 by SUMO netconvert Version dev-SVN-r26213
<?xml version="1.0" encoding="UTF-8"?>

<configuration xmlns:xsi="http://www.w3.org/2001/XMLSchema-instance" xsi:noNamespaceSchemaLocation="http://sumo.dlr.de/xsd/netconvertConfiguration.xsd">

    <input>
        <type-files value="input_types.typ.xml"/>
        <osm-files value="osm.xml"/>
    </input>

    <output>
        <output-file value="net.net.xml"/>
        <ptstop-output value="additional.xml"/>
        <ptline-output value="ptlines.xml"/>
    </output>

    <projection>
        <proj.utm value="true"/>
    </projection>

    <processing>
        <osm.stop-output.length value="200"/>
    </processing>

    <report>
        <xml-validation value="never"/>
    </report>

</configuration>
-->

<additional xmlns:xsi="http://www.w3.org/2001/XMLSchema-instance" xsi:noNamespaceSchemaLocation="http://sumo.dlr.de/xsd/additional_file.xsd">
    <busStop id="-14032629811" name="Katzbachstraße/Kreuzbergstraße" lane="-53356539#0_1" startPos="36.28" endPos="137.37" friendlyPos="true"/>
    <busStop id="-14032629819" name="Monumentenstraße" lane="-53356539#1_1" startPos="101.67" endPos="241.55" friendlyPos="true"/>
    <busStop id="-14032629820" name="Monumentenstraße" lane="-53356539#0_1" startPos="0.00" endPos="137.37" friendlyPos="true"/>
    <busStop id="2029039146" name="Badener Ring" lane="111325187#3_0" startPos="26.53" endPos="150.52" friendlyPos="true"/>
    <busStop id="2029039195" name="Dudenstraße/Katzbachstraße" lane="391493945#1_0" startPos="11.84" endPos="21.90" friendlyPos="true"/>
    <busStop id="2029039199" name="Dudenstraße/Katzbachstraße" lane="111325187#1_0" startPos="11.64" endPos="24.29" friendlyPos="true"/>
    <busStop id="3959807200" name="Dudenstraße/Katzbachstraße" lane="391493954#3_1" startPos="33.90" endPos="47.56" friendlyPos="true"/>
    <busStop id="3959807201" name="Dudenstraße/Katzbachstraße" lane="-391493954#3_1" startPos="16.88" endPos="30.55" friendlyPos="true"/>
    <busStop id="3959807220" name="Kolonnenbrücke" lane="-110450334#1_1" startPos="8.22" endPos="20.94" friendlyPos="true"/>
    <busStop id="3959807221" name="Kolonnenbrücke" lane="110450334#1_1" startPos="10.65" endPos="23.37" friendlyPos="true"/>
    <busStop id="4032629811" name="Katzbachstraße/Kreuzbergstraße" lane="53356539#0_1" startPos="0.00" endPos="101.09" friendlyPos="true"/>
    <busStop id="4032629819" name="Monumentenstraße" lane="53356539#1_1" startPos="0.00" endPos="139.88" friendlyPos="true"/>
    <busStop id="4032629820" name="Monumentenstraße" lane="-53356539#0_1" startPos="0.00" endPos="137.37" friendlyPos="true"/>
</additional>
