<additional xmlns:xsi="http://www.w3.org/2001/XMLSchema-instance" xsi:noNamespaceSchemaLocation="http://sumo.dlr.de/xsd/additional_file.xsd">

    <tlLogic id="C" type="actuated" programID="P1" offset="0">
        <phase duration="33" state="GgrrGgrr" minDur="10" maxDur="65" name="NS"/>
        <phase duration="3"  state="ygrrygrr" earlyTarget="NS"/>
        <phase duration="6"  state="rGrrrGrr" minDur="10" maxDur="65" name="NSL"/>
        <phase duration="3"  state="ryrrryrr" earlyTarget="NSL"/>
        <phase duration="33" state="rrGgrrGg" minDur="-1" maxDur="-1" name="EW" earliestEnd="-1" latestEnd="-1"/>
        <phase duration="3"  state="rrygrryg" earlyTarget="EW"/>
        <phase duration="6"  state="rrrGrrrG" minDur="10" maxDur="65" name="EWL"/>
        <phase duration="3"  state="rrryrrry" earlyTarget="EWL"/>

        <param key="coordinated" value="true"/>
        <param key="cycleTime" value="80"/>

        <condition id="NS"  value="z:D0.0 > 3 and z:D2.0 > 3"/>
        <condition id="NSL" value="z:D0.1 > 3 and z:D2.1 > 3"/>
        <condition id="EW"  value="z:D1.0 > 3 and z:D3.0 > 3"/>
        <condition id="EWL" value="z:D1.1 > 3 and z:D3.1 > 3"/>

        <condition id="minDur:4"      value="g:0"/>
        <condition id="maxDur:4"      value="65"/>
        <condition id="earliestEnd:4" value="60"/>
        <condition id="latestEnd:4"   value="80"/>

    </tlLogic>
</additional>
