<?xml version="1.0" encoding="UTF-8"?>

<!-- generated on 2022-02-08 16:17:15 by Eclipse SUMO sumo Version v1_12_0+0381-3798235
This data file and the accompanying materials
are made available under the terms of the Eclipse Public License v2.0
which accompanies this distribution, and is available at
http://www.eclipse.org/legal/epl-v20.html
This file may also be made available under the following Secondary
Licenses when the conditions for such availability set forth in the Eclipse
Public License 2.0 are satisfied: GNU General Public License, version 2
or later which is available at
https://www.gnu.org/licenses/old-licenses/gpl-2.0-standalone.html
SPDX-License-Identifier: EPL-2.0 OR GPL-2.0-or-later
<configuration xmlns:xsi="http://www.w3.org/2001/XMLSchema-instance" xsi:noNamespaceSchemaLocation="http://sumo.dlr.de/xsd/sumoConfiguration.xsd">

    <input>
        <net-file value="net2.net.xml"/>
        <route-files value="input_routes.rou.xml"/>
        <additional-files value="input_additional.add.xml,input_additional2.add.xml"/>
    </input>

    <output>
        <write-license value="true"/>
    </output>

    <processing>
        <default.speeddev value="0"/>
    </processing>

    <report>
        <verbose value="true"/>
        <xml-validation value="never"/>
        <xml-validation.routes value="never"/>
        <duration-log.statistics value="true"/>
        <no-step-log value="true"/>
    </report>

</configuration>
-->

<tlsStates xmlns:xsi="http://www.w3.org/2001/XMLSchema-instance" xsi:noNamespaceSchemaLocation="http://sumo.dlr.de/xsd/tlsstates_file.xsd">
    <tlsState time="0.00" id="C" programID="P1" phase="0" state="GgrrGgrr" name="NS"/>
    <tlsState time="10.00" id="C" programID="P1" phase="1" state="ygrrygrr"/>
    <tlsState time="13.00" id="C" programID="P1" phase="2" state="rGrrrGrr" name="NSL"/>
    <tlsState time="23.00" id="C" programID="P1" phase="3" state="ryrrryrr"/>
    <tlsState time="26.00" id="C" programID="P1" phase="4" state="rrGgrrGg" name="EW"/>
    <tlsState time="35.00" id="C" programID="P1" phase="5" state="rrygrryg"/>
    <tlsState time="38.00" id="C" programID="P1" phase="6" state="rrrGrrrG" name="EWL"/>
    <tlsState time="48.00" id="C" programID="P1" phase="7" state="rrryrrry"/>
    <tlsState time="51.00" id="C" programID="P1" phase="0" state="GgrrGgrr" name="NS"/>
    <tlsState time="61.00" id="C" programID="P1" phase="1" state="ygrrygrr"/>
    <tlsState time="64.00" id="C" programID="P1" phase="2" state="rGrrrGrr" name="NSL"/>
    <tlsState time="74.00" id="C" programID="P1" phase="3" state="ryrrryrr"/>
    <tlsState time="77.00" id="C" programID="P1" phase="4" state="rrGgrrGg" name="EW"/>
    <tlsState time="80.00" id="C" programID="P1" phase="5" state="rrygrryg"/>
    <tlsState time="83.00" id="C" programID="P1" phase="6" state="rrrGrrrG" name="EWL"/>
    <tlsState time="93.00" id="C" programID="P1" phase="7" state="rrryrrry"/>
    <tlsState time="96.00" id="C" programID="P1" phase="0" state="GgrrGgrr" name="NS"/>
    <tlsState time="106.00" id="C" programID="P1" phase="1" state="ygrrygrr"/>
    <tlsState time="109.00" id="C" programID="P1" phase="2" state="rGrrrGrr" name="NSL"/>
    <tlsState time="119.00" id="C" programID="P1" phase="3" state="ryrrryrr"/>
    <tlsState time="122.00" id="C" programID="P1" phase="4" state="rrGgrrGg" name="EW"/>
    <tlsState time="160.00" id="C" programID="P1" phase="5" state="rrygrryg"/>
    <tlsState time="163.00" id="C" programID="P1" phase="6" state="rrrGrrrG" name="EWL"/>
    <tlsState time="173.00" id="C" programID="P1" phase="7" state="rrryrrry"/>
    <tlsState time="176.00" id="C" programID="P1" phase="0" state="GgrrGgrr" name="NS"/>
    <tlsState time="186.00" id="C" programID="P1" phase="1" state="ygrrygrr"/>
    <tlsState time="189.00" id="C" programID="P1" phase="2" state="rGrrrGrr" name="NSL"/>
    <tlsState time="199.00" id="C" programID="P1" phase="3" state="ryrrryrr"/>
    <tlsState time="202.00" id="C" programID="P1" phase="4" state="rrGgrrGg" name="EW"/>
    <tlsState time="240.00" id="C" programID="P1" phase="5" state="rrygrryg"/>
    <tlsState time="243.00" id="C" programID="P1" phase="6" state="rrrGrrrG" name="EWL"/>
    <tlsState time="253.00" id="C" programID="P1" phase="7" state="rrryrrry"/>
    <tlsState time="256.00" id="C" programID="P1" phase="0" state="GgrrGgrr" name="NS"/>
    <tlsState time="266.00" id="C" programID="P1" phase="1" state="ygrrygrr"/>
    <tlsState time="269.00" id="C" programID="P1" phase="2" state="rGrrrGrr" name="NSL"/>
    <tlsState time="279.00" id="C" programID="P1" phase="3" state="ryrrryrr"/>
    <tlsState time="282.00" id="C" programID="P1" phase="4" state="rrGgrrGg" name="EW"/>
    <tlsState time="319.00" id="C" programID="P1" phase="5" state="rrygrryg"/>
    <tlsState time="322.00" id="C" programID="P1" phase="6" state="rrrGrrrG" name="EWL"/>
    <tlsState time="332.00" id="C" programID="P1" phase="7" state="rrryrrry"/>
    <tlsState time="335.00" id="C" programID="P1" phase="0" state="GgrrGgrr" name="NS"/>
    <tlsState time="346.00" id="C" programID="P1" phase="1" state="ygrrygrr"/>
    <tlsState time="349.00" id="C" programID="P1" phase="2" state="rGrrrGrr" name="NSL"/>
    <tlsState time="359.00" id="C" programID="P1" phase="3" state="ryrrryrr"/>
    <tlsState time="362.00" id="C" programID="P1" phase="4" state="rrGgrrGg" name="EW"/>
    <tlsState time="395.00" id="C" programID="P1" phase="5" state="rrygrryg"/>
    <tlsState time="398.00" id="C" programID="P1" phase="6" state="rrrGrrrG" name="EWL"/>
    <tlsState time="408.00" id="C" programID="P1" phase="7" state="rrryrrry"/>
    <tlsState time="411.00" id="C" programID="P1" phase="0" state="GgrrGgrr" name="NS"/>
    <tlsState time="421.00" id="C" programID="P1" phase="1" state="ygrrygrr"/>
    <tlsState time="424.00" id="C" programID="P1" phase="2" state="rGrrrGrr" name="NSL"/>
    <tlsState time="434.00" id="C" programID="P1" phase="3" state="ryrrryrr"/>
    <tlsState time="437.00" id="C" programID="P1" phase="4" state="rrGgrrGg" name="EW"/>
    <tlsState time="471.00" id="C" programID="P1" phase="5" state="rrygrryg"/>
    <tlsState time="474.00" id="C" programID="P1" phase="6" state="rrrGrrrG" name="EWL"/>
    <tlsState time="484.00" id="C" programID="P1" phase="7" state="rrryrrry"/>
    <tlsState time="487.00" id="C" programID="P1" phase="0" state="GgrrGgrr" name="NS"/>
    <tlsState time="497.00" id="C" programID="P1" phase="1" state="ygrrygrr"/>
    <tlsState time="500.00" id="C" programID="P1" phase="2" state="rGrrrGrr" name="NSL"/>
    <tlsState time="510.00" id="C" programID="P1" phase="3" state="ryrrryrr"/>
    <tlsState time="513.00" id="C" programID="P1" phase="4" state="rrGgrrGg" name="EW"/>
    <tlsState time="547.00" id="C" programID="P1" phase="5" state="rrygrryg"/>
    <tlsState time="550.00" id="C" programID="P1" phase="6" state="rrrGrrrG" name="EWL"/>
    <tlsState time="560.00" id="C" programID="P1" phase="7" state="rrryrrry"/>
    <tlsState time="563.00" id="C" programID="P1" phase="0" state="GgrrGgrr" name="NS"/>
    <tlsState time="573.00" id="C" programID="P1" phase="1" state="ygrrygrr"/>
    <tlsState time="576.00" id="C" programID="P1" phase="2" state="rGrrrGrr" name="NSL"/>
    <tlsState time="586.00" id="C" programID="P1" phase="3" state="ryrrryrr"/>
    <tlsState time="589.00" id="C" programID="P1" phase="4" state="rrGgrrGg" name="EW"/>
    <tlsState time="623.00" id="C" programID="P1" phase="5" state="rrygrryg"/>
    <tlsState time="626.00" id="C" programID="P1" phase="6" state="rrrGrrrG" name="EWL"/>
    <tlsState time="636.00" id="C" programID="P1" phase="7" state="rrryrrry"/>
    <tlsState time="639.00" id="C" programID="P1" phase="0" state="GgrrGgrr" name="NS"/>
    <tlsState time="649.00" id="C" programID="P1" phase="1" state="ygrrygrr"/>
    <tlsState time="652.00" id="C" programID="P1" phase="2" state="rGrrrGrr" name="NSL"/>
    <tlsState time="662.00" id="C" programID="P1" phase="3" state="ryrrryrr"/>
    <tlsState time="665.00" id="C" programID="P1" phase="4" state="rrGgrrGg" name="EW"/>
    <tlsState time="699.00" id="C" programID="P1" phase="5" state="rrygrryg"/>
    <tlsState time="702.00" id="C" programID="P1" phase="6" state="rrrGrrrG" name="EWL"/>
    <tlsState time="712.00" id="C" programID="P1" phase="7" state="rrryrrry"/>
    <tlsState time="715.00" id="C" programID="P1" phase="0" state="GgrrGgrr" name="NS"/>
    <tlsState time="725.00" id="C" programID="P1" phase="1" state="ygrrygrr"/>
    <tlsState time="728.00" id="C" programID="P1" phase="2" state="rGrrrGrr" name="NSL"/>
    <tlsState time="738.00" id="C" programID="P1" phase="3" state="ryrrryrr"/>
    <tlsState time="741.00" id="C" programID="P1" phase="4" state="rrGgrrGg" name="EW"/>
    <tlsState time="775.00" id="C" programID="P1" phase="5" state="rrygrryg"/>
    <tlsState time="778.00" id="C" programID="P1" phase="6" state="rrrGrrrG" name="EWL"/>
    <tlsState time="788.00" id="C" programID="P1" phase="7" state="rrryrrry"/>
    <tlsState time="791.00" id="C" programID="P1" phase="0" state="GgrrGgrr" name="NS"/>
    <tlsState time="801.00" id="C" programID="P1" phase="1" state="ygrrygrr"/>
    <tlsState time="804.00" id="C" programID="P1" phase="2" state="rGrrrGrr" name="NSL"/>
    <tlsState time="814.00" id="C" programID="P1" phase="3" state="ryrrryrr"/>
    <tlsState time="817.00" id="C" programID="P1" phase="4" state="rrGgrrGg" name="EW"/>
    <tlsState time="851.00" id="C" programID="P1" phase="5" state="rrygrryg"/>
    <tlsState time="854.00" id="C" programID="P1" phase="6" state="rrrGrrrG" name="EWL"/>
    <tlsState time="864.00" id="C" programID="P1" phase="7" state="rrryrrry"/>
    <tlsState time="867.00" id="C" programID="P1" phase="0" state="GgrrGgrr" name="NS"/>
    <tlsState time="877.00" id="C" programID="P1" phase="1" state="ygrrygrr"/>
    <tlsState time="880.00" id="C" programID="P1" phase="2" state="rGrrrGrr" name="NSL"/>
    <tlsState time="890.00" id="C" programID="P1" phase="3" state="ryrrryrr"/>
    <tlsState time="893.00" id="C" programID="P1" phase="4" state="rrGgrrGg" name="EW"/>
    <tlsState time="927.00" id="C" programID="P1" phase="5" state="rrygrryg"/>
    <tlsState time="930.00" id="C" programID="P1" phase="6" state="rrrGrrrG" name="EWL"/>
    <tlsState time="940.00" id="C" programID="P1" phase="7" state="rrryrrry"/>
    <tlsState time="943.00" id="C" programID="P1" phase="0" state="GgrrGgrr" name="NS"/>
    <tlsState time="953.00" id="C" programID="P1" phase="1" state="ygrrygrr"/>
    <tlsState time="956.00" id="C" programID="P1" phase="2" state="rGrrrGrr" name="NSL"/>
    <tlsState time="966.00" id="C" programID="P1" phase="3" state="ryrrryrr"/>
    <tlsState time="969.00" id="C" programID="P1" phase="4" state="rrGgrrGg" name="EW"/>
    <tlsState time="1003.00" id="C" programID="P1" phase="5" state="rrygrryg"/>
    <tlsState time="1006.00" id="C" programID="P1" phase="6" state="rrrGrrrG" name="EWL"/>
    <tlsState time="1016.00" id="C" programID="P1" phase="7" state="rrryrrry"/>
    <tlsState time="1019.00" id="C" programID="P1" phase="0" state="GgrrGgrr" name="NS"/>
    <tlsState time="1029.00" id="C" programID="P1" phase="1" state="ygrrygrr"/>
    <tlsState time="1032.00" id="C" programID="P1" phase="2" state="rGrrrGrr" name="NSL"/>
    <tlsState time="1042.00" id="C" programID="P1" phase="3" state="ryrrryrr"/>
    <tlsState time="1045.00" id="C" programID="P1" phase="4" state="rrGgrrGg" name="EW"/>
    <tlsState time="1055.00" id="C" programID="P1" phase="5" state="rrygrryg"/>
    <tlsState time="1058.00" id="C" programID="P1" phase="6" state="rrrGrrrG" name="EWL"/>
    <tlsState time="1068.00" id="C" programID="P1" phase="7" state="rrryrrry"/>
    <tlsState time="1071.00" id="C" programID="P1" phase="0" state="GgrrGgrr" name="NS"/>
</tlsStates>
