<?xml version="1.0" encoding="UTF-8"?>

<!-- generated on 2023-07-24 14:49:07 by Eclipse SUMO netedit Version v1_18_0+0474-d01571e5a07
-->

<routes xmlns:xsi="http://www.w3.org/2001/XMLSchema-instance" xsi:noNamespaceSchemaLocation="http://sumo.dlr.de/xsd/routes_file.xsd">
    <!-- Vehicles, persons and containers (sorted by depart) -->
    <trip id="duplicatedVehicle" depart="0.00" from="Edge3" to="Edge5"/>
    <flow id="customID" begin="0.00" end="3600.00" vehsPerHour="1800">
        <route edges="Edge0 Edge1 Edge2"/>
    </flow>
</routes>
