<?xml version="1.0" encoding="UTF-8"?>

<!-- generated on 2024-09-16 09:32:27 by Eclipse SUMO netedit Version v1_20_0+2002-39ee11cc941
-->

<routes xmlns:xsi="http://www.w3.org/2001/XMLSchema-instance" xsi:noNamespaceSchemaLocation="http://sumo.dlr.de/xsd/routes_file.xsd">
    <!-- Vehicles, persons and containers (sorted by depart) -->
    <vType id="slow" maxSpeed="1"/>
    <vType id="long" length="12"/>
    <vehicle id="v_0" depart="0.00" departPos="-0.1" type="slow">
        <route edges="E1 E2"/>
    </vehicle>
    <vehicle id="v_1" depart="0.00" departPos="-0.1" type="long">
        <route edges="E0 E1 E2"/>
    </vehicle>
    <vehicle id="v_2" depart="2.00" departPos="-0.1">
        <route edges="E3 E2"/>
    </vehicle>
</routes>
