<?xml version="1.0" encoding="UTF-8"?>

<!-- generated on 2024-07-02 16:30:31 by Eclipse SUMO sumo Version v1_20_0+0419-d8af80bed17
This data file and the accompanying materials
are made available under the terms of the Eclipse Public License v2.0
which accompanies this distribution, and is available at
http://www.eclipse.org/legal/epl-v20.html
This file may also be made available under the following Secondary
Licenses when the conditions for such availability set forth in the Eclipse
Public License 2.0 are satisfied: GNU General Public License, version 2
or later which is available at
https://www.gnu.org/licenses/old-licenses/gpl-2.0-standalone.html
SPDX-License-Identifier: EPL-2.0 OR GPL-2.0-or-later
<configuration xmlns:xsi="http://www.w3.org/2001/XMLSchema-instance" xsi:noNamespaceSchemaLocation="http://sumo.dlr.de/xsd/sumoConfiguration.xsd">

    <input>
        <net-file value="net.net.xml"/>
        <route-files value="input_routes.rou.xml"/>
    </input>

    <output>
        <write-license value="true"/>
        <tripinfo-output value="tripinfos.xml"/>
        <railsignal-block-output value="railsignal_blocks.xml"/>
    </output>

    <processing>
        <default.speeddev value="0"/>
    </processing>

    <routing>
        <device.rerouting.period value="10"/>
        <device.rerouting.adaptation-steps value="10"/>
    </routing>

    <report>
        <xml-validation value="never"/>
        <duration-log.disable value="true"/>
        <no-step-log value="true"/>
    </report>

</configuration>
-->

<railsignal-block-output>
    <railSignal id="w1">
        <link linkIndex="0" from="T3_1_0" to=":w1_0_0">
            <driveWay id="w1.1" edges="T7_1">
                <forward lanes=":w1_0_0 T7_1_0"/>
                <bidi lanes="T7_0_0"/>
                <flank lanes=""/>
                <protectingSwitches links=""/>
                <conflictLinks signals=""/>
                <foes driveWays="e1.0 e1.2"/>
            </driveWay>
        </link>
        <link linkIndex="1" from="T7_0_0" to=":w1_1_0">
            <driveWay id="w1.0" edges="T9_0">
                <forward lanes=":w1_1_0 T9_0_0"/>
                <bidi lanes=""/>
                <flank lanes=":w1_0_0"/>
                <protectingSwitches links=""/>
                <conflictLinks signals="w1_0"/>
            </driveWay>
        </link>
    </railSignal>
    <railSignal id="w2">
        <link linkIndex="0" from="T13_1_0" to=":w2_0_0">
            <driveWay id="w2.2" edges="T3_1">
                <forward lanes=":w2_0_0 T3_1_0"/>
                <bidi lanes=""/>
                <flank lanes=":w2_1_0"/>
                <protectingSwitches links=""/>
                <conflictLinks signals="w2_1"/>
                <foes driveWays="w2.1.0"/>
            </driveWay>
            <subDriveWay id="w2.2.0" edges="">
                <forward lanes=":w2_0_0"/>
            </subDriveWay>
        </link>
        <link linkIndex="1" from="T9_0_0" to=":w2_1_0">
            <driveWay id="w2.1" edges="T11_0 T14_0 T18_0">
                <forward lanes=":w2_1_0 T11_0_0"/>
                <bidi lanes="T13_1_0 :w3_0_0 T16_1_0 :w4_0_0"
                    deadlockCheck="T18_1_0"/>
                <flank lanes=":w3_1_0"/>
                <protectingSwitches links=""/>
                <conflictLinks signals="w4_0 w3_1"/>
                <foes driveWays="w4.1 w3.2 w2.2.0 w2.3"/>
            </driveWay>
            <subDriveWay id="w2.1.0" edges="">
                <forward lanes=":w2_1_0"/>
            </subDriveWay>
            <driveWay id="w2.3" edges="T11_0 T4_0 T18_0" core="2">
                <forward lanes=":w2_1_0 T11_0_0"/>
                <bidi lanes="T13_1_0 :w3_1_0 T6_1_0 :w4_1_0"/>
                <flank lanes=":w3_0_0"/>
                <protectingSwitches links=""/>
                <conflictLinks signals="w3_0"/>
                <foes driveWays="w3.2 w2.1"/>
            </driveWay>
        </link>
    </railSignal>
    <railSignal id="w3">
        <link linkIndex="0" from="T16_1_0" to=":w3_0_0">
            <driveWay id="w3.2" edges="T13_1">
                <forward lanes=":w3_0_0 T13_1_0"/>
                <bidi lanes=":w3_3_0 T11_0_0"/>
                <flank lanes=":w2_1_0 :w3_1_0"/>
                <protectingSwitches links=""/>
                <conflictLinks signals="w3_1 w2_1"/>
                <foes driveWays="w2.1 w2.3 w3.3.0"/>
            </driveWay>
            <subDriveWay id="w3.2.0" edges="">
                <forward lanes=":w3_0_0"/>
            </subDriveWay>
        </link>
        <link linkIndex="1" from="T6_1_0" to=":w3_1_0"/>
        <link linkIndex="2" from="T11_0_0" to=":w3_2_0">
            <driveWay id="w3.3" edges="T4_0 T18_0" core="1">
                <forward lanes=":w3_2_0 T4_0_0"/>
                <bidi lanes=":w3_1_0 T6_1_0 :w4_1_0"/>
                <flank lanes=":w3_0_0"/>
                <protectingSwitches links=""/>
                <conflictLinks signals="w3_0"/>
                <foes driveWays="w3.2.0"/>
            </driveWay>
            <subDriveWay id="w3.3.0" edges="">
                <forward lanes=":w3_2_0"/>
            </subDriveWay>
        </link>
        <link linkIndex="3" from="T11_0_0" to=":w3_3_0">
            <driveWay id="w3.1" edges="T14_0 T18_0">
                <forward lanes=":w3_3_0 T14_0_0"/>
                <bidi lanes=":w3_0_0 T16_1_0 :w4_0_0"
                    deadlockCheck="T18_1_0"/>
                <flank lanes=":w3_1_0"/>
                <protectingSwitches links=""/>
                <conflictLinks signals="w4_0 w3_1"/>
                <foes driveWays="w4.1"/>
            </driveWay>
        </link>
    </railSignal>
    <railSignal id="w4">
        <link linkIndex="0" from="T18_1_0" to=":w4_0_0">
            <driveWay id="w4.1" edges="T16_1 T13_1">
                <forward lanes=":w4_0_0 T16_1_0"/>
                <bidi lanes=":w4_3_0 T14_0_0 :w3_3_0"
                    deadlockCheck="T11_0_0 :w2_1_0"/>
                <flank lanes=":w4_2_0"/>
                <protectingSwitches links=""/>
                <conflictLinks signals="w3_3 w4_2 w2_1"/>
                <foes driveWays="w3.1"/>
            </driveWay>
        </link>
        <link linkIndex="1" from="T18_1_0" to=":w4_1_0"/>
        <link linkIndex="2" from="T4_0_0" to=":w4_2_0">
            <driveWay id="w4.2" edges="T18_0">
                <forward lanes=":w4_2_0 T18_0_0"/>
                <bidi lanes=":w4_1_0 T18_1_0"/>
                <flank lanes=":w4_3_0"/>
                <protectingSwitches links=""/>
                <conflictLinks signals="w4_3"/>
                <foes driveWays="e2.1 w4.0 e2.3"/>
            </driveWay>
        </link>
        <link linkIndex="3" from="T14_0_0" to=":w4_3_0">
            <driveWay id="w4.0" edges="T18_0">
                <forward lanes=":w4_3_0 T18_0_0"/>
                <bidi lanes=":w4_0_0 T18_1_0"/>
                <flank lanes=":w4_2_0"/>
                <protectingSwitches links=""/>
                <conflictLinks signals="w4_2"/>
                <foes driveWays="e2.1 e2.3 w4.2"/>
            </driveWay>
        </link>
    </railSignal>
    <departJunction id="e2">
        <driveWay id="e2.1" edges="T18_1">
            <forward lanes="T18_1_0"/>
            <bidi lanes="T18_0_0"/>
            <flank lanes=":w4_2_0 :w4_3_0"/>
            <protectingSwitches links=""/>
            <conflictLinks signals="w4_3 w4_2"/>
            <foes driveWays="w4.0 e2.3 w4.2"/>
        </driveWay>
        <driveWay id="e2.3" edges="T18_1 T16_1 T13_1">
            <forward lanes="T18_1_0"/>
            <bidi lanes="T18_0_0 :w4_3_0 T14_0_0 :w3_3_0"
                    deadlockCheck="T11_0_0 :w2_1_0"/>
            <flank lanes=":w4_2_0"/>
            <protectingSwitches links=""/>
            <conflictLinks signals="w3_3 w4_2 w2_1"/>
            <foes driveWays="w4.0 w3.1 e2.1 w4.2"/>
        </driveWay>
    </departJunction>
    <departJunction id="e1">
        <driveWay id="e1.0" edges="T7_0">
            <forward lanes="T7_0_0"/>
            <bidi lanes="T7_1_0"/>
            <flank lanes=":w1_0_0"/>
            <protectingSwitches links=""/>
            <conflictLinks signals="w1_0"/>
            <foes driveWays="e1.2 w1.1"/>
        </driveWay>
        <driveWay id="e1.2" edges="T7_0">
            <forward lanes="T7_0_0"/>
            <bidi lanes="T7_1_0"/>
            <flank lanes=":w1_0_0"/>
            <protectingSwitches links=""/>
            <conflictLinks signals="w1_0"/>
            <foes driveWays="e1.0 w1.1"/>
        </driveWay>
    </departJunction>
</railsignal-block-output>
