<?xml version="1.0" encoding="UTF-8"?>

<!-- generated on 2024-08-13 11:06:19 by Eclipse SUMO netedit Version v1_20_0+1572-9c1b555e765
-->

<routes xmlns:xsi="http://www.w3.org/2001/XMLSchema-instance" xsi:noNamespaceSchemaLocation="http://sumo.dlr.de/xsd/routes_file.xsd">
    <!-- Vehicles, persons and containers (sorted by depart) -->
    <container id="p_0" depart="0.00">
        <tranship from="Edge0" trainStop="trainStopA"/>
        <transport toJunction="Junction3"/>
        <transport toJunction="Junction5"/>
    </container>
</routes>
