<?xml version="1.0" encoding="UTF-8"?>

<!-- generated on 2021-11-24 13:14:44 by Eclipse SUMO netedit Version v1_11_0+0045-3d546428cd6
<configuration xmlns:xsi="http://www.w3.org/2001/XMLSchema-instance" xsi:noNamespaceSchemaLocation="http://sumo.dlr.de/xsd/netconvertConfiguration.xsd">

    <input>
        <sumo-net-file value="net.net.xml"/>
    </input>

    <output>
        <output-file value="net.net.xml"/>
    </output>

    <processing>
        <geometry.min-radius.fix.railways value="false"/>
        <geometry.max-grade.fix value="false"/>
        <offset.disable-normalization value="true"/>
        <lefthand value="false"/>
    </processing>

    <junctions>
        <no-turnarounds value="true"/>
        <junctions.corner-detail value="5"/>
        <junctions.limit-turn-speed value="5.5"/>
        <rectangular-lane-cut value="false"/>
    </junctions>

    <pedestrian>
        <walkingareas value="false"/>
    </pedestrian>

    <netedit>
        <additional-files value="input_additional.add.xml"/>
    </netedit>

    <report>
        <aggregate-warnings value="5"/>
    </report>

</configuration>
-->

<additional xmlns:xsi="http://www.w3.org/2001/XMLSchema-instance" xsi:noNamespaceSchemaLocation="http://sumo.dlr.de/xsd/additional_file.xsd">
    <parkingArea id="pB" lane="b_0" startPos="43.69" endPos="53.69" roadsideCapacity="1"/>
    <parkingArea id="pC" lane="c_0" startPos="43.97" endPos="53.97" roadsideCapacity="1"/>
    <parkingArea id="pD" lane="d_0" startPos="44.07" endPos="54.07" roadsideCapacity="10"/>
    <parkingArea id="pE" lane="e_0" startPos="40.43" endPos="50.43" roadsideCapacity="1"/>
    <parkingArea id="pF" lane="f_0" startPos="358.21" endPos="368.21" roadsideCapacity="10"/>
</additional>
