<?xml version="1.0" encoding="iso-8859-1"?>

<!-- generated on 06/01/11 09:27:54 by SUMO netconvert Version dev-SVN-r10489
<?xml version="1.0" encoding="iso-8859-1"?>

<configuration xmlns:xsi="http://www.w3.org/2001/XMLSchema-instance" xsi:noNamespaceSchemaLocation="http://sumo.sf.net/xsd/netconvertConfiguration.xsd">

    <input>
        <edge-files value="input_edges.edg.xml"/>
    </input>

    <output>
        <output value="net.net.xml"/>
    </output>

</configuration>
-->

<net>

    <location netOffset="0.00,0.00" convBoundary="0.00,0.00,100.00,0.00" origBoundary="0.00,0.00,100.00,0.00" projParameter="!"/>

    <edge id=":1.50_0" function="internal">
        <lane id=":1.50_0_0" depart="0" maxspeed="28.00" length="4.46" shape="48.50,-8.25 51.50,-11.55"/>
    </edge>
    <edge id=":1.50_1" function="internal">
        <lane id=":1.50_1_0" depart="0" maxspeed="28.00" length="3.00" shape="48.50,-8.25 51.50,-8.25"/>
    </edge>
    <edge id=":1.50_2" function="internal">
        <lane id=":1.50_2_0" depart="0" maxspeed="28.00" length="3.00" shape="48.50,-4.95 51.50,-4.95"/>
    </edge>
    <edge id=":1.50_3" function="internal">
        <lane id=":1.50_3_0" depart="0" maxspeed="28.00" length="4.46" shape="48.50,-4.95 51.50,-1.65"/>
    </edge>

    <edge id="1" from="SUMOGenerated0" to="1.50" priority="-1" shape="0.00,-3.30 50.00,-3.30">
        <lane id="1_0" depart="1" maxspeed="28.00" length="48.50" shape="0.00,-8.25 48.50,-8.25"/>
        <lane id="1_1" depart="0" maxspeed="28.00" length="48.50" shape="0.00,-4.95 48.50,-4.95"/>
    </edge>
    <edge id="1.50" from="1.50" to="SUMOGenerated1" priority="-1">
        <lane id="1.50_0" depart="1" maxspeed="28.00" length="48.50" shape="51.50,-11.55 100.00,-11.55"/>
        <lane id="1.50_1" depart="0" maxspeed="28.00" length="48.50" shape="51.50,-8.25 100.00,-8.25"/>
        <lane id="1.50_2" depart="0" maxspeed="28.00" length="48.50" shape="51.50,-4.95 100.00,-4.95"/>
        <lane id="1.50_3" depart="0" maxspeed="28.00" length="48.50" shape="51.50,-1.65 100.00,-1.65"/>
    </edge>

    <ROWLogic id="1.50" requestSize="4">
        <logicitem request="0" response="0000" foes="0000" cont="0"/>
        <logicitem request="1" response="0000" foes="0000" cont="0"/>
        <logicitem request="2" response="0000" foes="0000" cont="0"/>
        <logicitem request="3" response="0000" foes="0000" cont="0"/>
    </ROWLogic>

    <junction id="1.50" type="priority" x="50.00" y="0.00" incLanes="1_0 1_1" intLanes=":1.50_0_0 :1.50_1_0 :1.50_2_0 :1.50_3_0" shape="51.50,-0.05 51.50,-13.15 48.50,-9.85 48.50,-3.35"/>
    <junction id="SUMOGenerated0" type="DEAD_END" x="0.00" y="0.00" incLanes="" intLanes="" shape="0.00,-3.35 0.00,-9.85"/>
    <junction id="SUMOGenerated1" type="DEAD_END" x="100.00" y="0.00" incLanes="1.50_0 1.50_1 1.50_2 1.50_3" intLanes="" shape="100.00,-13.15 100.00,-0.05"/>

    <succ edge="1" lane="1_0" junction="1.50">
        <succlane lane="1.50_0" via=":1.50_0_0" dir="s" state="M"/>
        <succlane lane="1.50_1" via=":1.50_1_0" dir="s" state="M"/>
    </succ>
    <succ edge="1" lane="1_1" junction="1.50">
        <succlane lane="1.50_2" via=":1.50_2_0" dir="s" state="M"/>
        <succlane lane="1.50_3" via=":1.50_3_0" dir="s" state="M"/>
    </succ>
    <succ edge="1.50" lane="1.50_0" junction="SUMOGenerated1">
    </succ>
    <succ edge="1.50" lane="1.50_1" junction="SUMOGenerated1">
    </succ>
    <succ edge="1.50" lane="1.50_2" junction="SUMOGenerated1">
    </succ>
    <succ edge="1.50" lane="1.50_3" junction="SUMOGenerated1">
    </succ>

    <succ edge=":1.50_0" lane=":1.50_0_0" junction="1.50">
        <succlane lane="1.50_0" tl="" linkno="" dir="s" state="M"/>
    </succ>
    <succ edge=":1.50_1" lane=":1.50_1_0" junction="1.50">
        <succlane lane="1.50_1" tl="" linkno="" dir="s" state="M"/>
    </succ>
    <succ edge=":1.50_2" lane=":1.50_2_0" junction="1.50">
        <succlane lane="1.50_2" tl="" linkno="" dir="s" state="M"/>
    </succ>
    <succ edge=":1.50_3" lane=":1.50_3_0" junction="1.50">
        <succlane lane="1.50_3" tl="" linkno="" dir="s" state="M"/>
    </succ>

</net>
