<routes>
    <vType sigma="0" vClass="passenger" id="PHEMlight_PC_D_EU4" emissionClass="PHEMlight/PC_D_EU4"/>
    <vType sigma="0" vClass="passenger" id="PHEMlight_PC_G_EU4" emissionClass="PHEMlight/PC_G_EU4"/>
    <vType sigma="0" vClass="passenger" id="LDV" emissionClass="HBEFA3/LDV"/>
    <vType sigma="0" vClass="passenger" id="LDV_G_EU0" emissionClass="HBEFA3/LDV_G_EU0"/>
    <vType sigma="0" vClass="passenger" id="LDV_G_EU1" emissionClass="HBEFA3/LDV_G_EU1"/>
    <vType sigma="0" vClass="passenger" id="LDV_G_EU2" emissionClass="HBEFA3/LDV_G_EU2"/>
    <vType sigma="0" vClass="passenger" id="LDV_G_EU3" emissionClass="HBEFA3/LDV_G_EU3"/>
    <vType sigma="0" vClass="passenger" id="LDV_G_EU4" emissionClass="HBEFA3/LDV_G_EU4"/>
    <vType sigma="0" vClass="passenger" id="LDV_G_EU5" emissionClass="HBEFA3/LDV_G_EU5"/>
    <vType sigma="0" vClass="passenger" id="LDV_G_EU6" emissionClass="HBEFA3/LDV_G_EU6"/>
    <vType sigma="0" vClass="passenger" id="LDV_G_East" emissionClass="HBEFA3/LDV_G_East"/>
    <vType sigma="0" vClass="passenger" id="LDV_D_EU0" emissionClass="HBEFA3/LDV_D_EU0"/>
    <vType sigma="0" vClass="passenger" id="LDV_D_EU1" emissionClass="HBEFA3/LDV_D_EU1"/>
    <vType sigma="0" vClass="passenger" id="LDV_D_EU2" emissionClass="HBEFA3/LDV_D_EU2"/>
    <vType sigma="0" vClass="passenger" id="LDV_D_EU3" emissionClass="HBEFA3/LDV_D_EU3"/>
    <vType sigma="0" vClass="passenger" id="LDV_D_EU4" emissionClass="HBEFA3/LDV_D_EU4"/>
    <vType sigma="0" vClass="passenger" id="LDV_D_EU5" emissionClass="HBEFA3/LDV_D_EU5"/>
    <vType sigma="0" vClass="passenger" id="LDV_D_EU6" emissionClass="HBEFA3/LDV_D_EU6"/>
    <vType sigma="0" vClass="passenger" id="PC" emissionClass="HBEFA3/PC"/>
    <vType sigma="0" vClass="passenger" id="PC_Alternative" emissionClass="HBEFA3/PC_Alternative"/>
    <vType sigma="0" vClass="passenger" id="PC_G_EU0" emissionClass="HBEFA3/PC_G_EU0"/>
    <vType sigma="0" vClass="passenger" id="PC_G_EU1" emissionClass="HBEFA3/PC_G_EU1"/>
    <vType sigma="0" vClass="passenger" id="PC_G_EU2" emissionClass="HBEFA3/PC_G_EU2"/>
    <vType sigma="0" vClass="passenger" id="PC_G_EU3" emissionClass="HBEFA3/PC_G_EU3"/>
    <vType sigma="0" vClass="passenger" id="PC_G_EU4" emissionClass="HBEFA3/PC_G_EU4"/>
    <vType sigma="0" vClass="passenger" id="PC_G_EU5" emissionClass="HBEFA3/PC_G_EU5"/>
    <vType sigma="0" vClass="passenger" id="PC_G_EU6" emissionClass="HBEFA3/PC_G_EU6"/>
    <vType sigma="0" vClass="passenger" id="PC_G_East" emissionClass="HBEFA3/PC_G_East"/>
    <vType sigma="0" vClass="passenger" id="PC_D_EU0" emissionClass="HBEFA3/PC_D_EU0"/>
    <vType sigma="0" vClass="passenger" id="PC_D_EU1" emissionClass="HBEFA3/PC_D_EU1"/>
    <vType sigma="0" vClass="passenger" id="PC_D_EU2" emissionClass="HBEFA3/PC_D_EU2"/>
    <vType sigma="0" vClass="passenger" id="PC_D_EU3" emissionClass="HBEFA3/PC_D_EU3"/>
    <vType sigma="0" vClass="passenger" id="PC_D_EU4" emissionClass="HBEFA3/PC_D_EU4"/>
    <vType sigma="0" vClass="passenger" id="PC_D_EU5" emissionClass="HBEFA3/PC_D_EU5"/>
    <vType sigma="0" vClass="passenger" id="PC_D_EU6" emissionClass="HBEFA3/PC_D_EU6"/>
    <vType sigma="0" vClass="bus" id="Bus" emissionClass="HBEFA3/Bus"/>
    <vType sigma="0" vClass="coach" id="Coach" emissionClass="HBEFA3/Coach"/>
    <vType sigma="0" vClass="truck" id="HDV" emissionClass="HBEFA3/HDV"/>
    <vType sigma="0" vClass="truck" id="HDV_G" emissionClass="HBEFA3/HDV_G"/>
    <vType sigma="0" vClass="truck" id="HDV_D_EU0" emissionClass="HBEFA3/HDV_D_EU0"/>
    <vType sigma="0" vClass="truck" id="HDV_D_EU1" emissionClass="HBEFA3/HDV_D_EU1"/>
    <vType sigma="0" vClass="truck" id="HDV_D_EU2" emissionClass="HBEFA3/HDV_D_EU2"/>
    <vType sigma="0" vClass="truck" id="HDV_D_EU3" emissionClass="HBEFA3/HDV_D_EU3"/>
    <vType sigma="0" vClass="truck" id="HDV_D_EU4" emissionClass="HBEFA3/HDV_D_EU4"/>
    <vType sigma="0" vClass="truck" id="HDV_D_EU5" emissionClass="HBEFA3/HDV_D_EU5"/>
    <vType sigma="0" vClass="truck" id="HDV_D_EU6" emissionClass="HBEFA3/HDV_D_EU6"/>
    <vType sigma="0" vClass="truck" id="HDV_D_East" emissionClass="HBEFA3/HDV_D_East"/>
    <vType sigma="0" vClass="passenger" id="Energy" emissionClass="Energy/unknown"/>

    <route id="route0" edges="e"/>

    <vehicle id="PHEMlight_PC_D_EU4" type="PC_D_EU4" route="route0" depart="0"/>
    <vehicle id="PHEMlight_PC_G_EU4" type="PC_G_EU4" route="route0" depart="100"/>
    <vehicle id="LDV" type="LDV" route="route0" depart="200"/>
    <vehicle id="LDV_G_EU0" type="LDV_G_EU0" route="route0" depart="300"/>
    <vehicle id="LDV_G_EU1" type="LDV_G_EU1" route="route0" depart="400"/>
    <vehicle id="LDV_G_EU2" type="LDV_G_EU2" route="route0" depart="500"/>
    <vehicle id="LDV_G_EU3" type="LDV_G_EU3" route="route0" depart="600"/>
    <vehicle id="LDV_G_EU4" type="LDV_G_EU4" route="route0" depart="700"/>
    <vehicle id="LDV_G_EU5" type="LDV_G_EU5" route="route0" depart="800"/>
    <vehicle id="LDV_G_EU6" type="LDV_G_EU6" route="route0" depart="900"/>
    <vehicle id="LDV_G_East" type="LDV_G_East" route="route0" depart="1000"/>
    <vehicle id="LDV_D_EU0" type="LDV_D_EU0" route="route0" depart="1100"/>
    <vehicle id="LDV_D_EU1" type="LDV_D_EU1" route="route0" depart="1200"/>
    <vehicle id="LDV_D_EU2" type="LDV_D_EU2" route="route0" depart="1300"/>
    <vehicle id="LDV_D_EU3" type="LDV_D_EU3" route="route0" depart="1400"/>
    <vehicle id="LDV_D_EU4" type="LDV_D_EU4" route="route0" depart="1500"/>
    <vehicle id="LDV_D_EU5" type="LDV_D_EU5" route="route0" depart="1600"/>
    <vehicle id="LDV_D_EU6" type="LDV_D_EU6" route="route0" depart="1700"/>
    <vehicle id="PC" type="PC" route="route0" depart="1800"/>
    <vehicle id="PC_Alternative" type="PC_Alternative" route="route0" depart="1900"/>
    <vehicle id="PC_G_EU0" type="PC_G_EU0" route="route0" depart="2000"/>
    <vehicle id="PC_G_EU1" type="PC_G_EU1" route="route0" depart="2100"/>
    <vehicle id="PC_G_EU2" type="PC_G_EU2" route="route0" depart="2200"/>
    <vehicle id="PC_G_EU3" type="PC_G_EU3" route="route0" depart="2300"/>
    <vehicle id="PC_G_EU4" type="PC_G_EU4" route="route0" depart="2400"/>
    <vehicle id="PC_G_EU5" type="PC_G_EU5" route="route0" depart="2500"/>
    <vehicle id="PC_G_EU6" type="PC_G_EU6" route="route0" depart="2600"/>
    <vehicle id="PC_G_East" type="PC_G_East" route="route0" depart="2700"/>
    <vehicle id="PC_D_EU0" type="PC_D_EU0" route="route0" depart="2800"/>
    <vehicle id="PC_D_EU1" type="PC_D_EU1" route="route0" depart="2900"/>
    <vehicle id="PC_D_EU2" type="PC_D_EU2" route="route0" depart="3000"/>
    <vehicle id="PC_D_EU3" type="PC_D_EU3" route="route0" depart="3100"/>
    <vehicle id="PC_D_EU4" type="PC_D_EU4" route="route0" depart="3200"/>
    <vehicle id="PC_D_EU5" type="PC_D_EU5" route="route0" depart="3300"/>
    <vehicle id="PC_D_EU6" type="PC_D_EU6" route="route0" depart="3400"/>
    <vehicle id="Bus" type="Bus" route="route0" depart="3500"/>
    <vehicle id="Coach" type="Coach" route="route0" depart="3600"/>
    <vehicle id="HDV" type="HDV" route="route0" depart="3700"/>
    <vehicle id="HDV_G" type="HDV_G" route="route0" depart="3800"/>
    <vehicle id="HDV_D_EU0" type="HDV_D_EU0" route="route0" depart="3900"/>
    <vehicle id="HDV_D_EU1" type="HDV_D_EU1" route="route0" depart="4000"/>
    <vehicle id="HDV_D_EU2" type="HDV_D_EU2" route="route0" depart="4100"/>
    <vehicle id="HDV_D_EU3" type="HDV_D_EU3" route="route0" depart="4200"/>
    <vehicle id="HDV_D_EU4" type="HDV_D_EU4" route="route0" depart="4300"/>
    <vehicle id="HDV_D_EU5" type="HDV_D_EU5" route="route0" depart="4400"/>
    <vehicle id="HDV_D_EU6" type="HDV_D_EU6" route="route0" depart="4500"/>
    <vehicle id="HDV_D_East" type="HDV_D_East" route="route0" depart="4600"/>
    <vehicle id="Energy" type="Energy" route="route0" depart="4700"/>

</routes>
