<?xml version="1.0"?>

<!-- generated on 08/11/08 12:11:34 by SUMO netconvert Version dev-SVN-r5964
<configuration>

   <input>
      <xml-node-files>input_nodes.nod.xml</xml-node-files>
      <xml-edge-files>input_edges.edg.xml</xml-edge-files>
   </input>

   <processing>
      <speed-in-kmh>true</speed-in-kmh>
   </processing>

</configuration>
-->

<net>

   <net-offset>50.00,50.00</net-offset>
   <conv-boundary>0.00,0.00,100.00,100.00</conv-boundary>
   <orig-boundary>-50.00,-50.00,50.00,50.00</orig-boundary>
   <orig-proj>!</orig-proj>

   <node_count>5</node_count>


   <edge id="1i" from="1" to="0" priority="-1" type="" function="normal">
      <lanes>
         <lane id="1i_0" depart="1" vclasses="" maxspeed="13.89" length="45.25">0.00,48.35 45.25,48.35</lane>
      </lanes>
   </edge>

   <edge id="1o" from="0" to="1" priority="-1" type="" function="normal">
      <lanes>
         <lane id="1o_0" depart="1" vclasses="" maxspeed="13.89" length="45.25">45.25,51.65 0.00,51.65</lane>
      </lanes>
   </edge>

   <edge id="2i" from="2" to="0" priority="-1" type="" function="normal">
      <lanes>
         <lane id="2i_0" depart="1" vclasses="" maxspeed="13.89" length="45.25">100.00,51.65 54.75,51.65</lane>
      </lanes>
   </edge>

   <edge id="2o" from="0" to="2" priority="-1" type="" function="normal">
      <lanes>
         <lane id="2o_0" depart="1" vclasses="" maxspeed="13.89" length="45.25">54.75,48.35 100.00,48.35</lane>
      </lanes>
   </edge>

   <edge id="3i" from="3" to="0" priority="-1" type="" function="normal">
      <lanes>
         <lane id="3i_0" depart="1" vclasses="" maxspeed="8.33" length="45.25">51.65,0.00 51.65,45.25</lane>
      </lanes>
   </edge>

   <edge id="3o" from="0" to="3" priority="-1" type="" function="normal">
      <lanes>
         <lane id="3o_0" depart="1" vclasses="" maxspeed="8.33" length="45.25">48.35,45.25 48.35,0.00</lane>
      </lanes>
   </edge>

   <edge id="4i" from="4" to="0" priority="-1" type="" function="normal">
      <lanes>
         <lane id="4i_0" depart="1" vclasses="" maxspeed="8.33" length="45.25">48.35,100.00 48.35,54.75</lane>
      </lanes>
   </edge>

   <edge id="4o" from="0" to="4" priority="-1" type="" function="normal">
      <lanes>
         <lane id="4o_0" depart="1" vclasses="" maxspeed="8.33" length="45.25">51.65,54.75 51.65,100.00</lane>
      </lanes>
   </edge>


   <row-logic>
      <key>0</key>
      <requestsize>16</requestsize>
      <lanenumber>4</lanenumber>
      <logic>
         <logicitem request="0" response="0000000000100000" foes="1000010000100000"/>
         <logicitem request="1" response="0111000001100000" foes="0111110001100000"/>
         <logicitem request="2" response="0110001101100000" foes="0110001111100000"/>
         <logicitem request="3" response="0100001000010000" foes="0100001000010000"/>
         <logicitem request="4" response="0000000000000000" foes="0100001000001000"/>
         <logicitem request="5" response="0000000000000000" foes="1100011000000111"/>
         <logicitem request="6" response="0011000000000000" foes="0011111000000110"/>
         <logicitem request="7" response="0010000100000100" foes="0010000100000100"/>
         <logicitem request="8" response="0010000000000000" foes="0010000010000100"/>
         <logicitem request="9" response="0110000001110000" foes="0110000001111100"/>
         <logicitem request="10" response="0110000001100011" foes="1110000001100011"/>
         <logicitem request="11" response="0001000001000010" foes="0001000001000010"/>
         <logicitem request="12" response="0000000000000000" foes="0000100001000010"/>
         <logicitem request="13" response="0000000000000000" foes="0000011111000110"/>
         <logicitem request="14" response="0000000000110000" foes="0000011000111110"/>
         <logicitem request="15" response="0000010000100001" foes="0000010000100001"/>
      </logic>
   </row-logic>

   <row-logic>
      <key>1</key>
      <requestsize>1</requestsize>
      <lanenumber>1</lanenumber>
      <logic>
         <logicitem request="0" response="0" foes="0"/>
      </logic>
   </row-logic>

   <row-logic>
      <key>2</key>
      <requestsize>1</requestsize>
      <lanenumber>1</lanenumber>
      <logic>
         <logicitem request="0" response="0" foes="0"/>
      </logic>
   </row-logic>

   <row-logic>
      <key>3</key>
      <requestsize>1</requestsize>
      <lanenumber>1</lanenumber>
      <logic>
         <logicitem request="0" response="0" foes="0"/>
      </logic>
   </row-logic>

   <row-logic>
      <key>4</key>
      <requestsize>1</requestsize>
      <lanenumber>1</lanenumber>
      <logic>
         <logicitem request="0" response="0" foes="0"/>
      </logic>
   </row-logic>



   <junction id="0" type="priority" x="50.00" y="50.00">
      <inclanes>4i_0 2i_0 3i_0 1i_0</inclanes>
      <shape>46.75,54.75 53.25,54.75 54.75,53.25 54.75,46.75 53.25,45.25 46.75,45.25 45.25,46.75 45.25,53.25</shape>
   </junction>

   <junction id="1" type="priority" x="0.00" y="50.00">
      <inclanes>1o_0</inclanes>
      <shape>-0.00,49.95 -0.00,46.75 0.00,53.25 0.00,50.05</shape>
   </junction>

   <junction id="2" type="priority" x="100.00" y="50.00">
      <inclanes>2o_0</inclanes>
      <shape>100.00,50.05 100.00,53.25 100.00,46.75 100.00,49.95</shape>
   </junction>

   <junction id="3" type="priority" x="50.00" y="0.00">
      <inclanes>3o_0</inclanes>
      <shape>50.05,-0.00 53.25,-0.00 46.75,0.00 49.95,0.00</shape>
   </junction>

   <junction id="4" type="priority" x="50.00" y="100.00">
      <inclanes>4o_0</inclanes>
      <shape>49.95,100.00 46.75,100.00 53.25,100.00 50.05,100.00</shape>
   </junction>


   <succ edge="1i" lane="1i_0" junction="0">
      <succlane lane="3o_0" yield="0" dir="r" state="M"/>
      <succlane lane="2o_0" yield="0" dir="s" state="M"/>
      <succlane lane="4o_0" yield="1" dir="l" state="m"/>
      <succlane lane="1o_0" yield="1" dir="t" state="m"/>
   </succ>

   <succ edge="1o" lane="1o_0" junction="1">
      <succlane lane="1i_0" yield="0" dir="t" state="M"/>
   </succ>

   <succ edge="2i" lane="2i_0" junction="0">
      <succlane lane="4o_0" yield="0" dir="r" state="M"/>
      <succlane lane="1o_0" yield="0" dir="s" state="M"/>
      <succlane lane="3o_0" yield="1" dir="l" state="m"/>
      <succlane lane="2o_0" yield="1" dir="t" state="m"/>
   </succ>

   <succ edge="2o" lane="2o_0" junction="2">
      <succlane lane="2i_0" yield="0" dir="t" state="M"/>
   </succ>

   <succ edge="3i" lane="3i_0" junction="0">
      <succlane lane="2o_0" yield="1" dir="r" state="m"/>
      <succlane lane="4o_0" yield="1" dir="s" state="m"/>
      <succlane lane="1o_0" yield="1" dir="l" state="m"/>
      <succlane lane="3o_0" yield="1" dir="t" state="m"/>
   </succ>

   <succ edge="3o" lane="3o_0" junction="3">
      <succlane lane="3i_0" yield="0" dir="t" state="M"/>
   </succ>

   <succ edge="4i" lane="4i_0" junction="0">
      <succlane lane="1o_0" yield="1" dir="r" state="m"/>
      <succlane lane="3o_0" yield="1" dir="s" state="m"/>
      <succlane lane="2o_0" yield="1" dir="l" state="m"/>
      <succlane lane="4o_0" yield="1" dir="t" state="m"/>
   </succ>

   <succ edge="4o" lane="4o_0" junction="4">
      <succlane lane="4i_0" yield="0" dir="t" state="M"/>
   </succ>


</net>
