<?xml version="1.0" encoding="UTF-8"?>

<!-- generated on 2024-09-04 14:05:11 by Eclipse SUMO netedit Version v1_20_0+1870-a363c0e3b69
-->

<additional xmlns:xsi="http://www.w3.org/2001/XMLSchema-instance" xsi:noNamespaceSchemaLocation="http://sumo.dlr.de/xsd/additional_file.xsd">
    <!-- JuPedSim elements -->
    <poly id="jps.walkable_area_0" type="jupedsim.walkable_area" color="179,217,255" fill="1" layer="1.00" shape="-16.618076,74.344023 104.664723,74.781341 104.664723,20.116618 -16.034985,20.116618 -16.618076,74.344023"/>
</additional>
