<?xml version="1.0" encoding="UTF-8"?>

<!-- generated on 2024-09-04 14:05:09 by Eclipse SUMO netedit Version v1_20_0+1870-a363c0e3b69
-->

<routes xmlns:xsi="http://www.w3.org/2001/XMLSchema-instance" xsi:noNamespaceSchemaLocation="http://sumo.dlr.de/xsd/routes_file.xsd">
    <!-- Routes -->
    <!-- Vehicles, persons and containers (sorted by depart) -->
    <personFlow id="pf_0" begin="0.00" end="3600.00" personsPerHour="1800">
        <walk edges="start rerout_fix rerouter"/>
    </personFlow>
</routes>
