<?xml version="1.0" encoding="UTF-8"?>

<!-- generated on 2023-05-30 14:51:48 by Eclipse SUMO netedit Version v1_17_0+0564-8788c5e
-->

<additional xmlns:xsi="http://www.w3.org/2001/XMLSchema-instance" xsi:noNamespaceSchemaLocation="http://sumo.dlr.de/xsd/additional_file.xsd">
    <!-- StoppingPlaces -->
    <parkingArea id="pa_0" lane="B0C0_1" startPos="161.71" endPos="171.71" roadsideCapacity="1"/>
    <parkingArea id="pa_1" lane="E2D2_1" startPos="179.08" endPos="189.08" roadsideCapacity="1"/>

    <!-- edges are arbitrary but giving the parkingArea edges prevents a
         rerouter consistency warning -->
    <rerouter id="rr0" edges="B0C0 E2D2" vTypes="taxi">
        <interval begin="0" end="1:0:0:0">
            <parkingAreaReroute id="pa_0"/>
            <parkingAreaReroute id="pa_1"/>
        </interval>
    </rerouter>
</additional>
