<?xml version="1.0" encoding="UTF-8"?>

<!-- generated on 2022-02-18 11:48:11 by Eclipse SUMO netedit Version v1_12_0+0672-203952c1fe1
-->

<routes xmlns:xsi="http://www.w3.org/2001/XMLSchema-instance" xsi:noNamespaceSchemaLocation="http://sumo.dlr.de/xsd/routes_file.xsd">
    <person id="p_0" depart="0.00">
        <ride from="gneE2" to="gneE5" lines="ANY"/>
    </person>
</routes>
