<routes xmlns:xsi="http://www.w3.org/2001/XMLSchema-instance" xsi:noNamespaceSchemaLocation="http://sumo.dlr.de/xsd/routes_file.xsd">
	<vType id="DEFAULT_VEHTYPE" sigma="0"/>

	<flow id="0" begin="0" end="220" period="20">
		<route edges="3fi 3si 4o"/>
	</flow>

	<vehicle id="s1" depart="10">
		<route edges="3si"/>
		<stop lane="3si_0" duration="1000"/>
	</vehicle>

</routes>
