<?xml version="1.0" encoding="UTF-8"?>

<!-- generated on 2024-09-02 11:10:14 by Eclipse SUMO netedit Version v1_20_0+1821-fef78581e33
This data file and the accompanying materials
are made available under the terms of the Eclipse Public License v2.0
which accompanies this distribution, and is available at
http://www.eclipse.org/legal/epl-v20.html
This file may also be made available under the following Secondary
Licenses when the conditions for such availability set forth in the Eclipse
Public License 2.0 are satisfied: GNU General Public License, version 2
or later which is available at
https://www.gnu.org/licenses/old-licenses/gpl-2.0-standalone.html
SPDX-License-Identifier: EPL-2.0 OR GPL-2.0-or-later
-->

<data xmlns:xsi="http://www.w3.org/2001/XMLSchema-instance" xsi:noNamespaceSchemaLocation="http://sumo.dlr.de/xsd/datamode_file.xsd">
    <interval id="test" begin="0.00" end="3600.00">
        <edge id="E0"/>
        <edge id="-E0"/>
        <edge id="-E1"/>
        <edge id="E1"/>
        <edge id="-E3"/>
        <edge id="E3"/>
        <edge id="E2"/>
        <edge id="-E2"/>
        <edgeRelation from="-E2" to="E0"/>
        <edgeRelation from="-E0" to="E3"/>
        <edgeRelation from="-E3" to="E1"/>
        <edgeRelation from="-E1" to="E2"/>
    </interval>
</data>
