<routes xmlns:xsi="http://www.w3.org/2001/XMLSchema-instance" xsi:noNamespaceSchemaLocation="http://sumo.dlr.de/xsd/routes_file.xsd">
    <vType id="t0" sigma="0" length="10"/>
    <trip id="v0" type="t0" depart="0" departPos="-10" from="NC" to="CS"/>
    <trip id="v1" type="t0" depart="0" from="EC" to="CS"/>

</routes>
