<configuration>

   <input>
      <net-file>straight1.net.xml</net-file>
      <route-files>straight1.rou.xml</route-files>
      <additional-files>straight1_induct_loops_60.add.xml</additional-files>
   </input>

   <time>
      <begin>0</begin>
      <end>10000</end>
   </time>

   <report>
      <verbose>true</verbose>
   </report>

</configuration>
