<routes>
   <route id="always_right" edges="1i 4o 4i 2o 2i 3o 3i 1o 1i"/>
   <flow id="always_right" route="always_right" begin="0" end="120" period="1"/>
   <route id="vertical" edges="3i 4o 4i 3o 3i"/>
   <flow id="vertical" route="vertical" begin="0" end="180" period="1"/>
</routes>
