<?xml version="1.0" encoding="UTF-8"?>

<!-- generated on Fri Dec 14 09:27:44 2018 by Eclipse SUMO netconvert Version v1_0_1+0645-93703db
This data file and the accompanying materials
are made available under the terms of the Eclipse Public License v2.0
which accompanies this distribution, and is available at
http://www.eclipse.org/legal/epl-v20.html
SPDX-License-Identifier: EPL-2.0
<configuration xmlns:xsi="http://www.w3.org/2001/XMLSchema-instance" xsi:noNamespaceSchemaLocation="http://sumo.dlr.de/xsd/netconvertConfiguration.xsd">

    <input>
        <node-files value="input_plain.nod.xml"/>
        <edge-files value="input_plain.edg.xml,input_edges.edg.xml"/>
    </input>

    <output>
        <write-license value="true"/>
        <output-file value="net.net.xml"/>
        <plain-output-prefix value="plain"/>
    </output>

    <processing>
        <offset.disable-normalization value="true"/>
    </processing>

    <report>
        <xml-validation value="never"/>
    </report>

</configuration>
-->

<connections version="1.1" xmlns:xsi="http://www.w3.org/2001/XMLSchema-instance" xsi:noNamespaceSchemaLocation="http://sumo.dlr.de/xsd/connections_file.xsd">
    <connection from="CE" to="EC" fromLane="2" toLane="2"/>

    <connection from="CN" to="NC" fromLane="2" toLane="2"/>

    <connection from="EC" to="CN" fromLane="0" toLane="0"/>
    <connection from="EC" to="CN" fromLane="0" toLane="1"/>
    <connection from="EC" to="CN" fromLane="0" toLane="2"/>
    <connection from="EC" to="CW" fromLane="0" toLane="0"/>
    <connection from="EC" to="CW" fromLane="1" toLane="1"/>
    <connection from="EC" to="CW" fromLane="2" toLane="2"/>
    <connection from="EC" to="CE" fromLane="2" toLane="2"/>

    <connection from="NC" to="CW" fromLane="0" toLane="0"/>
    <connection from="NC" to="CE" fromLane="0" toLane="0"/>
    <connection from="NC" to="CW" fromLane="1" toLane="1"/>
    <connection from="NC" to="CW" fromLane="2" toLane="2"/>
    <connection from="NC" to="CE" fromLane="2" toLane="1"/>
    <connection from="NC" to="CE" fromLane="2" toLane="2"/>
    <connection from="NC" to="CN" fromLane="2" toLane="2"/>

</connections>
