<routes>
	<!-- <vType id="type1"/> -->

	<vType id="type1" accel="0.8" decel="4.5" sigma="0.5" length="5" maxSpeed="70"/>
	<vType id="type2" accel="0.8" decel="4.5" sigma="0.5" length="10" maxSpeed="70"/>
	<vType id="type3" accel="0.8" decel="4.5" sigma="0.5" length="2" maxSpeed="70"/>
	<vType id="type4" accel="0.8" decel="4.5" sigma="0.5" length="1" maxSpeed="170"/>
	
	
	<flow id="type1" type="type1" vehsPerHour="300" from="gneE2" to="-gneE0" />
	<flow id="type2" type="type2" vehsPerHour="300" from="gneE3" to="-gneE1" />
	<!-- <flow id="type3" type="type1" vehsPerHour="300" from="gneE0" to="-gneE2" /> -->
	<flow id="type4" type="type1" vehsPerHour="300" from="gneE1" to="-gneE3" />	
	
	<flow id="type5" type="type2" vehsPerHour="300" from="gneE0" to="-gneE2" />
	<flow id="type6" type="type4" vehsPerHour="300" from="gneE0" to="-gneE2" />

</routes>