<?xml version="1.0"?>

<!-- generated on 12/12/08 15:43:24 by SUMO netgen Version dev-SVN-r6410
<configuration>

   <spider_network>
      <spider-net>true</spider-net>
      <spider-arm-number>4</spider-arm-number>
      <spider-circle-number>3</spider-circle-number>
      <spider-space-rad>100</spider-space-rad>
   </spider_network>

   <output>
      <output-file>net.net.xml</output-file>
   </output>

</configuration>
-->

<net>

   <net-offset>300.00,300.00</net-offset>
   <conv-boundary>0.00,0.00,600.00,600.00</conv-boundary>
   <orig-boundary>-300.00,-300.00,300.00,300.00</orig-boundary>
   <orig-proj>!</orig-proj>

   <node_count>13</node_count>


   <edge id="1/1to1" from="1/1" to="1" priority="-1" type="netgen-default" function="normal">
      <lanes>
         <lane id="1/1to1_0" depart="1" vclasses="" maxspeed="13.90" length="85.90">390.65,301.65 304.75,301.65</lane>
      </lanes>
   </edge>

   <edge id="1/1to1/2" from="1/1" to="1/2" priority="-1" type="netgen-default" function="normal">
      <lanes>
         <lane id="1/1to1/2_0" depart="1" vclasses="" maxspeed="13.90" length="87.81">402.85,298.35 490.65,298.35</lane>
      </lanes>
   </edge>

   <edge id="1/1to2/1" from="1/1" to="2/1" priority="-1" type="netgen-default" function="normal">
      <lanes>
         <lane id="1/1to2/1_0" depart="1" vclasses="" maxspeed="13.90" length="122.73">394.56,307.78 307.78,394.56</lane>
      </lanes>
   </edge>

   <edge id="1/1to4/1" from="1/1" to="4/1" priority="-1" type="netgen-default" function="normal">
      <lanes>
         <lane id="1/1to4/1_0" depart="1" vclasses="" maxspeed="13.90" length="122.73">392.22,294.56 305.44,207.78</lane>
      </lanes>
   </edge>

   <edge id="1/2to1/1" from="1/2" to="1/1" priority="-1" type="netgen-default" function="normal">
      <lanes>
         <lane id="1/2to1/1_0" depart="1" vclasses="" maxspeed="13.90" length="87.81">490.65,301.65 402.85,301.65</lane>
      </lanes>
   </edge>

   <edge id="1/2to1/3" from="1/2" to="1/3" priority="-1" type="netgen-default" function="normal">
      <lanes>
         <lane id="1/2to1/3_0" depart="1" vclasses="" maxspeed="13.90" length="87.81">502.85,298.35 590.65,298.35</lane>
      </lanes>
   </edge>

   <edge id="1/2to2/2" from="1/2" to="2/2" priority="-1" type="netgen-default" function="normal">
      <lanes>
         <lane id="1/2to2/2_0" depart="1" vclasses="" maxspeed="13.90" length="264.15">494.56,307.78 307.78,494.56</lane>
      </lanes>
   </edge>

   <edge id="1/2to4/2" from="1/2" to="4/2" priority="-1" type="netgen-default" function="normal">
      <lanes>
         <lane id="1/2to4/2_0" depart="1" vclasses="" maxspeed="13.90" length="264.15">492.22,294.56 305.44,107.78</lane>
      </lanes>
   </edge>

   <edge id="1/3to1/2" from="1/3" to="1/2" priority="-1" type="netgen-default" function="normal">
      <lanes>
         <lane id="1/3to1/2_0" depart="1" vclasses="" maxspeed="13.90" length="87.81">590.65,301.65 502.85,301.65</lane>
      </lanes>
   </edge>

   <edge id="1/3to2/3" from="1/3" to="2/3" priority="-1" type="netgen-default" function="normal">
      <lanes>
         <lane id="1/3to2/3_0" depart="1" vclasses="" maxspeed="13.90" length="405.57">594.56,307.78 307.78,594.56</lane>
      </lanes>
   </edge>

   <edge id="1/3to4/3" from="1/3" to="4/3" priority="-1" type="netgen-default" function="normal">
      <lanes>
         <lane id="1/3to4/3_0" depart="1" vclasses="" maxspeed="13.90" length="405.57">592.22,294.56 305.44,7.78</lane>
      </lanes>
   </edge>

   <edge id="1to1/1" from="1" to="1/1" priority="-1" type="netgen-default" function="normal">
      <lanes>
         <lane id="1to1/1_0" depart="1" vclasses="" maxspeed="13.90" length="85.90">304.75,298.35 390.65,298.35</lane>
      </lanes>
   </edge>

   <edge id="1to2/1" from="1" to="2/1" priority="-1" type="netgen-default" function="normal">
      <lanes>
         <lane id="1to2/1_0" depart="1" vclasses="" maxspeed="13.90" length="85.90">301.65,304.75 301.65,390.65</lane>
      </lanes>
   </edge>

   <edge id="1to3/1" from="1" to="3/1" priority="-1" type="netgen-default" function="normal">
      <lanes>
         <lane id="1to3/1_0" depart="1" vclasses="" maxspeed="13.90" length="85.90">295.25,301.65 209.35,301.65</lane>
      </lanes>
   </edge>

   <edge id="1to4/1" from="1" to="4/1" priority="-1" type="netgen-default" function="normal">
      <lanes>
         <lane id="1to4/1_0" depart="1" vclasses="" maxspeed="13.90" length="85.90">298.35,295.25 298.35,209.35</lane>
      </lanes>
   </edge>

   <edge id="2/1to1" from="2/1" to="1" priority="-1" type="netgen-default" function="normal">
      <lanes>
         <lane id="2/1to1_0" depart="1" vclasses="" maxspeed="13.90" length="85.90">298.35,390.65 298.35,304.75</lane>
      </lanes>
   </edge>

   <edge id="2/1to1/1" from="2/1" to="1/1" priority="-1" type="netgen-default" function="normal">
      <lanes>
         <lane id="2/1to1/1_0" depart="1" vclasses="" maxspeed="13.90" length="122.73">305.44,392.22 392.22,305.44</lane>
      </lanes>
   </edge>

   <edge id="2/1to2/2" from="2/1" to="2/2" priority="-1" type="netgen-default" function="normal">
      <lanes>
         <lane id="2/1to2/2_0" depart="1" vclasses="" maxspeed="13.90" length="87.81">301.65,402.85 301.65,490.65</lane>
      </lanes>
   </edge>

   <edge id="2/1to3/1" from="2/1" to="3/1" priority="-1" type="netgen-default" function="normal">
      <lanes>
         <lane id="2/1to3/1_0" depart="1" vclasses="" maxspeed="13.90" length="122.73">292.22,394.56 205.44,307.78</lane>
      </lanes>
   </edge>

   <edge id="2/2to1/2" from="2/2" to="1/2" priority="-1" type="netgen-default" function="normal">
      <lanes>
         <lane id="2/2to1/2_0" depart="1" vclasses="" maxspeed="13.90" length="264.15">305.44,492.22 492.22,305.44</lane>
      </lanes>
   </edge>

   <edge id="2/2to2/1" from="2/2" to="2/1" priority="-1" type="netgen-default" function="normal">
      <lanes>
         <lane id="2/2to2/1_0" depart="1" vclasses="" maxspeed="13.90" length="87.81">298.35,490.65 298.35,402.85</lane>
      </lanes>
   </edge>

   <edge id="2/2to2/3" from="2/2" to="2/3" priority="-1" type="netgen-default" function="normal">
      <lanes>
         <lane id="2/2to2/3_0" depart="1" vclasses="" maxspeed="13.90" length="87.81">301.65,502.85 301.65,590.65</lane>
      </lanes>
   </edge>

   <edge id="2/2to3/2" from="2/2" to="3/2" priority="-1" type="netgen-default" function="normal">
      <lanes>
         <lane id="2/2to3/2_0" depart="1" vclasses="" maxspeed="13.90" length="264.15">292.22,494.56 105.44,307.78</lane>
      </lanes>
   </edge>

   <edge id="2/3to1/3" from="2/3" to="1/3" priority="-1" type="netgen-default" function="normal">
      <lanes>
         <lane id="2/3to1/3_0" depart="1" vclasses="" maxspeed="13.90" length="405.57">305.44,592.22 592.22,305.44</lane>
      </lanes>
   </edge>

   <edge id="2/3to2/2" from="2/3" to="2/2" priority="-1" type="netgen-default" function="normal">
      <lanes>
         <lane id="2/3to2/2_0" depart="1" vclasses="" maxspeed="13.90" length="87.81">298.35,590.65 298.35,502.85</lane>
      </lanes>
   </edge>

   <edge id="2/3to3/3" from="2/3" to="3/3" priority="-1" type="netgen-default" function="normal">
      <lanes>
         <lane id="2/3to3/3_0" depart="1" vclasses="" maxspeed="13.90" length="405.57">292.22,594.56 5.44,307.78</lane>
      </lanes>
   </edge>

   <edge id="3/1to1" from="3/1" to="1" priority="-1" type="netgen-default" function="normal">
      <lanes>
         <lane id="3/1to1_0" depart="1" vclasses="" maxspeed="13.90" length="85.90">209.35,298.35 295.25,298.35</lane>
      </lanes>
   </edge>

   <edge id="3/1to2/1" from="3/1" to="2/1" priority="-1" type="netgen-default" function="normal">
      <lanes>
         <lane id="3/1to2/1_0" depart="1" vclasses="" maxspeed="13.90" length="122.73">207.78,305.44 294.56,392.22</lane>
      </lanes>
   </edge>

   <edge id="3/1to3/2" from="3/1" to="3/2" priority="-1" type="netgen-default" function="normal">
      <lanes>
         <lane id="3/1to3/2_0" depart="1" vclasses="" maxspeed="13.90" length="87.81">197.15,301.65 109.35,301.65</lane>
      </lanes>
   </edge>

   <edge id="3/1to4/1" from="3/1" to="4/1" priority="-1" type="netgen-default" function="normal">
      <lanes>
         <lane id="3/1to4/1_0" depart="1" vclasses="" maxspeed="13.90" length="122.73">205.44,292.22 292.22,205.44</lane>
      </lanes>
   </edge>

   <edge id="3/2to2/2" from="3/2" to="2/2" priority="-1" type="netgen-default" function="normal">
      <lanes>
         <lane id="3/2to2/2_0" depart="1" vclasses="" maxspeed="13.90" length="264.15">107.78,305.44 294.56,492.22</lane>
      </lanes>
   </edge>

   <edge id="3/2to3/1" from="3/2" to="3/1" priority="-1" type="netgen-default" function="normal">
      <lanes>
         <lane id="3/2to3/1_0" depart="1" vclasses="" maxspeed="13.90" length="87.81">109.35,298.35 197.15,298.35</lane>
      </lanes>
   </edge>

   <edge id="3/2to3/3" from="3/2" to="3/3" priority="-1" type="netgen-default" function="normal">
      <lanes>
         <lane id="3/2to3/3_0" depart="1" vclasses="" maxspeed="13.90" length="87.81">97.15,301.65 9.35,301.65</lane>
      </lanes>
   </edge>

   <edge id="3/2to4/2" from="3/2" to="4/2" priority="-1" type="netgen-default" function="normal">
      <lanes>
         <lane id="3/2to4/2_0" depart="1" vclasses="" maxspeed="13.90" length="264.15">105.44,292.22 292.22,105.44</lane>
      </lanes>
   </edge>

   <edge id="3/3to2/3" from="3/3" to="2/3" priority="-1" type="netgen-default" function="normal">
      <lanes>
         <lane id="3/3to2/3_0" depart="1" vclasses="" maxspeed="13.90" length="405.57">7.78,305.44 294.56,592.22</lane>
      </lanes>
   </edge>

   <edge id="3/3to3/2" from="3/3" to="3/2" priority="-1" type="netgen-default" function="normal">
      <lanes>
         <lane id="3/3to3/2_0" depart="1" vclasses="" maxspeed="13.90" length="87.81">9.35,298.35 97.15,298.35</lane>
      </lanes>
   </edge>

   <edge id="3/3to4/3" from="3/3" to="4/3" priority="-1" type="netgen-default" function="normal">
      <lanes>
         <lane id="3/3to4/3_0" depart="1" vclasses="" maxspeed="13.90" length="405.57">5.44,292.22 292.22,5.44</lane>
      </lanes>
   </edge>

   <edge id="4/1to1" from="4/1" to="1" priority="-1" type="netgen-default" function="normal">
      <lanes>
         <lane id="4/1to1_0" depart="1" vclasses="" maxspeed="13.90" length="85.90">301.65,209.35 301.65,295.25</lane>
      </lanes>
   </edge>

   <edge id="4/1to1/1" from="4/1" to="1/1" priority="-1" type="netgen-default" function="normal">
      <lanes>
         <lane id="4/1to1/1_0" depart="1" vclasses="" maxspeed="13.90" length="122.73">307.78,205.44 394.56,292.22</lane>
      </lanes>
   </edge>

   <edge id="4/1to3/1" from="4/1" to="3/1" priority="-1" type="netgen-default" function="normal">
      <lanes>
         <lane id="4/1to3/1_0" depart="1" vclasses="" maxspeed="13.90" length="122.73">294.56,207.78 207.78,294.56</lane>
      </lanes>
   </edge>

   <edge id="4/1to4/2" from="4/1" to="4/2" priority="-1" type="netgen-default" function="normal">
      <lanes>
         <lane id="4/1to4/2_0" depart="1" vclasses="" maxspeed="13.90" length="87.81">298.35,197.15 298.35,109.35</lane>
      </lanes>
   </edge>

   <edge id="4/2to1/2" from="4/2" to="1/2" priority="-1" type="netgen-default" function="normal">
      <lanes>
         <lane id="4/2to1/2_0" depart="1" vclasses="" maxspeed="13.90" length="264.15">307.78,105.44 494.56,292.22</lane>
      </lanes>
   </edge>

   <edge id="4/2to3/2" from="4/2" to="3/2" priority="-1" type="netgen-default" function="normal">
      <lanes>
         <lane id="4/2to3/2_0" depart="1" vclasses="" maxspeed="13.90" length="264.15">294.56,107.78 107.78,294.56</lane>
      </lanes>
   </edge>

   <edge id="4/2to4/1" from="4/2" to="4/1" priority="-1" type="netgen-default" function="normal">
      <lanes>
         <lane id="4/2to4/1_0" depart="1" vclasses="" maxspeed="13.90" length="87.81">301.65,109.35 301.65,197.15</lane>
      </lanes>
   </edge>

   <edge id="4/2to4/3" from="4/2" to="4/3" priority="-1" type="netgen-default" function="normal">
      <lanes>
         <lane id="4/2to4/3_0" depart="1" vclasses="" maxspeed="13.90" length="87.81">298.35,97.15 298.35,9.35</lane>
      </lanes>
   </edge>

   <edge id="4/3to1/3" from="4/3" to="1/3" priority="-1" type="netgen-default" function="normal">
      <lanes>
         <lane id="4/3to1/3_0" depart="1" vclasses="" maxspeed="13.90" length="405.57">307.78,5.44 594.56,292.22</lane>
      </lanes>
   </edge>

   <edge id="4/3to3/3" from="4/3" to="3/3" priority="-1" type="netgen-default" function="normal">
      <lanes>
         <lane id="4/3to3/3_0" depart="1" vclasses="" maxspeed="13.90" length="405.57">294.56,7.78 7.78,294.56</lane>
      </lanes>
   </edge>

   <edge id="4/3to4/2" from="4/3" to="4/2" priority="-1" type="netgen-default" function="normal">
      <lanes>
         <lane id="4/3to4/2_0" depart="1" vclasses="" maxspeed="13.90" length="87.81">301.65,9.35 301.65,97.15</lane>
      </lanes>
   </edge>


   <row-logic>
      <key>1/1</key>
      <requestsize>16</requestsize>
      <lanenumber>4</lanenumber>
      <logic>
         <logicitem request="0" response="0000000000000000" foes="1000010000100000"/>
         <logicitem request="1" response="0000000000000000" foes="0111110001100000"/>
         <logicitem request="2" response="0000001100000000" foes="0110001111100000"/>
         <logicitem request="3" response="0100001000010000" foes="0100001000010000"/>
         <logicitem request="4" response="0000001000000000" foes="0100001000001000"/>
         <logicitem request="5" response="0000011000000111" foes="1100011000000111"/>
         <logicitem request="6" response="0011011000000110" foes="0011111000000110"/>
         <logicitem request="7" response="0010000100000100" foes="0010000100000100"/>
         <logicitem request="8" response="0000000000000000" foes="0010000010000100"/>
         <logicitem request="9" response="0000000000000000" foes="0110000001111100"/>
         <logicitem request="10" response="0000000000000011" foes="1110000001100011"/>
         <logicitem request="11" response="0001000001000010" foes="0001000001000010"/>
         <logicitem request="12" response="0000000000000010" foes="0000100001000010"/>
         <logicitem request="13" response="0000011100000110" foes="0000011111000110"/>
         <logicitem request="14" response="0000011000110110" foes="0000011000111110"/>
         <logicitem request="15" response="0000010000100001" foes="0000010000100001"/>
      </logic>
   </row-logic>

   <row-logic>
      <key>1/2</key>
      <requestsize>16</requestsize>
      <lanenumber>4</lanenumber>
      <logic>
         <logicitem request="0" response="0000000000000000" foes="1000010000100000"/>
         <logicitem request="1" response="0000000000000000" foes="0111110001100000"/>
         <logicitem request="2" response="0000001100000000" foes="0110001111100000"/>
         <logicitem request="3" response="0100001000010000" foes="0100001000010000"/>
         <logicitem request="4" response="0000001000000000" foes="0100001000001000"/>
         <logicitem request="5" response="0000011000000111" foes="1100011000000111"/>
         <logicitem request="6" response="0011011000000110" foes="0011111000000110"/>
         <logicitem request="7" response="0010000100000100" foes="0010000100000100"/>
         <logicitem request="8" response="0000000000000000" foes="0010000010000100"/>
         <logicitem request="9" response="0000000000000000" foes="0110000001111100"/>
         <logicitem request="10" response="0000000000000011" foes="1110000001100011"/>
         <logicitem request="11" response="0001000001000010" foes="0001000001000010"/>
         <logicitem request="12" response="0000000000000010" foes="0000100001000010"/>
         <logicitem request="13" response="0000011100000110" foes="0000011111000110"/>
         <logicitem request="14" response="0000011000110110" foes="0000011000111110"/>
         <logicitem request="15" response="0000010000100001" foes="0000010000100001"/>
      </logic>
   </row-logic>

   <row-logic>
      <key>1/3</key>
      <requestsize>9</requestsize>
      <lanenumber>3</lanenumber>
      <logic>
         <logicitem request="0" response="000000000" foes="100010000"/>
         <logicitem request="1" response="011000000" foes="011110000"/>
         <logicitem request="2" response="010001000" foes="010001000"/>
         <logicitem request="3" response="010000000" foes="010000100"/>
         <logicitem request="4" response="010000011" foes="110000011"/>
         <logicitem request="5" response="001000010" foes="001000010"/>
         <logicitem request="6" response="000000000" foes="000100010"/>
         <logicitem request="7" response="000000000" foes="000011110"/>
         <logicitem request="8" response="000010001" foes="000010001"/>
      </logic>
   </row-logic>

   <row-logic>
      <key>2/1</key>
      <requestsize>16</requestsize>
      <lanenumber>4</lanenumber>
      <logic>
         <logicitem request="0" response="0000000000000000" foes="1000010000100000"/>
         <logicitem request="1" response="0000000000000000" foes="0111110001100000"/>
         <logicitem request="2" response="0000001100000000" foes="0110001111100000"/>
         <logicitem request="3" response="0100001000010000" foes="0100001000010000"/>
         <logicitem request="4" response="0000001000000000" foes="0100001000001000"/>
         <logicitem request="5" response="0000011000000111" foes="1100011000000111"/>
         <logicitem request="6" response="0011011000000110" foes="0011111000000110"/>
         <logicitem request="7" response="0010000100000100" foes="0010000100000100"/>
         <logicitem request="8" response="0000000000000000" foes="0010000010000100"/>
         <logicitem request="9" response="0000000000000000" foes="0110000001111100"/>
         <logicitem request="10" response="0000000000000011" foes="1110000001100011"/>
         <logicitem request="11" response="0001000001000010" foes="0001000001000010"/>
         <logicitem request="12" response="0000000000000010" foes="0000100001000010"/>
         <logicitem request="13" response="0000011100000110" foes="0000011111000110"/>
         <logicitem request="14" response="0000011000110110" foes="0000011000111110"/>
         <logicitem request="15" response="0000010000100001" foes="0000010000100001"/>
      </logic>
   </row-logic>

   <row-logic>
      <key>2/2</key>
      <requestsize>16</requestsize>
      <lanenumber>4</lanenumber>
      <logic>
         <logicitem request="0" response="0000000000000000" foes="1000010000100000"/>
         <logicitem request="1" response="0000000000000000" foes="0111110001100000"/>
         <logicitem request="2" response="0000001100000000" foes="0110001111100000"/>
         <logicitem request="3" response="0100001000010000" foes="0100001000010000"/>
         <logicitem request="4" response="0000001000000000" foes="0100001000001000"/>
         <logicitem request="5" response="0000011000000111" foes="1100011000000111"/>
         <logicitem request="6" response="0011011000000110" foes="0011111000000110"/>
         <logicitem request="7" response="0010000100000100" foes="0010000100000100"/>
         <logicitem request="8" response="0000000000000000" foes="0010000010000100"/>
         <logicitem request="9" response="0000000000000000" foes="0110000001111100"/>
         <logicitem request="10" response="0000000000000011" foes="1110000001100011"/>
         <logicitem request="11" response="0001000001000010" foes="0001000001000010"/>
         <logicitem request="12" response="0000000000000010" foes="0000100001000010"/>
         <logicitem request="13" response="0000011100000110" foes="0000011111000110"/>
         <logicitem request="14" response="0000011000110110" foes="0000011000111110"/>
         <logicitem request="15" response="0000010000100001" foes="0000010000100001"/>
      </logic>
   </row-logic>

   <row-logic>
      <key>2/3</key>
      <requestsize>9</requestsize>
      <lanenumber>3</lanenumber>
      <logic>
         <logicitem request="0" response="000000000" foes="100010000"/>
         <logicitem request="1" response="011000000" foes="011110000"/>
         <logicitem request="2" response="010001000" foes="010001000"/>
         <logicitem request="3" response="010000000" foes="010000100"/>
         <logicitem request="4" response="010000011" foes="110000011"/>
         <logicitem request="5" response="001000010" foes="001000010"/>
         <logicitem request="6" response="000000000" foes="000100010"/>
         <logicitem request="7" response="000000000" foes="000011110"/>
         <logicitem request="8" response="000010001" foes="000010001"/>
      </logic>
   </row-logic>

   <row-logic>
      <key>3/1</key>
      <requestsize>16</requestsize>
      <lanenumber>4</lanenumber>
      <logic>
         <logicitem request="0" response="0000000000100000" foes="1000010000100000"/>
         <logicitem request="1" response="0111000001100000" foes="0111110001100000"/>
         <logicitem request="2" response="0110001101100000" foes="0110001111100000"/>
         <logicitem request="3" response="0100001000010000" foes="0100001000010000"/>
         <logicitem request="4" response="0000000000000000" foes="0100001000001000"/>
         <logicitem request="5" response="0000000000000000" foes="1100011000000111"/>
         <logicitem request="6" response="0011000000000000" foes="0011111000000110"/>
         <logicitem request="7" response="0010000100000100" foes="0010000100000100"/>
         <logicitem request="8" response="0010000000000000" foes="0010000010000100"/>
         <logicitem request="9" response="0110000001110000" foes="0110000001111100"/>
         <logicitem request="10" response="0110000001100011" foes="1110000001100011"/>
         <logicitem request="11" response="0001000001000010" foes="0001000001000010"/>
         <logicitem request="12" response="0000000000000000" foes="0000100001000010"/>
         <logicitem request="13" response="0000000000000000" foes="0000011111000110"/>
         <logicitem request="14" response="0000000000110000" foes="0000011000111110"/>
         <logicitem request="15" response="0000010000100001" foes="0000010000100001"/>
      </logic>
   </row-logic>

   <row-logic>
      <key>3/2</key>
      <requestsize>16</requestsize>
      <lanenumber>4</lanenumber>
      <logic>
         <logicitem request="0" response="0000000000100000" foes="1000010000100000"/>
         <logicitem request="1" response="0111000001100000" foes="0111110001100000"/>
         <logicitem request="2" response="0110001101100000" foes="0110001111100000"/>
         <logicitem request="3" response="0100001000010000" foes="0100001000010000"/>
         <logicitem request="4" response="0000000000000000" foes="0100001000001000"/>
         <logicitem request="5" response="0000000000000000" foes="1100011000000111"/>
         <logicitem request="6" response="0011000000000000" foes="0011111000000110"/>
         <logicitem request="7" response="0010000100000100" foes="0010000100000100"/>
         <logicitem request="8" response="0010000000000000" foes="0010000010000100"/>
         <logicitem request="9" response="0110000001110000" foes="0110000001111100"/>
         <logicitem request="10" response="0110000001100011" foes="1110000001100011"/>
         <logicitem request="11" response="0001000001000010" foes="0001000001000010"/>
         <logicitem request="12" response="0000000000000000" foes="0000100001000010"/>
         <logicitem request="13" response="0000000000000000" foes="0000011111000110"/>
         <logicitem request="14" response="0000000000110000" foes="0000011000111110"/>
         <logicitem request="15" response="0000010000100001" foes="0000010000100001"/>
      </logic>
   </row-logic>

   <row-logic>
      <key>3/3</key>
      <requestsize>9</requestsize>
      <lanenumber>3</lanenumber>
      <logic>
         <logicitem request="0" response="000000000" foes="100010000"/>
         <logicitem request="1" response="011000000" foes="011110000"/>
         <logicitem request="2" response="010001000" foes="010001000"/>
         <logicitem request="3" response="010000000" foes="010000100"/>
         <logicitem request="4" response="010000011" foes="110000011"/>
         <logicitem request="5" response="001000010" foes="001000010"/>
         <logicitem request="6" response="000000000" foes="000100010"/>
         <logicitem request="7" response="000000000" foes="000011110"/>
         <logicitem request="8" response="000010001" foes="000010001"/>
      </logic>
   </row-logic>

   <row-logic>
      <key>4/1</key>
      <requestsize>16</requestsize>
      <lanenumber>4</lanenumber>
      <logic>
         <logicitem request="0" response="0000000000000000" foes="1000010000100000"/>
         <logicitem request="1" response="0000000000000000" foes="0111110001100000"/>
         <logicitem request="2" response="0000001100000000" foes="0110001111100000"/>
         <logicitem request="3" response="0100001000010000" foes="0100001000010000"/>
         <logicitem request="4" response="0000001000000000" foes="0100001000001000"/>
         <logicitem request="5" response="0000011000000111" foes="1100011000000111"/>
         <logicitem request="6" response="0011011000000110" foes="0011111000000110"/>
         <logicitem request="7" response="0010000100000100" foes="0010000100000100"/>
         <logicitem request="8" response="0000000000000000" foes="0010000010000100"/>
         <logicitem request="9" response="0000000000000000" foes="0110000001111100"/>
         <logicitem request="10" response="0000000000000011" foes="1110000001100011"/>
         <logicitem request="11" response="0001000001000010" foes="0001000001000010"/>
         <logicitem request="12" response="0000000000000010" foes="0000100001000010"/>
         <logicitem request="13" response="0000011100000110" foes="0000011111000110"/>
         <logicitem request="14" response="0000011000110110" foes="0000011000111110"/>
         <logicitem request="15" response="0000010000100001" foes="0000010000100001"/>
      </logic>
   </row-logic>

   <row-logic>
      <key>4/2</key>
      <requestsize>16</requestsize>
      <lanenumber>4</lanenumber>
      <logic>
         <logicitem request="0" response="0000000000000000" foes="1000010000100000"/>
         <logicitem request="1" response="0000000000000000" foes="0111110001100000"/>
         <logicitem request="2" response="0000001100000000" foes="0110001111100000"/>
         <logicitem request="3" response="0100001000010000" foes="0100001000010000"/>
         <logicitem request="4" response="0000001000000000" foes="0100001000001000"/>
         <logicitem request="5" response="0000011000000111" foes="1100011000000111"/>
         <logicitem request="6" response="0011011000000110" foes="0011111000000110"/>
         <logicitem request="7" response="0010000100000100" foes="0010000100000100"/>
         <logicitem request="8" response="0000000000000000" foes="0010000010000100"/>
         <logicitem request="9" response="0000000000000000" foes="0110000001111100"/>
         <logicitem request="10" response="0000000000000011" foes="1110000001100011"/>
         <logicitem request="11" response="0001000001000010" foes="0001000001000010"/>
         <logicitem request="12" response="0000000000000010" foes="0000100001000010"/>
         <logicitem request="13" response="0000011100000110" foes="0000011111000110"/>
         <logicitem request="14" response="0000011000110110" foes="0000011000111110"/>
         <logicitem request="15" response="0000010000100001" foes="0000010000100001"/>
      </logic>
   </row-logic>

   <row-logic>
      <key>4/3</key>
      <requestsize>9</requestsize>
      <lanenumber>3</lanenumber>
      <logic>
         <logicitem request="0" response="000010000" foes="100010000"/>
         <logicitem request="1" response="011010000" foes="011110000"/>
         <logicitem request="2" response="010001000" foes="010001000"/>
         <logicitem request="3" response="000000000" foes="010000100"/>
         <logicitem request="4" response="000000000" foes="110000011"/>
         <logicitem request="5" response="001000010" foes="001000010"/>
         <logicitem request="6" response="000000000" foes="000100010"/>
         <logicitem request="7" response="000011000" foes="000011110"/>
         <logicitem request="8" response="000010001" foes="000010001"/>
      </logic>
   </row-logic>



   <junction id="1" type="unregulated" x="300.00" y="300.00">
      <inclanes>2/1to1_0 1/1to1_0 4/1to1_0 3/1to1_0</inclanes>
      <shape>296.75,304.75 303.25,304.75 304.75,303.25 304.75,296.75 303.25,295.25 296.75,295.25 295.25,296.75 295.25,303.25</shape>
   </junction>

   <junction id="1/1" type="priority" x="400.00" y="300.00">
      <inclanes>1/2to1/1_0 4/1to1/1_0 1to1/1_0 2/1to1/1_0</inclanes>
      <shape>402.85,303.25 402.85,296.75 395.69,291.09 391.09,295.69 390.65,296.75 390.65,303.25 391.09,304.31 395.69,308.91</shape>
   </junction>

   <junction id="1/2" type="priority" x="500.00" y="300.00">
      <inclanes>1/3to1/2_0 4/2to1/2_0 1/1to1/2_0 2/2to1/2_0</inclanes>
      <shape>502.85,303.25 502.85,296.75 495.69,291.09 491.09,295.69 490.65,296.75 490.65,303.25 491.09,304.31 495.69,308.91</shape>
   </junction>

   <junction id="1/3" type="priority" x="600.00" y="300.00">
      <inclanes>4/3to1/3_0 1/2to1/3_0 2/3to1/3_0</inclanes>
      <shape>595.69,291.09 591.09,295.69 590.65,296.75 590.65,303.25 591.09,304.31 595.69,308.91</shape>
   </junction>

   <junction id="2/1" type="priority" x="300.00" y="400.00">
      <inclanes>2/2to2/1_0 1/1to2/1_0 1to2/1_0 3/1to2/1_0</inclanes>
      <shape>296.75,402.85 303.25,402.85 308.91,395.69 304.31,391.09 303.25,390.65 296.75,390.65 295.69,391.09 291.09,395.69</shape>
   </junction>

   <junction id="2/2" type="priority" x="300.00" y="500.00">