<?xml version="1.0" encoding="UTF-8"?>

<configuration xmlns:xsi="http://www.w3.org/2001/XMLSchema-instance" xsi:noNamespaceSchemaLocation="http://sumo.dlr.de/xsd/netgenerateConfiguration.xsd">

    <grid_network>
        <grid value="true"/>
        <grid.number value="10"/>
        <grid.length value="400"/>
    </grid_network>

    <output>
        <output-file value="net.net.xml"/>
    </output>

</configuration>
