<?xml version="1.0" encoding="iso-8859-1"?>

<configuration xmlns:xsi="http://www.w3.org/2001/XMLSchema-instance" xsi:noNamespaceSchemaLocation="http://sumo.sf.net/xsd/netgenConfiguration.xsd">

    <grid_network>
        <grid value="true"/>
        <grid.number value="10"/>
        <grid.length value="400"/>
    </grid_network>

    <output>
        <output value="net.net.xml"/>
    </output>

</configuration>
