<?xml version="1.0" encoding="UTF-8"?>

<!-- generated on 2021-11-17 09:59:34 by Eclipse SUMO netedit Version v1_10_0+2354-ac183118758
-->

<additional xmlns:xsi="http://www.w3.org/2001/XMLSchema-instance" xsi:noNamespaceSchemaLocation="http://sumo.dlr.de/xsd/additional_file.xsd">
    <rerouter id="rerouter_0" edges="gneE0 gneE1" pos="44.00,-4.60"/>
</additional>
