<?xml version="1.0"?>

<!-- generated on 07/11/08 13:57:50 by SUMO duarouter Version 0.9.7
<configuration>

   <input>
      <net-file>input_net.net.xml</net-file>
      <flow-definition>input_flows.flows.xml</flow-definition>
   </input>

   <output>
      <output-file>routes.rou.xml</output-file>
   </output>

</configuration>
-->

<routes>
   <vehicle id="0_0" depart="0">
      <route>beg middle end rend</route>
   </vehicle>
   <vehicle id="0_1" depart="1">
      <route>beg middle end rend</route>
   </vehicle>
   <vehicle id="0_2" depart="2">
      <route>beg middle end rend</route>
   </vehicle>
   <vehicle id="0_3" depart="3">
      <route>beg middle end rend</route>
   </vehicle>
   <vehicle id="0_4" depart="4">
      <route>beg middle end rend</route>
   </vehicle>
   <vehicle id="0_5" depart="5">
      <route>beg middle end rend</route>
   </vehicle>
   <vehicle id="0_6" depart="6">
      <route>beg middle end rend</route>
   </vehicle>
   <vehicle id="0_7" depart="7">
      <route>beg middle end rend</route>
   </vehicle>
   <vehicle id="0_8" depart="8">
      <route>beg middle end rend</route>
   </vehicle>
   <vehicle id="0_9" depart="9">
      <route>beg middle end rend</route>
   </vehicle>
</routes>
