<?xml version="1.0" encoding="UTF-8"?>

<!-- generated on 2021-09-02 17:00:10 by Eclipse SUMO sumo Version v1_9_2+0886-327d7d24c3
<configuration xmlns:xsi="http://www.w3.org/2001/XMLSchema-instance" xsi:noNamespaceSchemaLocation="http://sumo.dlr.de/xsd/sumoConfiguration.xsd">

    <input>
        <net-file value="input_net.net.xml"/>
        <route-files value="input_routes.rou.xml"/>
    </input>

    <processing>
        <default.speeddev value="0"/>
    </processing>

    <report>
        <no-step-log value="true"/>
    </report>

    <traci_server>
        <remote-port value="58169"/>
    </traci_server>

</configuration>
-->

<ToCDeviceLog>
    <DYNTOR id="ToC_veh" t="45.00" lane="WE_1" lanePos="594.60" x="1094.60" y="-1.60"/>
    <DYNTOR id="ToC_veh" t="51.00" lane="WE_0" lanePos="677.94" x="1177.94" y="-4.80"/>
    <ToCup id="ToC_veh" t="51.00" lane="WE_0" lanePos="677.94" x="1177.94" y="-4.80"/>
</ToCDeviceLog>
