<?xml version="1.0" encoding="UTF-8"?>

<!-- generated on 2023-06-02 10:42:14 by Eclipse SUMO netedit Version v1_17_0+0654-4d0ab90
<configuration xmlns:xsi="http://www.w3.org/2001/XMLSchema-instance" xsi:noNamespaceSchemaLocation="http://sumo.dlr.de/xsd/neteditConfiguration.xsd">

    <input>
        <sumo-net-file value="net.net.xml"/>
    </input>

    <output>
        <output-file value="net.net.xml"/>
    </output>

    <processing>
        <geometry.min-radius.fix.railways value="false"/>
        <geometry.avoid-overlap value="0"/>
        <geometry.max-grade.fix value="false"/>
        <offset.disable-normalization value="true"/>
        <lefthand value="0"/>
    </processing>

    <junctions>
        <no-internal-links value="true"/>
        <no-turnarounds value="true"/>
        <junctions.corner-detail value="5"/>
        <junctions.limit-turn-speed value="5.50"/>
        <rectangular-lane-cut value="0"/>
    </junctions>

    <pedestrian>
        <walkingareas value="0"/>
    </pedestrian>

</configuration>
-->

<net version="1.16" junctionCornerDetail="5" limitTurnSpeed="5.50" avoidOverlap="0" xmlns:xsi="http://www.w3.org/2001/XMLSchema-instance" xsi:noNamespaceSchemaLocation="http://sumo.dlr.de/xsd/net_file.xsd">

    <location netOffset="0.00,0.00" convBoundary="0.00,0.00,100.00,0.00" origBoundary="-10000000000.00,-10000000000.00,10000000000.00,10000000000.00" projParameter="!"/>

    <edge id="-E0" from="J1" to="J0" priority="-1" spreadType="center" bidi="E0">
        <lane id="-E0_0" index="0" speed="13.89" length="100.00" width="4.00" shape="100.00,0.00 0.00,0.00"/>
    </edge>
    <edge id="E0" from="J0" to="J1" priority="-1" spreadType="center" bidi="-E0">
        <lane id="E0_0" index="0" speed="13.89" length="100.00" width="4.00" shape="0.00,0.00 100.00,0.00"/>
    </edge>

    <junction id="J0" type="dead_end" x="0.00" y="0.00" incLanes="-E0_0" intLanes="" shape="0.00,2.00 0.00,-2.00 0.00,2.00 0.00,-2.00"/>
    <junction id="J1" type="dead_end" x="100.00" y="0.00" incLanes="E0_0" intLanes="" shape="100.00,-2.00 100.00,2.00 100.00,-2.00 100.00,2.00"/>

</net>
