<additional>

  <parkingArea id="parking_a" lane="a_0" startPos="6" endPos="40" friendlyPos="true" roadsideCapacity="6" angle="0" onRoad="false"/>
  <parkingArea id="parking_b" lane="b_0" startPos="6" endPos="40" friendlyPos="true" roadsideCapacity="6" angle="0" onRoad="false"/>
  <parkingArea id="parking_-c" lane="-c_0" startPos="6" endPos="40" friendlyPos="true" roadsideCapacity="6" angle="0" onRoad="false"/>

</additional>
