<?xml version="1.0" encoding="UTF-8"?>

<additional xmlns:xsi="http://www.w3.org/2001/XMLSchema-instance" xsi:noNamespaceSchemaLocation="http://sumo.dlr.de/xsd/additional_file.xsd">
	
    <vType id="car" sigma="0">
        <param key="parking.anywhere" value="1"/>
    </vType>

</additional>
