<?xml version="1.0" encoding="UTF-8"?>

<!-- generated on 2024-11-18 20:51:46 by Eclipse SUMO duarouter Version v1_21_0+0848-cbdf18d695e
This data file and the accompanying materials
are made available under the terms of the Eclipse Public License v2.0
which accompanies this distribution, and is available at
http://www.eclipse.org/legal/epl-v20.html
This file may also be made available under the following Secondary
Licenses when the conditions for such availability set forth in the Eclipse
Public License 2.0 are satisfied: GNU General Public License, version 2
or later which is available at
https://www.gnu.org/licenses/old-licenses/gpl-2.0-standalone.html
SPDX-License-Identifier: EPL-2.0 OR GPL-2.0-or-later
<duarouterConfiguration xmlns:xsi="http://www.w3.org/2001/XMLSchema-instance" xsi:noNamespaceSchemaLocation="http://sumo.dlr.de/xsd/duarouterConfiguration.xsd">

    <input>
        <net-file value="input_net3.net.xml"/>
        <route-files value="input_trips.trips.xml"/>
        <junction-taz value="true"/>
    </input>

    <output>
        <output-file value="routes.rou.xml"/>
        <write-license value="true"/>
    </output>

    <processing>
        <mapmatch.junctions value="true"/>
    </processing>

    <report>
        <xml-validation value="never"/>
        <no-step-log value="true"/>
    </report>

</duarouterConfiguration>
-->

<routes xmlns:xsi="http://www.w3.org/2001/XMLSchema-instance" xsi:noNamespaceSchemaLocation="http://sumo.dlr.de/xsd/routes_file.xsd">
    <person id="0" depart="0.00">
        <walk edges="-24214693#0 -7727483#3 -7727483#2 -7727483#1 -7727483#0 7727482 27445015#0 27445015#1 27445015#2 27445015#3 27445015#4" arrivalPos="240.34"/>
        <stop edge="27445015#4" endPos="208.69" duration="30.00"/>
    </person>
</routes>
