<?xml version="1.0" encoding="UTF-8"?>

<!-- generated on Thu Nov  9 09:29:25 2017 by SUMO Version v0_31_0-972-g9af9eb8
<?xml version="1.0" encoding="UTF-8"?>

<configuration xmlns:xsi="http://www.w3.org/2001/XMLSchema-instance" xsi:noNamespaceSchemaLocation="http://sumo.dlr.de/xsd/sumoConfiguration.xsd">

    <input>
        <net-file value="net.net.xml"/>
        <route-files value="input_routes.rou.xml"/>
    </input>

    <output>
        <lanechange-output value="lanechanges.xml"/>
    </output>

    <processing>
        <lateral-resolution value="0.8"/>
        <time-to-teleport value="50"/>
    </processing>

    <report>
        <xml-validation value="never"/>
        <no-step-log value="true"/>
    </report>

</configuration>
-->

<lanechanges>
    <change id="ego" type="tEgo" time="16.00" from="beg_0" to="beg_1" dir="1" speed="5.33" pos="96.67" reason="speedGain" leaderGap="None" leaderSecureGap="None" followerGap="None" followerSecureGap="None" origLeaderGap="3.33" origLeaderSecureGap="6.17" latGap="None"/>
</lanechanges>
