<routes xmlns:xsi="http://www.w3.org/2001/XMLSchema-instance" xsi:noNamespaceSchemaLocation="http://sumo.dlr.de/xsd/routes_file.xsd">

    <vType id="t" sigma="1.0" speedDev="0.0"/>
    <flow id="1" type="t" route="circle" begin="0" end="1" number="1000" departPos="last" departSpeed="10"/>
</routes>
