<?xml version="1.0" encoding="UTF-8"?>

<!-- generated on Mon Jan 13 22:38:54 2020 by Eclipse SUMO duarouter Version v1_4_0+0481-53ce226bdd
This data file and the accompanying materials
are made available under the terms of the Eclipse Public License v2.0
which accompanies this distribution, and is available at
http://www.eclipse.org/legal/epl-v20.html
SPDX-License-Identifier: EPL-2.0
<configuration xmlns:xsi="http://www.w3.org/2001/XMLSchema-instance" xsi:noNamespaceSchemaLocation="http://sumo.dlr.de/xsd/duarouterConfiguration.xsd">

    <input>
        <net-file value="input_net.net.xml"/>
        <additional-files value="input_additional.add.xml"/>
        <route-files value="input_trips.trips.xml"/>
        <junction-taz value="true"/>
    </input>

    <output>
        <write-license value="true"/>
        <output-file value="routes.rou.xml"/>
        <alternatives-output value="routes.rou.alt.xml"/>
        <write-trips value="true"/>
    </output>

    <processing>
        <mapmatch.junctions value="true"/>
    </processing>

    <report>
        <xml-validation value="never"/>
        <no-step-log value="true"/>
    </report>

</configuration>
-->

<routes xmlns:xsi="http://www.w3.org/2001/XMLSchema-instance" xsi:noNamespaceSchemaLocation="http://sumo.dlr.de/xsd/routes_file.xsd">
    <trip id="0" depart="0.00" from="beg" to="rend">
        <stop busStop="busStop#1" duration="10.00"/>
    </trip>
    <trip id="2" depart="0.00" from="beg2left" to="rend" via="left"/>
</routes>
