<?xml version="1.0" encoding="UTF-8"?>

<!-- generated on Tue Jun 23 15:39:33 2020 by Eclipse SUMO Version v1_6_0+0938-6895ba79a7
This data file and the accompanying materials
are made available under the terms of the Eclipse Public License v2.0
which accompanies this distribution, and is available at
http://www.eclipse.org/legal/epl-v20.html
SPDX-License-Identifier: EPL-2.0
<configuration xmlns:xsi="http://www.w3.org/2001/XMLSchema-instance" xsi:noNamespaceSchemaLocation="http://sumo.dlr.de/xsd/sumoConfiguration.xsd">

    <input>
        <net-file value="net.net.xml"/>
        <route-files value="input_routes.rou.xml"/>
    </input>

    <output>
        <write-license value="true"/>
        <save-state.times value="10"/>
        <save-state.files value="state.xml"/>
        <save-state.rng value="true"/>
    </output>

    <processing>
        <default.speeddev value="0"/>
    </processing>

    <report>
        <verbose value="true"/>
        <xml-validation value="never"/>
        <duration-log.disable value="true"/>
        <no-step-log value="true"/>
    </report>

</configuration>
-->

<snapshot xmlns:xsi="http://www.w3.org/2001/XMLSchema-instance" xsi:noNamespaceSchemaLocation="http://sumo.dlr.de/xsd/state_file.xsd" version="v1_6_0+0938-6895ba79a7" time="10.00">
    <rngState default="23423 1167331356 1557454963 3342307069 1701009466 2013684300 4047175015 3684465787 1788957536 2599145038 75698182 3815934057 2048297950 584615432 2841585974 3489928595 2551615968 1780973627 4274692340 2429988998 2361804840 1476326055 3522859412 2665889706 2256536928 286364099 1665457417 1873574979 2606389286 1020004945 2721868563 1889097428 3083484969 2630217496 1220689764 5443580 1412901520 360866906 4204511656 2848254878 2651549876 1456397815 3458218040 4268409458 2135175105 28612333 1837064367 1790984917 1164562900 2631779898 2652580938 2170749083 2542804369 3199489588 3804424580 479224186 2876686170 2376570353 805450777 393146136 1180708020 3503390886 2701332055 1764959432 2908492941 2419958700 3333140968 1163982074 3644324427 3757983405 3387359468 573326738 2880476386 3463879849 4014524764 4044638662 417236997 3132708678 3987657250 4283666516 446136739 3785056416 2440649633 2623562402 2033092980 3575568510 1047613095 3764152122 3594599125 1410514119 3822350456 2321495010 1970427836 2839266030 2757243770 312444599 2601063827 3390512022 3052642091 3479813264 2527531363 1037943978 795054456 2506726591 2092366841 2765168961 505674457 2371819784 2452699998 1974773689 1410311174 4179916338 3053050565 1897451508 4056361243 943263467 1139516971 722143495 375410489 2499003124 1413190022 185772476 1331073958 532521054 187995026 800414487 300760977 4069895604 3271915699 1804520945 3172773938 132854643 3933788131 2488536037 1188581801 3533905871 1425258500 365250434 4138191060 1284394078 2241591559 435154054 2699429740 817679605 987691577 1903180302 3133271933 2552722606 3853849712 2609356020 37393316 1939539019 3883551690 2756540390 3203748238 3930134743 1606697024 4237763394 3963990595 1671664607 2361206070 3019145765 3694082309 995079681 1960859657 4090954701 1199554284 3339594024 1623933343 1772122623 3477071840 310638650 796785038 3793908659 290510110 2462262149 1102136307 3152695595 218101471 4029857198 390163189 2009026654 3877014833 835942257 3278936397 1989753471 2352185968 2319415733 187626735 287541768 3994795494 2530507032 2119741954 1918293744 568379095 3422061206 3841999501 916078795 2165650397 3308834498 1230363629 1963266277 2269490878 3223620855 679883024 3835882525 2171942564 1409771085 4173203660 1733902716 279821347 1999566242 2725258531 168054746 1768238040 2018537076 3825938945 742116771 3625540905 419642477 1016605917 3457612046 3853727743 1619981131 2006882066 904906336 2237834434 3948265635 2169151492 3661519171 3910956838 302043008 903700072 749987825 3987831807 1984153431 2848238554 225862949 198817159 431676978 1392536746 369058664 4056735994 1024001072 1159485412 1920678734 277130785 879713532 597068900 2722293869 30546885 119825076 3977856512 1065696044 2322523482 1541706935 1841173198 3686216620 4156099597 4292296841 490492278 3533589139 2555018198 3295891371 1152865872 3250415614 1615555803 1291361549 3312804552 280731172 2225252674 25167695 2727684667 738273934 236833048 570830731 2897159659 834840322 909768416 2853980023 2409156417 1560912264 318639399 1129713790 2806086199 3132003590 3619418034 3930213108 654754707 1633277216 996589607 560967558 1252587266 3857649748 3446735481 289359177 1527343093 3137575021 3020393461 413296798 643945858 778686327 3490089505 2976821913 2222877527 3097745082 93597642 126875109 1537642893 1466915185 3353033318 1619073040 4249262317 1261679903 4079322128 2717927354 2793784532 4076285867 1369355910 352142210 2174367114 2134173673 3075647434 2245933867 2826258801 3233384100 1959952425 515504399 3373353779 3814677305 3003582764 233979505 2232687841 3533300188 2981066057 3641404134 1173928617 2979892633 2804798073 538238682 3816068950 558838494 2458509548 675749181 2069835625 3368312161 824199940 1727970799 2410106434 1503797405 3568196330 4291792972 1195849611 4170695891 1843656562 2726440130 9333028 2121253017 340809054 4277337469 3052958238 2933523061 3969231197 3091276161 3140900123 3483956554 3656112187 3125430151 1345807849 4105985529 1718738708 1357005244 2258441733 3136581944 597604184 556035887 1898513923 2608099907 836558367 98253494 82022730 3884903855 3897086554 3921387420 281743931 2960967112 127476788 3778485767 3689610520 3571863596 1158662929 5680855 27593563 2897096560 3157965700 1513141097 1829859732 1421708886 2018949345 1900466671 3167433334 2337733973 675709925 3618281452 1562761695 2660811819 4234041027 1826945879 2821861510 996133293 796075995 3552570882 790524161 1686315010 4159847885 239575525 19492345 2936120798 1181560174 1215059310 3061783919 3504403110 152897983 4209316098 1971339277 3459494501 3987208680 2708561506 1910218124 1037082446 1269930356 1986275800 14198093 1191865874 2726992433 144253650 3821740174 4083830358 3979306559 218985315 1153663687 3716714455 3668259934 1455320940 717114557 2303749454 1145883834 2298075782 1780472788 3389635018 3401703183 3895356799 3243020208 2919267940 1721792004 2996453056 2445186642 1523720025 1125414786 4087169914 712401289 2443562458 4068134918 803848392 2765887672 4180102451 2971674050 505587347 13984979 1290449940 3146468127 3539085640 2528145263 3879226586 4551799 2851840974 1166265688 525575930 691186816 382636127 2438647387 565185534 4241599256 84342410 2876579926 2781787913 2949651517 368172482 6771058 3312920035 879153994 2997483549 1336966439 1470412779 2043595584 3022191508 4085942814 1012728930 247017116 4282704255 222057440 1288698197 3687273498 978620628 2863307164 2094410575 4107130304 3639587562 229591273 2123069162 4095127477 116767437 3615844833 2860169771 1395287343 2887879465 3470978299 723531741 78008631 1133870010 4014859727 1917441925 806595870 3812252897 3286866230 3667513590 2721419191 4076638584 3856480919 514675317 2025137979 470582773 3394500797 3094401803 3065124259 3845960604 3932944083 3277697577 3480602284 596904998 2700288794 3009196693 4115023537 1735207001 1930429656 2782465214 1066837070 444502761 2163058961 2965627300 3298025124 990853386 969792794 4248905579 3164812850 2142507803 1039824238 447362195 256797485 3951452144 4177651727 2873293549 440396157 2912290180 1942939154 3091591860 2373331460 3125136533 606570699 3445267792 3560341241 3561612509 917773266 1387290135 3699959532 1780614538 3744503063 2440988453 1129329573 331556343 2031102903 1690281747 2038664800 683677580 2503424132 2142438695 1533829192 2135429144 3300572457 1896750559 2711591140 1662282509 28027404 1024361741 4215895411 3924051843 1708373972 1555793502 2977815761 1872366742 2225391851 1323759430 1919258717 1054290599 3415432511 179103497 3675912683 223658727 1729070723 2108269995 2637977716 2271219441 3180000067 918995978 2409280600 1493390313 294601968 3153765657 872126737 2191818528 1692228822 2145759808 2915770131 1245338916 624" routeHandler="1987544664 3476322311 3419776590 3464142443 3075853427 2312326537 594286862 678785135 2481791756 3189759680 3293908924 3577312617 708020905 1004319552 582308884 1662335473 2291683520 3365367223 1177352614 1196050925 1576430674 1854956964 119491259 4114554847 23104152 2713180132 1413193724 2016242718 157091730 1706130622 3644716296 4080415431 1941072066 802195142 1984802342 717434885 1305173055 2680650469 1551587101 2899220692 17141874 3393157667 1916277338 2724799992 1146778750 1964127446 4208393945 134915159 2269023827 188832415 1363208724 3101648323 2505282256 3147869133 2791726530 3573010461 1910178883 2812927191 3106752844 2995683336 1924849418 2325561462 2265239838 2781928208 3652918284 2435778802 1297726133 290411842 265346746 3587417524 1328841818 353185442 3000584863 3425644465 2859994539 1138203570 4200916857 1989287270 3595725796 2445327702 798889642 4169576847 1493082382 3989670625 188704705 987872404 891864343 1499270627 1456429493 2654610433 1356743731 2061400748 3521823892 1716177655 1659800473 3678160689 850344480 3124737034 3549832668 567390832 1655957047 420013600 1828233215 3933183683 3350190378 232659369 1023089744 3820094515 2667890764 3737782211 3833432563 3462075732 101126416 1442679783 3286338919 1870137899 653758071 3239244396 2790812243 2768184376 782852867 588060900 1280027541 3940002822 4238068433 2716697097 3664808507 996382128 911607505 3166427054 671201310 1240064441 3448760152 2194784048 2891299533 2687116479 2995941578 2380394953 2205914547 1907276431 2410300522 3741762842 3804420739 613740249 2347020178 1898840528 729715214 30052064 3894067908 2123099548 3132858387 3008400628 3806681687 2615768675 3609658814 1445985594 3272259274 1401511884 2540530219 1000663029 3663250782 4166076272 791229487 1517909204 195152852 2038445579 2383483152 2594436610 362642068 2867452404 4077138056 865694732 1698894934 2627605622 1142998464 3479440116 3595421277 67087708 1379621725 228102322 2862690058 3922970082 3525455504 3248543694 2264632051 2140819288 4107737993 1235808812 1998766115 1818345147 874654868 3147228200 1210414759 677858128 1189620294 3928177557 4283110839 1657494594 2339905762 2557602557 4281450227 3000961934 2525035058 3504853091 3854512535 853478159 3453759838 4157364569 2030061495 1246205733 918796342 4013892813 950764102 2844708248 3142072779 378002076 4191392260 983476755 2357886208 2529944129 2633095582 3626676785 1810609754 1595021151 1695699312 2944028018 2794982826 919787098 992207993 3210452445 2272983467 2914739015 109186734 2361136174 3395035931 2265937633 1638685837 1488020896 3655604848 62110972 824378100 441656425 1032961001 2853600050 4054511632 3613793897 1568532371 1279076960 3870925133 3741251462 4138544773 938224024 4269099634 1359801681 2362939034 1065488117 1214965096 1005175761 366289500 1026310265 2677478224 979932109 3522307855 798029591 3206138138 3042333103 330983053 599728406 2187506993 1885947643 2074187392 3424145852 588423569 4258798165 2147550029 140618873 1402997022 1247547748 886699687 1268204975 3575937801 907144078 4116502562 4218620295 4210988628 3538992789 3350177138 3090222620 3123817190 62849490 3043429587 4243548045 2748874968 3001650006 3235399481 3143425439 1364908381 2353000831 1499208429 2716442718 1108572373 460585060 2187883041 559112717 717485627 2493021185 185595771 2605051571 1245294056 2064858173 2643265257 2895420264 3329283780 213518111 140324414 93174751 2118714123 940646256 1889590125 3509050961 2161641948 2034751612 14412411 4288491079 3663951704 821548311 3079011880 3744723825 4054842211 897260393 899559716 1546479493 1687349575 4247000619 2402791744 1693459911 1594651088 786681872 2656139833 935156411 89789064 3399843089 2723361898 2186324252 2088266755 4274540497 243845648 695911458 3604265077 1713145568 2502976544 103866827 78565567 2894164354 706905041 1980838467 444892989 573149873 4019728344 2540953175 1286868693 1125637820 1694631072 1979837080 3929377644 1988544881 3045271955 2126071361 2085641017 2449093897 216387079 295867471 743717196 2058471842 2286946728 1233580314 3929629794 2069725123 2981958063 3767833330 824619115 2734910611 586298100 308776712 1270299944 3567384625 2453133353 3081616338 2451730278 3567673720 3277493088 2457599654 1876369843 3490467026 1857232745 588628574 2159484639 1445452839 2452794404 2066124141 1077795331 2299213037 3836821762 567777901 2512093078 3038560483 3806485958 3199743817 762614251 1553141154 3900645583 1216086700 1306255193 1445377456 2541982209 4005479936 2078370900 1460976163 2678115999 3390195919 1075261955 2607685190 3612455700 478381422 3705288111 4255898646 3368633804 2279370805 2889303081 3008902792 3956655247 2094781422 291126278 1167183001 3011561520 1223022576 871542798 3646733302 816917923 2210591738 507656876 3592070116 2111368490 1971586181 1043766452 4004256605 2461470466 3925750900 4247678676 2542004482 2987233599 95688360 4168774208 3586668200 799000890 1945939792 1262101166 2800796266 2490745594 3400634037 2221863619 3009497880 3506148997 1942114513 3173676006 2171865233 3584712554 2822832194 1009155683 3109859001 3278860182 603617144 2767861764 2220354935 1489042311 2222475233 3512149243 3795089605 2776879464 1875942784 30730414 2998878998 2097247664 1573942595 4026935434 3677723805 2010427032 2678373353 2178658787 2344701610 2949430214 1103710038 126663301 794624813 967728348 4222087230 776455370 2096955854 1790087644 1703708769 1119311392 2917312832 1431036947 1190479312 2906633244 247405639 669031642 184250274 156520699 1449082663 553739326 1211404923 516248415 926033722 925465431 1145596996 3475483363 775722135 3710245456 225886944 1388695627 3637612982 331957040 816715206 3782416644 2437836265 3633834210 2851427649 3442336129 658133347 3059585064 2531441338 1370006875 3378400629 3923490685 2785338974 2209699318 4197967295 4250836347 3590932297 3424448138 3958816185 4013137708 1203831143 721262895 795576650 1158686714 430337419 556148910 1653736745 2719658690 3330644437 2539648637 3923010865 971065891 4015178196 2703667711 2872161389 1777223805 2166009247 831380354 1528886561 1916479237 652935897 851519818 3639242555 4086762542 3460392498 3959960505 1363196873 1904012205 656564714 1318637573 550287718 1550567143 1615086113 3081467309 1838206253 2530853871 2704176571 131470036 383993057 1651587461 270474111 3304628477 3257802748 2832717403 4158775454 2727895180 1976420562 2659413953 3940572778 4043914024 288302069 2470696287 247038163 3215455782 2371063984 1718587908 3071208934 499298817 678064473 3487946902 1459124770 2802039960 87645573 1060520798 2611594229 81727129 745283278 3370072239 2356868182 2411895348 2516222469 1109697273 2598751518 1347650347 61861687 2468987190 498700248 4026439154 3781042239 1174990028 3146571251 1" insertionControl="23423 1167331356 1557454963 3342307069 1701009466 2013684300 4047175015 3684465787 1788957536 2599145038 75698182 3815934057 2048297950 584615432 2841585974 3489928595 2551615968 1780973627 4274692340 2429988998 2361804840 1476326055 3522859412 2665889706 2256536928 286364099 1665457417 1873574979 2606389286 1020004945 2721868563 1889097428 3083484969 2630217496 1220689764 5443580 1412901520 360866906 4204511656 2848254878 2651549876 1456397815 3458218040 4268409458 2135175105 28612333 1837064367 1790984917 1164562900 2631779898 2652580938 2170749083 2542804369 3199489588 3804424580 479224186 2876686170 2376570353 805450777 393146136 1180708020 3503390886 2701332055 1764959432 2908492941 2419958700 3333140968 1163982074 3644324427 3757983405 3387359468 573326738 2880476386 3463879849 4014524764 4044638662 417236997 3132708678 3987657250 4283666516 446136739 3785056416 2440649633 2623562402 2033092980 3575568510 1047613095 3764152122 3594599125 1410514119 3822350456 2321495010 1970427836 2839266030 2757243770 312444599 2601063827 3390512022 3052642091 3479813264 2527531363 1037943978 795054456 2506726591 2092366841 2765168961 505674457 2371819784 2452699998 1974773689 1410311174 4179916338 3053050565 1897451508 4056361243 943263467 1139516971 722143495 375410489 2499003124 1413190022 185772476 1331073958 532521054 187995026 800414487 300760977 4069895604 3271915699 1804520945 3172773938 132854643 3933788131 2488536037 1188581801 3533905871 1425258500 365250434 4138191060 1284394078 2241591559 435154054 2699429740 817679605 987691577 1903180302 3133271933 2552722606 3853849712 2609356020 37393316 1939539019 3883551690 2756540390 3203748238 3930134743 1606697024 4237763394 3963990595 1671664607 2361206070 3019145765 3694082309 995079681 1960859657 4090954701 1199554284 3339594024 1623933343 1772122623 3477071840 310638650 796785038 3793908659 290510110 2462262149 1102136307 3152695595 218101471 4029857198 390163189 2009026654 3877014833 835942257 3278936397 1989753471 2352185968 2319415733 187626735 287541768 3994795494 2530507032 2119741954 1918293744 568379095 3422061206 3841999501 916078795 2165650397 3308834498 1230363629 1963266277 2269490878 3223620855 679883024 3835882525 2171942564 1409771085 4173203660 1733902716 279821347 1999566242 2725258531 168054746 1768238040 2018537076 3825938945 742116771 3625540905 419642477 1016605917 3457612046 3853727743 1619981131 2006882066 904906336 2237834434 3948265635 2169151492 3661519171 3910956838 302043008 903700072 749987825 3987831807 1984153431 2848238554 225862949 198817159 431676978 1392536746 369058664 4056735994 1024001072 1159485412 1920678734 277130785 879713532 597068900 2722293869 30546885 119825076 3977856512 1065696044 2322523482 1541706935 1841173198 3686216620 4156099597 4292296841 490492278 3533589139 2555018198 3295891371 1152865872 3250415614 1615555803 1291361549 3312804552 280731172 2225252674 25167695 2727684667 738273934 236833048 570830731 2897159659 834840322 909768416 2853980023 2409156417 1560912264 318639399 1129713790 2806086199 3132003590 3619418034 3930213108 654754707 1633277216 996589607 560967558 1252587266 3857649748 3446735481 289359177 1527343093 3137575021 3020393461 413296798 643945858 778686327 3490089505 2976821913 2222877527 3097745082 93597642 126875109 1537642893 1466915185 3353033318 1619073040 4249262317 1261679903 4079322128 2717927354 2793784532 4076285867 1369355910 352142210 2174367114 2134173673 3075647434 2245933867 2826258801 3233384100 1959952425 515504399 3373353779 3814677305 3003582764 233979505 2232687841 3533300188 2981066057 3641404134 1173928617 2979892633 2804798073 538238682 3816068950 558838494 2458509548 675749181 2069835625 3368312161 824199940 1727970799 2410106434 1503797405 3568196330 4291792972 1195849611 4170695891 1843656562 2726440130 9333028 2121253017 340809054 4277337469 3052958238 2933523061 3969231197 3091276161 3140900123 3483956554 3656112187 3125430151 1345807849 4105985529 1718738708 1357005244 2258441733 3136581944 597604184 556035887 1898513923 2608099907 836558367 98253494 82022730 3884903855 3897086554 3921387420 281743931 2960967112 127476788 3778485767 3689610520 3571863596 1158662929 5680855 27593563 2897096560 3157965700 1513141097 1829859732 1421708886 2018949345 1900466671 3167433334 2337733973 675709925 3618281452 1562761695 2660811819 4234041027 1826945879 2821861510 996133293 796075995 3552570882 790524161 1686315010 4159847885 239575525 19492345 2936120798 1181560174 1215059310 3061783919 3504403110 152897983 4209316098 1971339277 3459494501 3987208680 2708561506 1910218124 1037082446 1269930356 1986275800 14198093 1191865874 2726992433 144253650 3821740174 4083830358 3979306559 218985315 1153663687 3716714455 3668259934 1455320940 717114557 2303749454 1145883834 2298075782 1780472788 3389635018 3401703183 3895356799 3243020208 2919267940 1721792004 2996453056 2445186642 1523720025 1125414786 4087169914 712401289 2443562458 4068134918 803848392 2765887672 4180102451 2971674050 505587347 13984979 1290449940 3146468127 3539085640 2528145263 3879226586 4551799 2851840974 1166265688 525575930 691186816 382636127 2438647387 565185534 4241599256 84342410 2876579926 2781787913 2949651517 368172482 6771058 3312920035 879153994 2997483549 1336966439 1470412779 2043595584 3022191508 4085942814 1012728930 247017116 4282704255 222057440 1288698197 3687273498 978620628 2863307164 2094410575 4107130304 3639587562 229591273 2123069162 4095127477 116767437 3615844833 2860169771 1395287343 2887879465 3470978299 723531741 78008631 1133870010 4014859727 1917441925 806595870 3812252897 3286866230 3667513590 2721419191 4076638584 3856480919 514675317 2025137979 470582773 3394500797 3094401803 3065124259 3845960604 3932944083 3277697577 3480602284 596904998 2700288794 3009196693 4115023537 1735207001 1930429656 2782465214 1066837070 444502761 2163058961 2965627300 3298025124 990853386 969792794 4248905579 3164812850 2142507803 1039824238 447362195 256797485 3951452144 4177651727 2873293549 440396157 2912290180 1942939154 3091591860 2373331460 3125136533 606570699 3445267792 3560341241 3561612509 917773266 1387290135 3699959532 1780614538 3744503063 2440988453 1129329573 331556343 2031102903 1690281747 2038664800 683677580 2503424132 2142438695 1533829192 2135429144 3300572457 1896750559 2711591140 1662282509 28027404 1024361741 4215895411 3924051843 1708373972 1555793502 2977815761 1872366742 2225391851 1323759430 1919258717 1054290599 3415432511 179103497 3675912683 223658727 1729070723 2108269995 2637977716 2271219441 3180000067 918995978 2409280600 1493390313 294601968 3153765657 872126737 2191818528 1692228822 2145759808 2915770131 1245338916 624" device="23423 1167331356 1557454963 3342307069 1701009466 2013684300 4047175015 3684465787 1788957536 2599145038 75698182 3815934057 2048297950 584615432 2841585974 3489928595 2551615968 1780973627 4274692340 2429988998 2361804840 1476326055 3522859412 2665889706 2256536928 286364099 1665457417 1873574979 2606389286 1020004945 2721868563 1889097428 3083484969 2630217496 1220689764 5443580 1412901520 360866906 4204511656 2848254878 2651549876 1456397815 3458218040 4268409458 2135175105 28612333 1837064367 1790984917 1164562900 2631779898 2652580938 2170749083 2542804369 3199489588 3804424580 479224186 2876686170 2376570353 805450777 393146136 1180708020 3503390886 2701332055 1764959432 2908492941 2419958700 3333140968 1163982074 3644324427 3757983405 3387359468 573326738 2880476386 3463879849 4014524764 4044638662 417236997 3132708678 3987657250 4283666516 446136739 3785056416 2440649633 2623562402 2033092980 3575568510 1047613095 3764152122 3594599125 1410514119 3822350456 2321495010 1970427836 2839266030 2757243770 312444599 2601063827 3390512022 3052642091 3479813264 2527531363 1037943978 795054456 2506726591 2092366841 2765168961 505674457 2371819784 2452699998 1974773689 1410311174 4179916338 3053050565 1897451508 4056361243 943263467 1139516971 722143495 375410489 2499003124 1413190022 185772476 1331073958 532521054 187995026 800414487 300760977 4069895604 3271915699 1804520945 3172773938 132854643 3933788131 2488536037 1188581801 3533905871 1425258500 365250434 4138191060 1284394078 2241591559 435154054 2699429740 817679605 987691577 1903180302 3133271933 2552722606 3853849712 2609356020 37393316 1939539019 3883551690 2756540390 3203748238 3930134743 1606697024 4237763394 3963990595 1671664607 2361206070 3019145765 3694082309 995079681 1960859657 4090954701 1199554284 3339594024 1623933343 1772122623 3477071840 310638650 796785038 3793908659 290510110 2462262149 1102136307 3152695595 218101471 4029857198 390163189 2009026654 3877014833 835942257 3278936397 1989753471 2352185968 2319415733 187626735 287541768 3994795494 2530507032 2119741954 1918293744 568379095 3422061206 3841999501 916078795 2165650397 3308834498 1230363629 1963266277 2269490878 3223620855 679883024 3835882525 2171942564 1409771085 4173203660 1733902716 279821347 1999566242 2725258531 168054746 1768238040 2018537076 3825938945 742116771 3625540905 419642477 1016605917 3457612046 3853727743 1619981131 2006882066 904906336 2237834434 3948265635 2169151492 3661519171 3910956838 302043008 903700072 749987825 3987831807 1984153431 2848238554 225862949 198817159 431676978 1392536746 369058664 4056735994 1024001072 1159485412 1920678734 277130785 879713532 597068900 2722293869 30546885 119825076 3977856512 1065696044 2322523482 1541706935 1841173198 3686216620 4156099597 4292296841 490492278 3533589139 2555018198 3295891371 1152865872 3250415614 1615555803 1291361549 3312804552 280731172 2225252674 25167695 2727684667 738273934 236833048 570830731 2897159659 834840322 909768416 2853980023 2409156417 1560912264 318639399 1129713790 2806086199 3132003590 3619418034 3930213108 654754707 1633277216 996589607 560967558 1252587266 3857649748 3446735481 289359177 1527343093 3137575021 3020393461 413296798 643945858 778686327 3490089505 2976821913 2222877527 3097745082 93597642 126875109 1537642893 1466915185 3353033318 1619073040 4249262317 1261679903 4079322128 2717927354 2793784532 4076285867 1369355910 352142210 2174367114 2134173673 3075647434 2245933867 2826258801 3233384100 1959952425 515504399 3373353779 3814677305 3003582764 233979505 2232687841 3533300188 2981066057 3641404134 1173928617 2979892633 2804798073 538238682 3816068950 558838494 2458509548 675749181 2069835625 3368312161 824199940 1727970799 2410106434 1503797405 3568196330 4291792972 1195849611 4170695891 1843656562 2726440130 9333028 2121253017 340809054 4277337469 3052958238 2933523061 3969231197 3091276161 3140900123 3483956554 3656112187 3125430151 1345807849 4105985529 1718738708 1357005244 2258441733 3136581944 597604184 556035887 1898513923 2608099907 836558367 98253494 82022730 3884903855 3897086554 3921387420 281743931 2960967112 127476788 3778485767 3689610520 3571863596 1158662929 5680855 27593563 2897096560 3157965700 1513141097 1829859732 1421708886 2018949345 1900466671 3167433334 2337733973 675709925 3618281452 1562761695 2660811819 4234041027 1826945879 2821861510 996133293 796075995 3552570882 790524161 1686315010 4159847885 239575525 19492345 2936120798 1181560174 1215059310 3061783919 3504403110 152897983 4209316098 1971339277 3459494501 3987208680 2708561506 1910218124 1037082446 1269930356 1986275800 14198093 1191865874 2726992433 144253650 3821740174 4083830358 3979306559 218985315 1153663687 3716714455 3668259934 1455320940 717114557 2303749454 1145883834 2298075782 1780472788 3389635018 3401703183 3895356799 3243020208 2919267940 1721792004 2996453056 2445186642 1523720025 1125414786 4087169914 712401289 2443562458 4068134918 803848392 2765887672 4180102451 2971674050 505587347 13984979 1290449940 3146468127 3539085640 2528145263 3879226586 4551799 2851840974 1166265688 525575930 691186816 382636127 2438647387 565185534 4241599256 84342410 2876579926 2781787913 2949651517 368172482 6771058 3312920035 879153994 2997483549 1336966439 1470412779 2043595584 3022191508 4085942814 1012728930 247017116 4282704255 222057440 1288698197 3687273498 978620628 2863307164 2094410575 4107130304 3639587562 229591273 2123069162 4095127477 116767437 3615844833 2860169771 1395287343 2887879465 3470978299 723531741 78008631 1133870010 4014859727 1917441925 806595870 3812252897 3286866230 3667513590 2721419191 4076638584 3856480919 514675317 2025137979 470582773 3394500797 3094401803 3065124259 3845960604 3932944083 3277697577 3480602284 596904998 2700288794 3009196693 4115023537 1735207001 1930429656 2782465214 1066837070 444502761 2163058961 2965627300 3298025124 990853386 969792794 4248905579 3164812850 2142507803 1039824238 447362195 256797485 3951452144 4177651727 2873293549 440396157 2912290180 1942939154 3091591860 2373331460 3125136533 606570699 3445267792 3560341241 3561612509 917773266 1387290135 3699959532 1780614538 3744503063 2440988453 1129329573 331556343 2031102903 1690281747 2038664800 683677580 2503424132 2142438695 1533829192 2135429144 3300572457 1896750559 2711591140 1662282509 28027404 1024361741 4215895411 3924051843 1708373972 1555793502 2977815761 1872366742 2225391851 1323759430 1919258717 1054290599 3415432511 179103497 3675912683 223658727 1729070723 2108269995 2637977716 2271219441 3180000067 918995978 2409280600 1493390313 294601968 3153765657 872126737 2191818528 1692228822 2145759808 2915770131 1245338916 624" device.btreceiver="5489 1301868182 2938499221 2950281878 1875628136 751856242 944701696 2243192071 694061057 219885934 2066767472 3182869408 485472502 2336857883 1071588843 3418470598 951210697 3693558366 2923482051 1793174584 2982310801 1586906132 1951078751 1808158765 1733897588 431328322 4202539044 530658942 1714810322 3025256284 3342585396 1937033938 2640572511 1654299090 3692403553 4233871309 3497650794 862629010 2943236032 2426458545 1603307207 1133453895 3099196360 2208657629 2747653927 931059398 761573964 3157853227 785880413 730313442 124945756 2937117055 3295982469 1724353043 3021675344 3884886417 4010150098 4056961966 699635835 2681338818 1339167484 720757518 2800161476 2376097373 1532957371 3902664099 1238982754 3725394514 3449176889 3570962471 4287636090 4087307012 3603343627 202242161 2995682783 1620962684 3704723357 371613603 2814834333 2111005706 624778151 2094172212 4284947003 1211977835 991917094 1570449747 2962370480 1259410321 170182696 146300961 2836829791 619452428 2723670296 1881399711 1161269684 1675188680 4132175277 780088327 3409462821 1036518241 1834958505 3048448173 161811569 618488316 44795092 3918322701 1924681712 3239478144 383254043 4042306580 2146983041 3992780527 3518029708 3545545436 3901231469 1896136409 2028528556 2339662006 501326714 2060962201 2502746480 561575027 581893337 3393774360 1778912547 3626131687 2175155826 319853231 986875531 819755096 2915734330 2688355739 3482074849 2736559 2296975761 1029741190 2876812646 690154749 579200347 4027461746 1285330465 2701024045 4117700889 759495121 3332270341 2313004527 2277067795 4131855432 2722057515 1264804546 3848622725 2211267957 4100593547 959123777 2130745407 3194437393 486673947 1377371204 17472727 352317554 3955548058 159652094 1232063192 3835177280 49423123 3083993636 733092 2120519771 2573409834 1112952433 3239502554 761045320 10