<?xml version="1.0" encoding="UTF-8"?>

<!-- generated on 2023-07-13 16:25:35 by Eclipse SUMO netedit Version v1_18_0+0288-17e2524abed
-->

<routes xmlns:xsi="http://www.w3.org/2001/XMLSchema-instance" xsi:noNamespaceSchemaLocation="http://sumo.dlr.de/xsd/routes_file.xsd">
    <!-- VTypes -->
    <vType id="DEFAULT_VEHTYPE"/>
</routes>
