<configuration>

    <input>
        <net-file value="net.net.xml"/>
    </input>

    <gui_only>
        <gui-settings-file value="settings.xml"/>
    </gui_only>

</configuration>
