<?xml version="1.0" encoding="UTF-8"?>

<!-- generated on 27.08.2019 11:22:23 by Eclipse SUMO netedit Version v1_3_1+0002-2d02006e75
<configuration xmlns:xsi="http://www.w3.org/2001/XMLSchema-instance" xsi:noNamespaceSchemaLocation="http://sumo.dlr.de/xsd/netconvertConfiguration.xsd">

    <input>
        <sumo-net-file value="C:/Users/SUMO-Test/.texttest/tmp/netedit.gui.6_from_27Aug084919.7364/netedit.gui/demandElements/stop/stopContainerStop/inspect_selection/until\input_net.net.xml"/>
    </input>

    <output>
        <output-file value="C:/Users/SUMO-Test/.texttest/tmp/netedit.gui.6_from_27Aug084919.7364/netedit.gui/demandElements/stop/stopContainerStop/inspect_selection/until\net.net.xml"/>
    </output>

    <processing>
        <geometry.max-grade.fix value="false"/>
        <offset.disable-normalization value="true"/>
        <opposites.guess.fix-lengths value="true"/>
        <lefthand value="false"/>
    </processing>

    <junctions>
        <no-turnarounds value="true"/>
        <junctions.corner-detail value="5"/>
        <junctions.limit-turn-speed value="5.5"/>
        <rectangular-lane-cut value="false"/>
    </junctions>

    <pedestrian>
        <walkingareas value="false"/>
    </pedestrian>

    <netedit>
        <additional-files value="C:/Users/SUMO-Test/.texttest/tmp/netedit.gui.6_from_27Aug084919.7364/netedit.gui/demandElements/stop/stopContainerStop/inspect_selection/until\additionals.xml"/>
        <additionals-output value="C:/Users/SUMO-Test/.texttest/tmp/netedit.gui.6_from_27Aug084919.7364/netedit.gui/demandElements/stop/stopContainerStop/inspect_selection/until\additionals.xml"/>
        <route-files value="C:/Users/SUMO-Test/.texttest/tmp/netedit.gui.6_from_27Aug084919.7364/netedit.gui/demandElements/stop/stopContainerStop/inspect_selection/until\routes.xml"/>
        <demandelements-output value="C:/Users/SUMO-Test/.texttest/tmp/netedit.gui.6_from_27Aug084919.7364/netedit.gui/demandElements/stop/stopContainerStop/inspect_selection/until\routes.xml"/>
    </netedit>

    <visualisation>
        <gui-settings-file value="C:/Users/SUMO-Test/.texttest/tmp/netedit.gui.6_from_27Aug084919.7364/netedit.gui/demandElements/stop/stopContainerStop/inspect_selection/until\gui-settings.xml"/>
        <window-size value="700,500"/>
        <window-pos value="50,50"/>
        <gui-testing value="true"/>
        <gui-testing-debug value="true"/>
        <gui-testing-debug-gl value="true"/>
    </visualisation>

    <report>
        <no-warnings value="true"/>
        <error-log value="C:/Users/SUMO-Test/.texttest/tmp/netedit.gui.6_from_27Aug084919.7364/netedit.gui/demandElements/stop/stopContainerStop/inspect_selection/until\log.txt"/>
    </report>

</configuration>
-->

<routes xmlns:xsi="http://www.w3.org/2001/XMLSchema-instance" xsi:noNamespaceSchemaLocation="http://sumo.dlr.de/xsd/routes_file.xsd">
    <trip id="trip_0" depart="0.00" from="gneE0" to="gneE1">
        <stop containerStop="containerStopA" duration="70.00" until="3.50" triggered="1" containerTriggered="1" parking="1" expected="IDA" expectedContainers="IDB" tripId="IDC"/>
        <stop containerStop="containerStopB" duration="60.00" until="3.50"/>
    </trip>
</routes>
