<?xml version="1.0" encoding="UTF-8"?>

<!-- generated on 2024-11-28 08:19:23 by Eclipse SUMO netedit Version v1_21_0+0996-83d012d81e5
-->

<routes xmlns:xsi="http://www.w3.org/2001/XMLSchema-instance" xsi:noNamespaceSchemaLocation="http://sumo.dlr.de/xsd/routes_file.xsd">
    <vType id="train" vClass="rail" length="50"/>
    <!-- Vehicles, persons and containers (sorted by depart) -->
    <trip id="t_0" type="train" depart="0.00" from="-E4" to="-E3"/>
    <trip id="t_1" type="train" depart="5.00" from="E0" to="E1"/>
</routes>
