<?xml version="1.0" encoding="UTF-8"?>

<!-- generated on 2022-12-04 10:23:54 by Eclipse SUMO sumo Version v1_15_0+0749-de9f6f8
This data file and the accompanying materials
are made available under the terms of the Eclipse Public License v2.0
which accompanies this distribution, and is available at
http://www.eclipse.org/legal/epl-v20.html
This file may also be made available under the following Secondary
Licenses when the conditions for such availability set forth in the Eclipse
Public License 2.0 are satisfied: GNU General Public License, version 2
or later which is available at
https://www.gnu.org/licenses/old-licenses/gpl-2.0-standalone.html
SPDX-License-Identifier: EPL-2.0 OR GPL-2.0-or-later
<configuration xmlns:xsi="http://www.w3.org/2001/XMLSchema-instance" xsi:noNamespaceSchemaLocation="http://sumo.dlr.de/xsd/sumoConfiguration.xsd">

    <input>
        <net-file value="net.net.xml"/>
        <route-files value="input_routes.rou.xml"/>
        <additional-files value="input_additional.add.xml,input_additional2.add.xml"/>
    </input>

    <output>
        <write-license value="true"/>
    </output>

    <processing>
        <default.speeddev value="0"/>
    </processing>

    <report>
        <xml-validation value="never"/>
        <duration-log.statistics value="true"/>
        <no-step-log value="true"/>
    </report>

</configuration>
-->

<tlsStates detectors="2881_NEMA_D1.2 2881_NEMA_D1.3 2881_NEMA_D2.0 2881_NEMA_D2.1 2881_NEMA_D4.0 2881_NEMA_D4.1 2881_NEMA_D4.2 2881_NEMA_D6.0 2881_NEMA_D6.1" xmlns:xsi="http://www.w3.org/2001/XMLSchema-instance" xsi:noNamespaceSchemaLocation="http://sumo.dlr.de/xsd/tlsstates_file.xsd">
    <tlsState time="0.00" id="2881" programID="NEMA" phase="0" state="GGGGGrrrrrrr" name="4+4" detectors="0 0 0 0 0 0 0 0 0"/>
    <tlsState time="1.00" id="2881" programID="NEMA" phase="0" state="GGGGGrrrrrrr" name="4+4" detectors="0 0 0 0 0 0 0 0 0"/>
    <tlsState time="2.00" id="2881" programID="NEMA" phase="0" state="GGGGGrrrrrrr" name="4+4" detectors="0 0 0 0 0 0 0 0 0"/>
    <tlsState time="3.00" id="2881" programID="NEMA" phase="0" state="GGGGGrrrrrrr" name="4+4" detectors="0 0 0 0 0 0 0 0 0"/>
    <tlsState time="4.00" id="2881" programID="NEMA" phase="0" state="GGGGGrrrrrrr" name="4+4" detectors="0 0 0 0 0 0 0 0 0"/>
    <tlsState time="5.00" id="2881" programID="NEMA" phase="0" state="GGGGGrrrrrrr" name="4+4" detectors="0 0 0 0 0 0 0 0 0"/>
    <tlsState time="6.00" id="2881" programID="NEMA" phase="0" state="GGGGGrrrrrrr" name="4+4" detectors="0 0 0 0 0 0 0 0 0"/>
    <tlsState time="7.00" id="2881" programID="NEMA" phase="0" state="GGGGGrrrrrrr" name="4+4" detectors="0 0 0 0 0 0 0 0 0"/>
    <tlsState time="8.00" id="2881" programID="NEMA" phase="0" state="GGGGGrrrrrrr" name="4+4" detectors="0 0 0 0 0 0 0 0 0"/>
    <tlsState time="9.00" id="2881" programID="NEMA" phase="0" state="GGGGGrrrrrrr" name="4+4" detectors="0 0 0 0 0 0 0 0 0"/>
    <tlsState time="10.00" id="2881" programID="NEMA" phase="1" state="yyyyyrrrrrrr" name="4+4" detectors="0 0 0 0 0 0 0 0 0"/>
    <tlsState time="11.00" id="2881" programID="NEMA" phase="1" state="yyyyyrrrrrrr" name="4+4" detectors="0 0 0 0 0 0 0 0 0"/>
    <tlsState time="12.00" id="2881" programID="NEMA" phase="1" state="yyyyyrrrrrrr" name="4+4" detectors="0 0 1 0 0 0 0 0 0"/>
    <tlsState time="13.00" id="2881" programID="NEMA" phase="1" state="yyyyyrrrrrrr" name="4+4" detectors="0 0 1 0 0 0 0 0 0"/>
    <tlsState time="14.00" id="2881" programID="NEMA" phase="1" state="yyyyyrrrrrrr" name="4+4" detectors="0 0 1 0 0 0 0 0 0"/>
    <tlsState time="15.00" id="2881" programID="NEMA" phase="0" state="rrrrrrrrrrrr" name="4+4" detectors="0 0 1 0 0 0 0 0 0"/>
    <tlsState time="16.00" id="2881" programID="NEMA" phase="1" state="srrrrGGGGrrr" name="1+6" detectors="0 0 1 1 0 0 0 0 0"/>
    <tlsState time="17.00" id="2881" programID="NEMA" phase="1" state="srrrrGGGGrrr" name="1+6" detectors="0 0 1 1 0 0 0 0 0"/>
    <tlsState time="18.00" id="2881" programID="NEMA" phase="1" state="srrrrGGGGrrr" name="1+6" detectors="0 0 1 1 0 0 0 0 0"/>
    <tlsState time="19.00" id="2881" programID="NEMA" phase="1" state="srrrrGGGGrrr" name="1+6" detectors="1 0 2 1 0 0 0 0 0"/>
    <tlsState time="20.00" id="2881" programID="NEMA" phase="1" state="srrrrGGGGrrr" name="1+6" detectors="0 0 2 1 0 0 0 1 0"/>
    <tlsState time="21.00" id="2881" programID="NEMA" phase="1" state="srrrrGGGGrrr" name="1+6" detectors="0 0 2 1 0 0 0 0 0"/>
    <tlsState time="22.00" id="2881" programID="NEMA" phase="0" state="srrrrGGyyrrr" name="1+6" detectors="0 0 2 1 0 0 0 0 0"/>
    <tlsState time="23.00" id="2881" programID="NEMA" phase="0" state="srrrrGGyyrrr" name="1+6" detectors="0 0 2 1 0 0 0 0 0"/>
    <tlsState time="24.00" id="2881" programID="NEMA" phase="0" state="srrrrGGyyrrr" name="1+6" detectors="0 0 2 2 0 0 0 0 1"/>
    <tlsState time="25.00" id="2881" programID="NEMA" phase="0" state="srrrrGGyyrrr" name="1+6" detectors="0 0 2 2 0 0 0 0 0"/>
    <tlsState time="26.00" id="2881" programID="NEMA" phase="1" state="srrrrGGrrrrr" name="1+6" detectors="0 0 2 2 1 0 0 0 0"/>
    <tlsState time="27.00" id="2881" programID="NEMA" phase="0" state="srrrrGGrrGGG" name="2+6" detectors="0 0 3 2 1 0 0 1 1"/>
    <tlsState time="28.00" id="2881" programID="NEMA" phase="0" state="srrrrGGrrGGG" name="2+6" detectors="0 0 3 2 1 0 0 0 0"/>
    <tlsState time="29.00" id="2881" programID="NEMA" phase="0" state="srrrrGGrrGGG" name="2+6" detectors="0 0 3 2 1 0 0 0 0"/>
    <tlsState time="30.00" id="2881" programID="NEMA" phase="0" state="srrrrGGrrGGG" name="2+6" detectors="0 0 2 1 2 0 0 0 0"/>
    <tlsState time="31.00" id="2881" programID="NEMA" phase="0" state="srrrrGGrrGGG" name="2+6" detectors="0 0 2 2 2 0 1 0 0"/>
    <tlsState time="32.00" id="2881" programID="NEMA" phase="0" state="srrrrGGrrGGG" name="2+6" detectors="0 0 2 2 2 0 1 0 0"/>
    <tlsState time="33.00" id="2881" programID="NEMA" phase="0" state="srrrrGGrrGGG" name="2+6" detectors="0 0 1 1 2 0 1 0 0"/>
    <tlsState time="34.00" id="2881" programID="NEMA" phase="0" state="srrrrGGrrGGG" name="2+6" detectors="0 0 1 1 3 0 1 0 0"/>
    <tlsState time="35.00" id="2881" programID="NEMA" phase="0" state="srrrrGGrrGGG" name="2+6" detectors="0 0 1 0 3 0 1 0 0"/>
    <tlsState time="36.00" id="2881" programID="NEMA" phase="0" state="srrrrGGrrGGG" name="2+6" detectors="0 0 0 0 3 1 1 0 0"/>
    <tlsState time="37.00" id="2881" programID="NEMA" phase="0" state="srrrrGGrrGGG" name="2+6" detectors="0 0 0 0 3 1 1 0 0"/>
    <tlsState time="38.00" id="2881" programID="NEMA" phase="0" state="srrrrGGrrGGG" name="2+6" detectors="0 0 0 0 3 1 1 1 0"/>
    <tlsState time="39.00" id="2881" programID="NEMA" phase="0" state="srrrrGGrrGGG" name="2+6" detectors="0 0 0 0 3 1 1 1 0"/>
    <tlsState time="40.00" id="2881" programID="NEMA" phase="0" state="srrrrGGrrGGG" name="2+6" detectors="0 0 0 0 3 1 2 0 1"/>
    <tlsState time="41.00" id="2881" programID="NEMA" phase="0" state="srrrrGGrrGGG" name="2+6" detectors="0 0 0 0 3 1 2 0 0"/>
    <tlsState time="42.00" id="2881" programID="NEMA" phase="0" state="srrrrGGrrGGG" name="2+6" detectors="0 0 1 0 3 1 2 1 0"/>
    <tlsState time="43.00" id="2881" programID="NEMA" phase="0" state="srrrrGGrrGGG" name="2+6" detectors="0 0 1 0 3 1 2 1 0"/>
    <tlsState time="44.00" id="2881" programID="NEMA" phase="0" state="srrrrGGrrGGG" name="2+6" detectors="0 0 1 0 3 1 2 0 0"/>
    <tlsState time="45.00" id="2881" programID="NEMA" phase="0" state="srrrrGGrrGGG" name="2+6" detectors="0 0 0 0 3 1 2 0 1"/>
    <tlsState time="46.00" id="2881" programID="NEMA" phase="0" state="srrrrGGrrGGG" name="2+6" detectors="0 0 0 0 3 1 2 0 1"/>
    <tlsState time="47.00" id="2881" programID="NEMA" phase="0" state="srrrrGGrrGGG" name="2+6" detectors="1 0 0 0 3 1 2 0 0"/>
    <tlsState time="48.00" id="2881" programID="NEMA" phase="0" state="srrrrGGrrGGG" name="2+6" detectors="1 0 0 0 3 1 2 0 0"/>
    <tlsState time="49.00" id="2881" programID="NEMA" phase="0" state="srrrrGGrrGGG" name="2+6" detectors="1 0 0 0 3 1 2 0 0"/>
    <tlsState time="50.00" id="2881" programID="NEMA" phase="0" state="srrrrGGrrGGG" name="2+6" detectors="1 0 0 0 3 1 2 0 0"/>
    <tlsState time="51.00" id="2881" programID="NEMA" phase="0" state="srrrrGGrrGGG" name="2+6" detectors="1 0 0 0 3 1 2 0 0"/>
    <tlsState time="52.00" id="2881" programID="NEMA" phase="0" state="srrrrGGrrGGG" name="2+6" detectors="1 0 0 0 3 1 2 1 0"/>
    <tlsState time="53.00" id="2881" programID="NEMA" phase="0" state="srrrrGGrrGGG" name="2+6" detectors="1 1 0 0 3 1 2 0 0"/>
    <tlsState time="54.00" id="2881" programID="NEMA" phase="0" state="srrrrGGrrGGG" name="2+6" detectors="1 1 0 0 3 1 2 0 0"/>
    <tlsState time="55.00" id="2881" programID="NEMA" phase="0" state="srrrrGGrrGGG" name="2+6" detectors="1 1 0 0 3 1 2 0 0"/>
    <tlsState time="56.00" id="2881" programID="NEMA" phase="0" state="srrrrGGrrGGG" name="2+6" detectors="1 1 1 1 3 1 2 0 0"/>
    <tlsState time="57.00" id="2881" programID="NEMA" phase="0" state="srrrrGGrrGGG" name="2+6" detectors="2 1 1 1 3 2 2 0 0"/>
    <tlsState time="58.00" id="2881" programID="NEMA" phase="0" state="srrrrGGrrGGG" name="2+6" detectors="2 1 0 0 3 2 2 0 0"/>
    <tlsState time="59.00" id="2881" programID="NEMA" phase="0" state="srrrrGGrrGGG" name="2+6" detectors="2 1 0 0 3 2 2 0 0"/>
    <tlsState time="60.00" id="2881" programID="NEMA" phase="0" state="srrrrGGrrGGG" name="2+6" detectors="2 1 0 0 3 2 2 0 0"/>
    <tlsState time="61.00" id="2881" programID="NEMA" phase="0" state="srrrrGGrrGGG" name="2+6" detectors="2 2 1 0 3 2 2 0 1"/>
    <tlsState time="62.00" id="2881" programID="NEMA" phase="0" state="srrrrGGrrGGG" name="2+6" detectors="2 2 1 0 3 2 2 0 1"/>
    <tlsState time="63.00" id="2881" programID="NEMA" phase="0" state="srrrrGGrrGGG" name="2+6" detectors="2 2 1 1 3 2 2 0 0"/>
    <tlsState time="64.00" id="2881" programID="NEMA" phase="0" state="srrrrGGrrGGG" name="2+6" detectors="2 2 1 1 3 2 2 0 0"/>
    <tlsState time="65.00" id="2881" programID="NEMA" phase="0" state="srrrrGGrrGGG" name="2+6" detectors="2 2 1 0 3 2 2 1 1"/>
    <tlsState time="66.00" id="2881" programID="NEMA" phase="0" state="srrrrGGrrGGG" name="2+6" detectors="2 2 1 0 3 2 2 1 0"/>
    <tlsState time="67.00" id="2881" programID="NEMA" phase="0" state="srrrrGGrrGGG" name="2+6" detectors="2 2 1 0 3 3 2 0 0"/>
    <tlsState time="68.00" id="2881" programID="NEMA" phase="0" state="srrrrGGrrGGG" name="2+6" detectors="2 2 1 1 3 3 2 0 0"/>
    <tlsState time="69.00" id="2881" programID="NEMA" phase="0" state="srrrrGGrrGGG" name="2+6" detectors="2 2 0 1 3 3 2 0 0"/>
    <tlsState time="70.00" id="2881" programID="NEMA" phase="0" state="srrrrGGrrGGG" name="2+6" detectors="2 2 1 0 3 3 2 1 0"/>
    <tlsState time="71.00" id="2881" programID="NEMA" phase="0" state="srrrrGGrrGGG" name="2+6" detectors="2 2 1 1 3 3 2 0 0"/>
    <tlsState time="72.00" id="2881" programID="NEMA" phase="0" state="srrrrGGrrGGG" name="2+6" detectors="2 2 0 1 3 3 2 0 0"/>
    <tlsState time="73.00" id="2881" programID="NEMA" phase="0" state="srrrrGGrrGGG" name="2+6" detectors="2 2 0 1 3 3 2 0 0"/>
    <tlsState time="74.00" id="2881" programID="NEMA" phase="0" state="srrrrGGrrGGG" name="2+6" detectors="2 2 0 0 3 3 2 0 0"/>
    <tlsState time="75.00" id="2881" programID="NEMA" phase="0" state="srrrrGGrrGGG" name="2+6" detectors="2 2 0 1 3 3 2 0 1"/>
    <tlsState time="76.00" id="2881" programID="NEMA" phase="0" state="srrrrGGrrGGG" name="2+6" detectors="2 2 1 1 3 3 2 0 1"/>
    <tlsState time="77.00" id="2881" programID="NEMA" phase="0" state="srrrrGGrrGGG" name="2+6" detectors="2 2 0 1 3 3 2 0 0"/>
    <tlsState time="78.00" id="2881" programID="NEMA" phase="0" state="srrrrGGrrGGG" name="2+6" detectors="2 2 0 0 3 3 2 0 0"/>
    <tlsState time="79.00" id="2881" programID="NEMA" phase="0" state="srrrrGGrrGGG" name="2+6" detectors="2 2 1 0 3 3 2 0 0"/>
    <tlsState time="80.00" id="2881" programID="NEMA" phase="0" state="srrrrGGrrGGG" name="2+6" detectors="2 2 1 0 2 3 2 0 0"/>
    <tlsState time="81.00" id="2881" programID="NEMA" phase="0" state="srrrrGGrrGGG" name="2+6" detectors="2 2 1 0 2 3 2 0 0"/>
    <tlsState time="82.00" id="2881" programID="NEMA" phase="0" state="srrrrGGrrGGG" name="2+6" detectors="2 2 0 0 3 3 2 0 0"/>
    <tlsState time="83.00" id="2881" programID="NEMA" phase="0" state="srrrrGGrrGGG" name="2+6" detectors="2 2 1 0 3 3 2 0 0"/>
    <tlsState time="84.00" id="2881" programID="NEMA" phase="0" state="srrrrGGrrGGG" name="2+6" detectors="2 2 1 0 3 3 2 0 0"/>
    <tlsState time="85.00" id="2881" programID="NEMA" phase="0" state="srrrrGGrrGGG" name="2+6" detectors="2 2 0 0 3 3 2 0 0"/>
    <tlsState time="86.00" id="2881" programID="NEMA" phase="0" state="srrrrGGrrGGG" name="2+6" detectors="2 2 0 0 3 3 2 0 0"/>
    <tlsState time="87.00" id="2881" programID="NEMA" phase="0" state="srrrrGGrrGGG" name="2+6" detectors="2 2 0 0 3 3 2 1 0"/>
    <tlsState time="88.00" id="2881" programID="NEMA" phase="0" state="srrrrGGrrGGG" name="2+6" detectors="2 2 0 0 3 3 2 0 1"/>
    <tlsState time="89.00" id="2881" programID="NEMA" phase="0" state="srrrrGGrrGGG" name="2+6" detectors="2 2 0 0 3 3 2 0 0"/>
    <tlsState time="90.00" id="2881" programID="NEMA" phase="0" state="srrrrGGrrGGG" name="2+6" detectors="2 2 0 0 3 3 2 0 0"/>
    <tlsState time="91.00" id="2881" programID="NEMA" phase="0" state="srrrrGGrrGGG" name="2+6" detectors="2 2 0 0 3 3 2 1 0"/>
    <tlsState time="92.00" id="2881" programID="NEMA" phase="0" state="srrrrGGrrGGG" name="2+6" detectors="2 2 0 0 3 3 2 0 0"/>
    <tlsState time="93.00" id="2881" programID="NEMA" phase="0" state="srrrrGGrrGGG" name="2+6" detectors="2 2 0 0 3 3 2 0 0"/>
    <tlsState time="94.00" id="2881" programID="NEMA" phase="0" state="srrrrGGrrGGG" name="2+6" detectors="2 2 0 0 3 3 2 0 0"/>
    <tlsState time="95.00" id="2881" programID="NEMA" phase="0" state="srrrrGGrrGGG" name="2+6" detectors="2 2 0 0 3 3 2 0 0"/>
    <tlsState time="96.00" id="2881" programID="NEMA" phase="0" state="srrrrGGrrGGG" name="2+6" detectors="2 2 0 0 2 3 2 0 0"/>
    <tlsState time="97.00" id="2881" programID="NEMA" phase="0" state="srrrrGGrrGGG" name="2+6" detectors="2 2 0 0 2 3 2 0 0"/>
    <tlsState time="98.00" id="2881" programID="NEMA" phase="0" state="srrrrGGrrGGG" name="2+6" detectors="2 2 1 0 2 3 2 0 0"/>
    <tlsState time="99.00" id="2881" programID="NEMA" phase="0" state="srrrrGGrrGGG" name="2+6" detectors="2 2 1 0 3 3 2 0 0"/>
    <tlsState time="100.00" id="2881" programID="NEMA" phase="0" state="srrrrGGrrGGG" name="2+6" detectors="2 2 1 0 3 3 2 0 0"/>
    <tlsState time="101.00" id="2881" programID="NEMA" phase="0" state="srrrrGGrrGGG" name="2+6" detectors="2 2 0 0 3 3 2 0 0"/>
    <tlsState time="102.00" id="2881" programID="NEMA" phase="0" state="srrrrGGrrGGG" name="2+6" detectors="2 2 0 0 3 3 2 0 0"/>
    <tlsState time="103.00" id="2881" programID="NEMA" phase="0" state="srrrrGGrrGGG" name="2+6" detectors="2 2 0 0 3 3 2 0 0"/>
    <tlsState time="104.00" id="2881" programID="NEMA" phase="0" state="srrrrGGrrGGG" name="2+6" detectors="2 2 0 0 3 3 2 0 0"/>
    <tlsState time="105.00" id="2881" programID="NEMA" phase="0" state="srrrrGGrrGGG" name="2+6" detectors="2 2 1 0 3 3 2 0 0"/>
    <tlsState time="106.00" id="2881" programID="NEMA" phase="0" state="srrrrGGrrGGG" name="2+6" detectors="2 2 1 0 3 3 2 0 0"/>
    <tlsState time="107.00" id="2881" programID="NEMA" phase="0" state="srrrrGGrrGGG" name="2+6" detectors="2 2 0 0 3 3 2 0 0"/>
    <tlsState time="108.00" id="2881" programID="NEMA" phase="0" state="srrrrGGrrGGG" name="2+6" detectors="2 2 0 0 3 3 2 0 0"/>
    <tlsState time="109.00" id="2881" programID="NEMA" phase="0" state="srrrrGGrrGGG" name="2+6" detectors="2 2 0 0 3 3 2 0 0"/>
    <tlsState time="110.00" id="2881" programID="NEMA" phase="0" state="srrrrGGrrGGG" name="2+6" detectors="2 2 0 0 3 3 2 0 0"/>
    <tlsState time="111.00" id="2881" programID="NEMA" phase="0" state="srrrrGGrrGGG" name="2+6" detectors="2 2 0 0 3 3 2 0 0"/>
    <tlsState time="112.00" id="2881" programID="NEMA" phase="0" state="srrrrGGrrGGG" name="2+6" detectors="2 2 0 0 3 3 2 0 0"/>
    <tlsState time="113.00" id="2881" programID="NEMA" phase="0" state="srrrrGGrrGGG" name="2+6" detectors="2 2 0 0 3 3 2 1 0"/>
    <tlsState time="114.00" id="2881" programID="NEMA" phase="0" state="srrrrGGrrGGG" name="2+6" detectors="2 2 0 0 3 3 2 1 0"/>
    <tlsState time="115.00" id="2881" programID="NEMA" phase="0" state="srrrrGGrrGGG" name="2+6" detectors="2 2 1 0 3 3 2 0 0"/>
    <tlsState time="116.00" id="2881" programID="NEMA" phase="0" state="srrrrGGrrGGG" name="2+6" detectors="2 2 1 1 3 3 2 0 0"/>
    <tlsState time="117.00" id="2881" programID="NEMA" phase="0" state="srrrrGGrrGGG" name="2+6" detectors="2 2 0 1 3 3 2 0 0"/>
    <tlsState time="118.00" id="2881" programID="NEMA" phase="0" state="srrrrGGrrGGG" name="2+6" detectors="2 2 0 1 3 3 2 0 0"/>
    <tlsState time="119.00" id="2881" programID="NEMA" phase="0" state="srrrrGGrrGGG" name="2+6" detectors="2 2 0 0 3 3 2 0 0"/>
    <tlsState time="120.00" id="2881" programID="NEMA" phase="0" state="srrrrGGrrGGG" name="2+6" detectors="2 2 0 0 3 3 2 0 0"/>
    <tlsState time="121.00" id="2881" programID="NEMA" phase="0" state="srrrrGGrrGGG" name="2+6" detectors="2 2 0 0 3 3 2 0 0"/>
    <tlsState time="122.00" id="2881" programID="NEMA" phase="0" state="srrrrGGrrGGG" name="2+6" detectors="2 2 1 0 3 3 2 0 0"/>
    <tlsState time="123.00" id="2881" programID="NEMA" phase="0" state="srrrrGGrrGGG" name="2+6" detectors="2 2 1 0 3 3 2 0 0"/>
    <tlsState time="124.00" id="2881" programID="NEMA" phase="0" state="srrrrGGrrGGG" name="2+6" detectors="2 2 1 0 3 3 2 0 0"/>
    <tlsState time="125.00" id="2881" programID="NEMA" phase="1" state="srrrryyrryyy" name="2+6" detectors="2 2 1 0 3 3 2 0 0"/>
    <tlsState time="126.00" id="2881" programID="NEMA" phase="1" state="srrrryyrryyy" name="2+6" detectors="2 2 0 1 3 3 2 1 1"/>
    <tlsState time="127.00" id="2881" programID="NEMA" phase="1" state="srrrryyrryyy" name="2+6" detectors="2 2 1 1 3 3 2 1 1"/>
    <tlsState time="128.00" id="2881" programID="NEMA" phase="1" state="srrrryyrryyy" name="2+6" detectors="2 2 1 1 2 3 2 1 1"/>
    <tlsState time="129.00" id="2881" programID="NEMA" phase="0" state="rrrrrrrrrrrr" name="2+6" detectors="2 2 2 1 2 3 2 1 1"/>
    <tlsState time="130.00" id="2881" programID="NEMA" phase="1" state="GGGGGrrrrrrr" name="4+4" detectors="2 2 2 1 3 3 2 2 2"/>
    <tlsState time="131.00" id="2881" programID="NEMA" phase="1" state="GGGGGrrrrrrr" name="4+4" detectors="2 2 2 2 3 3 2 2 2"/>
    <tlsState time="132.00" id="2881" programID="NEMA" phase="1" state="GGGGGrrrrrrr" name="4+4" detectors="2 2 2 2 3 3 2 2 2"/>
    <tlsState time="133.00" id="2881" programID="NEMA" phase="1" state="GGGGGrrrrrrr" name="4+4" detectors="2 2 3 2 2 2 2 2 2"/>
    <tlsState time="134.00" id="2881" programID="NEMA" phase="1" state="GGGGGrrrrrrr" name="4+4" detectors="2 2 3 2 2 2 1 2 2"/>
    <tlsState time="135.00" id="2881" programID="NEMA" phase="1" state="GGGGGrrrrrrr" name="4+4" detectors="2 2 3 2 3 2 1 2 2"/>
    <tlsState time="136.00" id="2881" programID="NEMA" phase="1" state="GGGGGrrrrrrr" name="4+4" detectors="2 2 3 2 2 2 1 2 2"/>
    <tlsState time="137.00" id="2881" programID="NEMA" phase="1" state="GGGGGrrrrrrr" name="4+4" detectors="2 2 3 2 2 2 1 2 2"/>
    <tlsState time="138.00" id="2881" programID="NEMA" phase="1" state="GGGGGrrrrrrr" name="4+4" detectors="2 2 3 2 2 2 1 2 2"/>
    <tlsState time="139.00" id="2881" programID="NEMA" phase="1" state="GGGGGrrrrrrr" name="4+4" detectors="2 2 3 3 2 1 1 2 2"/>
    <tlsState time="140.00" id="2881" programID="NEMA" phase="1" state="GGGGGrrrrrrr" name="4+4" detectors="2 2 3 3 1 2 1 2 2"/>
    <tlsState time="141.00" id="2881" programID="NEMA" phase="1" state="GGGGGrrrrrrr" name="4+4" detectors="2 2 3 3 2 1 1 2 3"/>
    <tlsState time="142.00" id="2881" programID="NEMA" phase="1" state="GGGGGrrrrrrr" name="4+4" detectors="2 2 3 3 2 1 1 2 3"/>
    <tlsState time="143.00" id="2881" programID="NEMA" phase="1" state="GGGGGrrrrrrr" name="4+4" detectors="2 2 3 3 2 2 1 2 3"/>
    <tlsState time="144.00" id="2881" programID="NEMA" phase="1" state="GGGGGrrrrrrr" name="4+4" detectors="2 2 3 3 1 1 1 2 3"/>
    <tlsState time="145.00" id="2881" programID="NEMA" phase="1" state="GGGGGrrrrrrr" name="4+4" detectors="2 2 3 3 2 2 1 2 3"/>
    <tlsState time="146.00" id="2881" programID="NEMA" phase="1" state="GGGGGrrrrrrr" name="4+4" detectors="2 2 3 3 1 1 1 2 3"/>
    <tlsState time="147.00" id="2881" programID="NEMA" phase="1" state="GGGGGrrrrrrr" name="4+4" detectors="2 2 3 3 2 2 1 2 3"/>
    <tlsState time="148.00" id="2881" programID="NEMA" phase="1" state="GGGGGrrrrrrr" name="4+4" detectors="2 2 3 3 1 1 1 2 3"/>
    <tlsState time="149.00" id="2881" programID="NEMA" phase="1" state="GGGGGrrrrrrr" name="4+4" detectors="2 2 3 3 2 2 1 2 3"/>
    <tlsState time="150.00" id="2881" programID="NEMA" phase="1" state="GGGGGrrrrrrr" name="4+4" detectors="2 2 3 3 1 1 1 3 3"/>
    <tlsState time="151.00" id="2881" programID="NEMA" phase="0" state="yyyyyrrrrrrr" name="4+4" detectors="2 2 3 3 2 1 1 3 3"/>
    <tlsState time="152.00" id="2881" programID="NEMA" phase="0" state="yyyyyrrrrrrr" name="4+4" detectors="2 2 3 3 1 0 1 3 3"/>
    <tlsState time="153.00" id="2881" programID="NEMA" phase="0" state="yyyyyrrrrrrr" name="4+4" detectors="2 2 3 3 2 0 1 3 3"/>
    <tlsState time="154.00" id="2881" programID="NEMA" phase="0" state="yyyyyrrrrrrr" name="4+4" detectors="2 2 3 3 2 0 1 3 3"/>
    <tlsState time="155.00" id="2881" programID="NEMA" phase="0" state="yyyyyrrrrrrr" name="4+4" detectors="2 2 3 3 3 0 2 3 3"/>
    <tlsState time="156.00" id="2881" programID="NEMA" phase="1" state="rrrrrrrrrrrr" name="4+4" detectors="2 2 3 3 3 1 2 3 3"/>
    <tlsState time="157.00" id="2881" programID="NEMA" phase="0" state="srrrrGGGGrrr" name="1+6" detectors="2 2 3 3 3 1 2 3 3"/>
    <tlsState time="158.00" id="2881" programID="NEMA" phase="0" state="srrrrGGGGrrr" name="1+6" detectors="2 2 3 3 3 1 2 3 3"/>
    <tlsState time="159.00" id="2881" programID="NEMA" phase="0" state="srrrrGGGGrrr" name="1+6" detectors="2 2 3 3 3 1 2 3 3"/>
    <tlsState time="160.00" id="2881" programID="NEMA" phase="0" state="srrrrGGGGrrr" name="1+6" detectors="1 1 3 3 3 2 2 2 2"/>
    <tlsState time="161.00" id="2881" programID="NEMA" phase="0" state="srrrrGGGGrrr" name="1+6" detectors="1 1 3 3 3 2 2 2 2"/>
    <tlsState time="162.00" id="2881" programID="NEMA" phase="0" state="srrrrGGGGrrr" name="1+6" detectors="1 2 3 3 3 2 2 2 2"/>
    <tlsState time="163.00" id="2881" programID="NEMA" phase="0" state="srrrrGGGGrrr" name="1+6" detectors="1 1 3 3 3 2 2 2 2"/>
    <tlsState time="164.00" id="2881" programID="NEMA" phase="0" state="srrrrGGGGrrr" name="1+6" detectors="1 1 3 3 3 2 2 2 2"/>
    <tlsState time="165.00" id="2881" programID="NEMA" phase="0" state="srrrrGGGGrrr" name="1+6" detectors="1 0 3 3 3 2 2 2 2"/>
    <tlsState time="166.00" id="2881" programID="NEMA" phase="0" state="srrrrGGGGrrr" name="1+6" detectors="1 1 3 3 3 3 2 2 2"/>
    <tlsState time="167.00" id="2881" programID="NEMA" phase="0" state="srrrrGGGGrrr" name="1+6" detectors="1 1 3 3 3 3 2 2 2"/>
    <tlsState time="168.00" id="2881" programID="NEMA" phase="0" state="srrrrGGGGrrr" name="1+6" detectors="0 1 3 3 3 3 2 1 1"/>
    <tlsState time="169.00" id="2881" programID="NEMA" phase="0" state="srrrrGGGGrrr" name="1+6" detectors="1 1 3 3 3 3 2 1 2"/>
    <tlsState time="170.00" id="2881" programID="NEMA" phase="0" state="srrrrGGGGrrr" name="1+6" detectors="0 0 3 3 3 3 2 0 1"/>
    <tlsState time="171.00" id="2881" programID="NEMA" phase="0" state="srrrrGGGGrrr" name="1+6" detectors="1 1 3 3 3 3 2 0 1"/>
    <tlsState time="172.00" id="2881" programID="NEMA" phase="0" state="srrrrGGGGrrr" name="1+6" detectors="0 0 3 3 3 3 2 0 0"/>
    <tlsState time="173.00" id="2881" programID="NEMA" phase="1" state="srrrrGGyyrrr" name="1+6" detectors="1 1 3 3 3 3 2 0 0"/>
    <tlsState time="174.00" id="2881" programID="NEMA" phase="1" state="srrrrGGyyrrr" name="1+6" detectors="0 0 3 3 3 3 2 0 0"/>
    <tlsState time="175.00" id="2881" programID="NEMA" phase="1" state="srrrrGGyyrrr" name="1+6" detectors="1 1 3 3 3 3 2 0 0"/>
    <tlsState time="176.00" id="2881" programID="NEMA" phase="1" state="srrrrGGyyrrr" name="1+6" detectors="1 1 3 3 3 3 2 0 0"/>
    <tlsState time="177.00" id="2881" programID="NEMA" phase="0" state="srrrrGGrrrrr" name="1+6" detectors="2 1 3 3 3 3 2 0 0"/>
    <tlsState time="178.00" id="2881" programID="NEMA" phase="1" state="srrrrGGrrGGG" name="2+6" detectors="2 1 3 3 3 3 2 0 0"/>
    <tlsState time="179.00" id="2881" programID="NEMA" phase="1" state="srrrrGGrrGGG" name="2+6" detectors="2 2 3 3 3 3 2 1 0"/>
    <tlsState time="180.00" id="2881" programID="NEMA" phase="1" state="srrrrGGrrGGG" name="2+6" detectors="2 2 3 3 3 3 2 0 0"/>
    <tlsState time="181.00" id="2881" programID="NEMA" phase="1" state="srrrrGGrrGGG" name="2+6" detectors="2 2 2 2 3 3 2 0 0"/>
    <tlsState time="182.00" id="2881" programID="NEMA" phase="1" state="srrrrGGrrGGG" name="2+6" detectors="2 2 2 2 3 3 2 0 0"/>
    <tlsState time="183.00" id="2881" programID="NEMA" phase="1" state="srrrrGGrrGGG" name="2+6" detectors="2 2 2 2 3 3 2 0 1"/>
    <tlsState time="184.00" id="2881" programID="NEMA" phase="1" state="srrrrGGrrGGG" name="2+6" detectors="2 2 2 3 3 3 2 0 1"/>
    <tlsState time="185.00" id="2881" programID="NEMA" phase="1" state="srrrrGGrrGGG" name="2+6" detectors="2 2 2 2 3 3 2 0 0"/>
    <tlsState time="186.00" id="2881" programID="NEMA" phase="1" state="srrrrGGrrGGG" name="2+6" detectors="2 2 1 2 3 3 2 0 0"/>
    <tlsState time="187.00" id="2881" programID="NEMA" phase="1" state="srrrrGGrrGGG" name="2+6" detectors="2 2 2 2 3 3 2 0 0"/>
    <tlsState time="188.00" id="2881" programID="NEMA" phase="1" state="srrrrGGrrGGG" name="2+6" detectors="2 2 2 2 3 3 2 1 0"/>
    <tlsState time="189.00" id="2881" programID="NEMA" phase="1" state="srrrrGGrrGGG" name="2+6" detectors="2 2 1 2 3 3 2 0 0"/>
    <tlsState time="190.00" id="2881" programID="NEMA" phase="1" state="srrrrGGrrGGG" name="2+6" detectors="2 2 2 2 3 3 2 0 0"/>
    <tlsState time="191.00" id="2881" programID="NEMA" phase="1" state="srrrrGGrrGGG" name="2+6" detectors="2 2 1 2 3 3 2 0 0"/>
    <tlsState time="192.00" id="2881" programID="NEMA" phase="1" state="srrrrGGrrGGG" name="2+6" detectors="2 2 2 1 3 3 2 0 0"/>
    <tlsState time="193.00" id="2881" programID="NEMA" phase="1" state="srrrrGGrrGGG" name="2+6" detectors="2 2 1 1 3 3 2 0 0"/>
    <tlsState time="194.00" id="2881" programID="NEMA" phase="1" state="srrrrGGrrGGG" name="2+6" detectors="2 2 2 1 3 3 2 0 0"/>
    <tlsState time="195.00" id="2881" programID="NEMA" phase="1" state="srrrrGGrrGGG" name="2+6" detectors="2 2 2 2 3 3 2 0 1"/>
    <tlsState time="196.00" id="2881" programID="NEMA" phase="1" state="srrrrGGrrGGG" name="2+6" detectors="2 2 2 2 3 3 2 0 0"/>
    <tlsState time="197.00" id="2881" programID="NEMA" phase="1" state="srrrrGGrrGGG" name="2+6" detectors="2 2 3 2 3 3 2 0 0"/>
    <tlsState time="198.00" id="2881" programID="NEMA" phase="1" state="srrrrGGrrGGG" name="2+6" detectors="2 2 2 1 3 3 2 0 0"/>
    <tlsState time="199.00" id="2881" programID="NEMA" phase="1" state="srrrrGGrrGGG" name="2+6" detectors="2 2 2 1 2 3 2 0 0"/>
    <tlsState time="200.00" id="2881" programID="NEMA" phase="1" state="srrrrGGrrGGG" name="2+6" detectors="2 2 1 0 2 3 2 0 0"/>
    <tlsState time="201.00" id="2881" programID="NEMA" phase="1" state="srrrrGGrrGGG" name="2+6" detectors="2 2 2 0 3 3 2 0 0"/>
    <tlsState time="202.00" id="2881" programID="NEMA" phase="1" state="srrrrGGrrGGG" name="2+6" detectors="2 2 1 0 3 3 2 0 0"/>
    <tlsState time="203.00" id="2881" programID="NEMA" phase="1" state="srrrrGGrrGGG" name="2+6" detectors="2 2 2 0 3 3 2 0 0"/>
    <tlsState time="204.00" id="2881" programID="NEMA" phase="1" state="srrrrGGrrGGG" name="2+6" detectors="2 2 1 1 3 3 2 0 0"/>
    <tlsState time="205.00" id="2881" programID="NEMA" phase="1" state="srrrrGGrrGGG" name="2+6" detectors="2 2 1 1 3 3 2 0 0"/>
    <tlsState time="206.00" id="2881" programID="NEMA" phase="1" state="srrrrGGrrGGG" name="2+6" detectors="2 2 2 1 3 3 2 1 0"/>
    <tlsState time="207.00" id="2881" programID="NEMA" phase="1" state="srrrrGGrrGGG" name="2+6" detectors="2 2 1 0 3 3 2 0 0"/>
    <tlsState time="208.00" id="2881" programID="NEMA" phase="1" state="srrrrGGrrGGG" name="2+6" detectors="2 2 2 0 3 3 2 0 1"/>
    <tlsState time="209.00" id="2881" programID="NEMA" phase="1" state="srrrrGGrrGGG" name="2+6" detectors="2 2 1 1 3 3 2 1 0"/>
    <tlsState time="210.00" id="2881" programID="NEMA" phase="1" state="srrrrGGrrGGG" name="2+6" detectors="2 2 1 0 3 3 2 1 0"/>
    <tlsState time="211.00" id="2881" programID="NEMA" phase="1" state="srrrrGGrrGGG" name="2+6" detectors="2 2 1 0 3 3 2 0 0"/>
    <tlsState time="212.00" id="2881" programID="NEMA" phase="1" state="srrrrGGrrGGG" name="2+6" detectors="2 2 0 0 3 3 2 0 0"/>
    <tlsState time="213.00" id="2881" programID="NEMA" phase="1" state="srrrrGGrrGGG" name="2+6" detectors="2 2 1 1 3 3 2 0 0"/>
    <tlsState time="214.00" id="2881" programID="NEMA" phase="1" state="srrrrGGrrGGG" name="2+6" detectors="2 2 1 1 3 3 2 0 0"/>
    <tlsState time="215.00" id="2881" programID="NEMA" phase="1" state="srrrrGGrrGGG" name="2+6" detectors="2 2 0 1 3 3 2 0 0"/>
    <tlsState time="216.00" id="2881" programID="NEMA" phase="1" state="srrrrGGrrGGG" name="2+6" detectors="2 2 0 1 3 3 2 0 0"/>
    <tlsState time="217.00" id="2881" programID="NEMA" phase="1" state="srrrrGGrrGGG" name="2+6" detectors="2 2 0 1 3 3 2 1 1"/>
    <tlsState time="218.00" id="2881" programID="NEMA" phase="1" state="srrrrGGrrGGG" name="2+6" detectors="2 2 0 0 3 3 2 1 1"/>
    <tlsState time="219.00" id="2881" programID="NEMA" phase="1" state="srrrrGGrrGGG" name="2+6" detectors="2 2 0 0 3 3 2 0 0"/>