<?xml version="1.0" encoding="UTF-8"?>

<!-- generated on 2022-12-04 10:23:54 by Eclipse SUMO sumo Version v1_15_0+0749-de9f6f8
This data file and the accompanying materials
are made available under the terms of the Eclipse Public License v2.0
which accompanies this distribution, and is available at
http://www.eclipse.org/legal/epl-v20.html
This file may also be made available under the following Secondary
Licenses when the conditions for such availability set forth in the Eclipse
Public License 2.0 are satisfied: GNU General Public License, version 2
or later which is available at
https://www.gnu.org/licenses/old-licenses/gpl-2.0-standalone.html
SPDX-License-Identifier: EPL-2.0 OR GPL-2.0-or-later
<configuration xmlns:xsi="http://www.w3.org/2001/XMLSchema-instance" xsi:noNamespaceSchemaLocation="http://sumo.dlr.de/xsd/sumoConfiguration.xsd">

    <input>
        <net-file value="net.net.xml"/>
        <route-files value="input_routes.rou.xml"/>
        <additional-files value="input_additional.add.xml,input_additional2.add.xml"/>
    </input>

    <output>
        <write-license value="true"/>
    </output>

    <processing>
        <default.speeddev value="0"/>
    </processing>

    <report>
        <xml-validation value="never"/>
        <duration-log.statistics value="true"/>
        <no-step-log value="true"/>
    </report>

</configuration>
-->

<tlsSwitches xmlns:xsi="http://www.w3.org/2001/XMLSchema-instance" xsi:noNamespaceSchemaLocation="http://sumo.dlr.de/xsd/tlsswitches_file.xsd">
   <tlsSwitch id="2881" programID="NEMA" fromLane="-905_0" toLane="16480_0" begin="0.00" end="10.00" duration="10.00"/>
   <tlsSwitch id="2881" programID="NEMA" fromLane="-905_0" toLane="-16037_0" begin="0.00" end="10.00" duration="10.00"/>
   <tlsSwitch id="2881" programID="NEMA" fromLane="-905_1" toLane="-16037_1" begin="0.00" end="10.00" duration="10.00"/>
   <tlsSwitch id="2881" programID="NEMA" fromLane="-905_1" toLane="-17276_0" begin="0.00" end="10.00" duration="10.00"/>
   <tlsSwitch id="2881" programID="NEMA" fromLane="-905_2" toLane="-17276_1" begin="0.00" end="10.00" duration="10.00"/>
   <tlsSwitch id="2881" programID="NEMA" fromLane="17276_2" toLane="-16037_0" begin="16.00" end="22.00" duration="6.00"/>
   <tlsSwitch id="2881" programID="NEMA" fromLane="17276_3" toLane="-16037_1" begin="16.00" end="22.00" duration="6.00"/>
   <tlsSwitch id="2881" programID="NEMA" fromLane="17276_0" toLane="16480_0" begin="16.00" end="125.00" duration="109.00"/>
   <tlsSwitch id="2881" programID="NEMA" fromLane="17276_1" toLane="16480_1" begin="16.00" end="125.00" duration="109.00"/>
   <tlsSwitch id="2881" programID="NEMA" fromLane="-16480_0" toLane="-16037_0" begin="27.00" end="125.00" duration="98.00"/>
   <tlsSwitch id="2881" programID="NEMA" fromLane="-16480_0" toLane="-17276_0" begin="27.00" end="125.00" duration="98.00"/>
   <tlsSwitch id="2881" programID="NEMA" fromLane="-16480_1" toLane="-17276_1" begin="27.00" end="125.00" duration="98.00"/>
   <tlsSwitch id="2881" programID="NEMA" fromLane="-905_0" toLane="16480_0" begin="130.00" end="151.00" duration="21.00"/>
   <tlsSwitch id="2881" programID="NEMA" fromLane="-905_0" toLane="-16037_0" begin="130.00" end="151.00" duration="21.00"/>
   <tlsSwitch id="2881" programID="NEMA" fromLane="-905_1" toLane="-16037_1" begin="130.00" end="151.00" duration="21.00"/>
   <tlsSwitch id="2881" programID="NEMA" fromLane="-905_1" toLane="-17276_0" begin="130.00" end="151.00" duration="21.00"/>
   <tlsSwitch id="2881" programID="NEMA" fromLane="-905_2" toLane="-17276_1" begin="130.00" end="151.00" duration="21.00"/>
   <tlsSwitch id="2881" programID="NEMA" fromLane="17276_2" toLane="-16037_0" begin="157.00" end="173.00" duration="16.00"/>
   <tlsSwitch id="2881" programID="NEMA" fromLane="17276_3" toLane="-16037_1" begin="157.00" end="173.00" duration="16.00"/>
   <tlsSwitch id="2881" programID="NEMA" fromLane="17276_0" toLane="16480_0" begin="157.00" end="245.00" duration="88.00"/>
   <tlsSwitch id="2881" programID="NEMA" fromLane="17276_1" toLane="16480_1" begin="157.00" end="245.00" duration="88.00"/>
   <tlsSwitch id="2881" programID="NEMA" fromLane="-16480_0" toLane="-16037_0" begin="178.00" end="245.00" duration="67.00"/>
   <tlsSwitch id="2881" programID="NEMA" fromLane="-16480_0" toLane="-17276_0" begin="178.00" end="245.00" duration="67.00"/>
   <tlsSwitch id="2881" programID="NEMA" fromLane="-16480_1" toLane="-17276_1" begin="178.00" end="245.00" duration="67.00"/>
   <tlsSwitch id="2881" programID="NEMA" fromLane="-905_0" toLane="16480_0" begin="250.00" end="271.00" duration="21.00"/>
   <tlsSwitch id="2881" programID="NEMA" fromLane="-905_0" toLane="-16037_0" begin="250.00" end="271.00" duration="21.00"/>
   <tlsSwitch id="2881" programID="NEMA" fromLane="-905_1" toLane="-16037_1" begin="250.00" end="271.00" duration="21.00"/>
   <tlsSwitch id="2881" programID="NEMA" fromLane="-905_1" toLane="-17276_0" begin="250.00" end="271.00" duration="21.00"/>
   <tlsSwitch id="2881" programID="NEMA" fromLane="-905_2" toLane="-17276_1" begin="250.00" end="271.00" duration="21.00"/>
   <tlsSwitch id="2881" programID="NEMA" fromLane="17276_2" toLane="-16037_0" begin="277.00" end="293.00" duration="16.00"/>
   <tlsSwitch id="2881" programID="NEMA" fromLane="17276_3" toLane="-16037_1" begin="277.00" end="293.00" duration="16.00"/>
   <tlsSwitch id="2881" programID="NEMA" fromLane="17276_0" toLane="16480_0" begin="277.00" end="365.00" duration="88.00"/>
   <tlsSwitch id="2881" programID="NEMA" fromLane="17276_1" toLane="16480_1" begin="277.00" end="365.00" duration="88.00"/>
   <tlsSwitch id="2881" programID="NEMA" fromLane="-16480_0" toLane="-16037_0" begin="298.00" end="365.00" duration="67.00"/>
   <tlsSwitch id="2881" programID="NEMA" fromLane="-16480_0" toLane="-17276_0" begin="298.00" end="365.00" duration="67.00"/>
   <tlsSwitch id="2881" programID="NEMA" fromLane="-16480_1" toLane="-17276_1" begin="298.00" end="365.00" duration="67.00"/>
   <tlsSwitch id="2881" programID="NEMA" fromLane="-905_0" toLane="16480_0" begin="370.00" end="391.00" duration="21.00"/>
   <tlsSwitch id="2881" programID="NEMA" fromLane="-905_0" toLane="-16037_0" begin="370.00" end="391.00" duration="21.00"/>
   <tlsSwitch id="2881" programID="NEMA" fromLane="-905_1" toLane="-16037_1" begin="370.00" end="391.00" duration="21.00"/>
   <tlsSwitch id="2881" programID="NEMA" fromLane="-905_1" toLane="-17276_0" begin="370.00" end="391.00" duration="21.00"/>
   <tlsSwitch id="2881" programID="NEMA" fromLane="-905_2" toLane="-17276_1" begin="370.00" end="391.00" duration="21.00"/>
   <tlsSwitch id="2881" programID="NEMA" fromLane="17276_2" toLane="-16037_0" begin="397.00" end="413.00" duration="16.00"/>
   <tlsSwitch id="2881" programID="NEMA" fromLane="17276_3" toLane="-16037_1" begin="397.00" end="413.00" duration="16.00"/>
   <tlsSwitch id="2881" programID="NEMA" fromLane="17276_0" toLane="16480_0" begin="397.00" end="485.00" duration="88.00"/>
   <tlsSwitch id="2881" programID="NEMA" fromLane="17276_1" toLane="16480_1" begin="397.00" end="485.00" duration="88.00"/>
   <tlsSwitch id="2881" programID="NEMA" fromLane="-16480_0" toLane="-16037_0" begin="418.00" end="485.00" duration="67.00"/>
   <tlsSwitch id="2881" programID="NEMA" fromLane="-16480_0" toLane="-17276_0" begin="418.00" end="485.00" duration="67.00"/>
   <tlsSwitch id="2881" programID="NEMA" fromLane="-16480_1" toLane="-17276_1" begin="418.00" end="485.00" duration="67.00"/>
   <tlsSwitch id="2881" programID="NEMA" fromLane="-905_0" toLane="16480_0" begin="490.00" end="511.00" duration="21.00"/>
   <tlsSwitch id="2881" programID="NEMA" fromLane="-905_0" toLane="-16037_0" begin="490.00" end="511.00" duration="21.00"/>
   <tlsSwitch id="2881" programID="NEMA" fromLane="-905_1" toLane="-16037_1" begin="490.00" end="511.00" duration="21.00"/>
   <tlsSwitch id="2881" programID="NEMA" fromLane="-905_1" toLane="-17276_0" begin="490.00" end="511.00" duration="21.00"/>
   <tlsSwitch id="2881" programID="NEMA" fromLane="-905_2" toLane="-17276_1" begin="490.00" end="511.00" duration="21.00"/>
   <tlsSwitch id="2881" programID="NEMA" fromLane="17276_2" toLane="-16037_0" begin="517.00" end="533.00" duration="16.00"/>
   <tlsSwitch id="2881" programID="NEMA" fromLane="17276_3" toLane="-16037_1" begin="517.00" end="533.00" duration="16.00"/>
   <tlsSwitch id="2881" programID="NEMA" fromLane="17276_0" toLane="16480_0" begin="517.00" end="605.00" duration="88.00"/>
   <tlsSwitch id="2881" programID="NEMA" fromLane="17276_1" toLane="16480_1" begin="517.00" end="605.00" duration="88.00"/>
   <tlsSwitch id="2881" programID="NEMA" fromLane="-16480_0" toLane="-16037_0" begin="538.00" end="605.00" duration="67.00"/>
   <tlsSwitch id="2881" programID="NEMA" fromLane="-16480_0" toLane="-17276_0" begin="538.00" end="605.00" duration="67.00"/>
   <tlsSwitch id="2881" programID="NEMA" fromLane="-16480_1" toLane="-17276_1" begin="538.00" end="605.00" duration="67.00"/>
   <tlsSwitch id="2881" programID="NEMA" fromLane="-905_0" toLane="16480_0" begin="610.00" end="631.00" duration="21.00"/>
   <tlsSwitch id="2881" programID="NEMA" fromLane="-905_0" toLane="-16037_0" begin="610.00" end="631.00" duration="21.00"/>
   <tlsSwitch id="2881" programID="NEMA" fromLane="-905_1" toLane="-16037_1" begin="610.00" end="631.00" duration="21.00"/>
   <tlsSwitch id="2881" programID="NEMA" fromLane="-905_1" toLane="-17276_0" begin="610.00" end="631.00" duration="21.00"/>
   <tlsSwitch id="2881" programID="NEMA" fromLane="-905_2" toLane="-17276_1" begin="610.00" end="631.00" duration="21.00"/>
   <tlsSwitch id="2881" programID="NEMA" fromLane="17276_2" toLane="-16037_0" begin="637.00" end="653.00" duration="16.00"/>
   <tlsSwitch id="2881" programID="NEMA" fromLane="17276_3" toLane="-16037_1" begin="637.00" end="653.00" duration="16.00"/>
   <tlsSwitch id="2881" programID="NEMA" fromLane="17276_0" toLane="16480_0" begin="637.00" end="725.00" duration="88.00"/>
   <tlsSwitch id="2881" programID="NEMA" fromLane="17276_1" toLane="16480_1" begin="637.00" end="725.00" duration="88.00"/>
   <tlsSwitch id="2881" programID="NEMA" fromLane="-16480_0" toLane="-16037_0" begin="658.00" end="725.00" duration="67.00"/>
   <tlsSwitch id="2881" programID="NEMA" fromLane="-16480_0" toLane="-17276_0" begin="658.00" end="725.00" duration="67.00"/>
   <tlsSwitch id="2881" programID="NEMA" fromLane="-16480_1" toLane="-17276_1" begin="658.00" end="725.00" duration="67.00"/>
   <tlsSwitch id="2881" programID="NEMA" fromLane="-905_0" toLane="16480_0" begin="730.00" end="751.00" duration="21.00"/>
   <tlsSwitch id="2881" programID="NEMA" fromLane="-905_0" toLane="-16037_0" begin="730.00" end="751.00" duration="21.00"/>
   <tlsSwitch id="2881" programID="NEMA" fromLane="-905_1" toLane="-16037_1" begin="730.00" end="751.00" duration="21.00"/>
   <tlsSwitch id="2881" programID="NEMA" fromLane="-905_1" toLane="-17276_0" begin="730.00" end="751.00" duration="21.00"/>
   <tlsSwitch id="2881" programID="NEMA" fromLane="-905_2" toLane="-17276_1" begin="730.00" end="751.00" duration="21.00"/>
   <tlsSwitch id="2881" programID="NEMA" fromLane="17276_2" toLane="-16037_0" begin="757.00" end="773.00" duration="16.00"/>
   <tlsSwitch id="2881" programID="NEMA" fromLane="17276_3" toLane="-16037_1" begin="757.00" end="773.00" duration="16.00"/>
   <tlsSwitch id="2881" programID="NEMA" fromLane="17276_0" toLane="16480_0" begin="757.00" end="845.00" duration="88.00"/>
   <tlsSwitch id="2881" programID="NEMA" fromLane="17276_1" toLane="16480_1" begin="757.00" end="845.00" duration="88.00"/>
   <tlsSwitch id="2881" programID="NEMA" fromLane="-16480_0" toLane="-16037_0" begin="778.00" end="845.00" duration="67.00"/>
   <tlsSwitch id="2881" programID="NEMA" fromLane="-16480_0" toLane="-17276_0" begin="778.00" end="845.00" duration="67.00"/>
   <tlsSwitch id="2881" programID="NEMA" fromLane="-16480_1" toLane="-17276_1" begin="778.00" end="845.00" duration="67.00"/>
   <tlsSwitch id="2881" programID="NEMA" fromLane="-905_0" toLane="16480_0" begin="850.00" end="871.00" duration="21.00"/>
   <tlsSwitch id="2881" programID="NEMA" fromLane="-905_0" toLane="-16037_0" begin="850.00" end="871.00" duration="21.00"/>
   <tlsSwitch id="2881" programID="NEMA" fromLane="-905_1" toLane="-16037_1" begin="850.00" end="871.00" duration="21.00"/>
   <tlsSwitch id="2881" programID="NEMA" fromLane="-905_1" toLane="-17276_0" begin="850.00" end="871.00" duration="21.00"/>
   <tlsSwitch id="2881" programID="NEMA" fromLane="-905_2" toLane="-17276_1" begin="850.00" end="871.00" duration="21.00"/>
   <tlsSwitch id="2881" programID="NEMA" fromLane="17276_2" toLane="-16037_0" begin="877.00" end="893.00" duration="16.00"/>
   <tlsSwitch id="2881" programID="NEMA" fromLane="17276_3" toLane="-16037_1" begin="877.00" end="893.00" duration="16.00"/>
   <tlsSwitch id="2881" programID="NEMA" fromLane="17276_0" toLane="16480_0" begin="877.00" end="965.00" duration="88.00"/>
   <tlsSwitch id="2881" programID="NEMA" fromLane="17276_1" toLane="16480_1" begin="877.00" end="965.00" duration="88.00"/>
   <tlsSwitch id="2881" programID="NEMA" fromLane="-16480_0" toLane="-16037_0" begin="898.00" end="965.00" duration="67.00"/>
   <tlsSwitch id="2881" programID="NEMA" fromLane="-16480_0" toLane="-17276_0" begin="898.00" end="965.00" duration="67.00"/>
   <tlsSwitch id="2881" programID="NEMA" fromLane="-16480_1" toLane="-17276_1" begin="898.00" end="965.00" duration="67.00"/>
   <tlsSwitch id="2881" programID="NEMA" fromLane="-905_0" toLane="16480_0" begin="970.00" end="991.00" duration="21.00"/>
   <tlsSwitch id="2881" programID="NEMA" fromLane="-905_0" toLane="-16037_0" begin="970.00" end="991.00" duration="21.00"/>
   <tlsSwitch id="2881" programID="NEMA" fromLane="-905_1" toLane="-16037_1" begin="970.00" end="991.00" duration="21.00"/>
   <tlsSwitch id="2881" programID="NEMA" fromLane="-905_1" toLane="-17276_0" begin="970.00" end="991.00" duration="21.00"/>
   <tlsSwitch id="2881" programID="NEMA" fromLane="-905_2" toLane="-17276_1" begin="970.00" end="991.00" duration="21.00"/>
   <tlsSwitch id="2881" programID="NEMA" fromLane="17276_2" toLane="-16037_0" begin="997.00" end="1013.00" duration="16.00"/>
   <tlsSwitch id="2881" programID="NEMA" fromLane="17276_3" toLane="-16037_1" begin="997.00" end="1013.00" duration="16.00"/>
   <tlsSwitch id="2881" programID="NEMA" fromLane="17276_0" toLane="16480_0" begin="997.00" end="1085.00" duration="88.00"/>
   <tlsSwitch id="2881" programID="NEMA" fromLane="17276_1" toLane="16480_1" begin="997.00" end="1085.00" duration="88.00"/>
   <tlsSwitch id="2881" programID="NEMA" fromLane="-16480_0" toLane="-16037_0" begin="1018.00" end="1085.00" duration="67.00"/>
   <tlsSwitch id="2881" programID="NEMA" fromLane="-16480_0" toLane="-17276_0" begin="1018.00" end="1085.00" duration="67.00"/>
   <tlsSwitch id="2881" programID="NEMA" fromLane="-16480_1" toLane="-17276_1" begin="1018.00" end="1085.00" duration="67.00"/>
   <tlsSwitch id="2881" programID="NEMA" fromLane="-905_0" toLane="16480_0" begin="1090.00" end="1111.00" duration="21.00"/>
   <tlsSwitch id="2881" programID="NEMA" fromLane="-905_0" toLane="-16037_0" begin="1090.00" end="1111.00" duration="21.00"/>
   <tlsSwitch id="2881" programID="NEMA" fromLane="-905_1" toLane="-16037_1" begin="1090.00" end="1111.00" duration="21.00"/>
   <tlsSwitch id="2881" programID="NEMA" fromLane="-905_1" toLane="-17276_0" begin="1090.00" end="1111.00" duration="21.00"/>
   <tlsSwitch id="2881" programID="NEMA" fromLane="-905_2" toLane="-17276_1" begin="1090.00" end="1111.00" duration="21.00"/>
   <tlsSwitch id="2881" programID="NEMA" fromLane="17276_2" toLane="-16037_0" begin="1117.00" end="1132.00" duration="15.00"/>
   <tlsSwitch id="2881" programID="NEMA" fromLane="17276_3" toLane="-16037_1" begin="1117.00" end="1132.00" duration="15.00"/>
   <tlsSwitch id="2881" programID="NEMA" fromLane="17276_0" toLane="16480_0" begin="1117.00" end="1205.00" duration="88.00"/>
   <tlsSwitch id="2881" programID="NEMA" fromLane="17276_1" toLane="16480_1" begin="1117.00" end="1205.00" duration="88.00"/>
   <tlsSwitch id="2881" programID="NEMA" fromLane="-16480_0" toLane="-16037_0" begin="1137.00" end="1205.00" duration="68.00"/>
   <tlsSwitch id="2881" programID="NEMA" fromLane="-16480_0" toLane="-17276_0" begin="1137.00" end="1205.00" duration="68.00"/>
   <tlsSwitch id="2881" programID="NEMA" fromLane="-16480_1" toLane="-17276_1" begin="1137.00" end="1205.00" duration="68.00"/>
   <tlsSwitch id="2881" programID="NEMA" fromLane="-905_0" toLane="16480_0" begin="1210.00" end="1231.00" duration="21.00"/>
   <tlsSwitch id="2881" programID="NEMA" fromLane="-905_0" toLane="-16037_0" begin="1210.00" end="1231.00" duration="21.00"/>
   <tlsSwitch id="2881" programID="NEMA" fromLane="-905_1" toLane="-16037_1" begin="1210.00" end="1231.00" duration="21.00"/>
   <tlsSwitch id="2881" programID="NEMA" fromLane="-905_1" toLane="-17276_0" begin="1210.00" end="1231.00" duration="21.00"/>
   <tlsSwitch id="2881" programID="NEMA" fromLane="-905_2" toLane="-17276_1" begin="1210.00" end="1231.00" duration="21.00"/>
   <tlsSwitch id="2881" programID="NEMA" fromLane="17276_2" toLane="-16037_0" begin="1237.00" end="1250.00" duration="13.00"/>
   <tlsSwitch id="2881" programID="NEMA" fromLane="17276_3" toLane="-16037_1" begin="1237.00" end="1250.00" duration="13.00"/>
   <tlsSwitch id="2881" programID="NEMA" fromLane="17276_0" toLane="16480_0" begin="1237.00" end="1325.00" duration="88.00"/>
   <tlsSwitch id="2881" programID="NEMA" fromLane="17276_1" toLane="16480_1" begin="1237.00" end="1325.00" duration="88.00"/>
   <tlsSwitch id="2881" programID="NEMA" fromLane="-16480_0" toLane="-16037_0" begin="1255.00" end="1325.00" duration="70.00"/>
   <tlsSwitch id="2881" programID="NEMA" fromLane="-16480_0" toLane="-17276_0" begin="1255.00" end="1325.00" duration="70.00"/>
   <tlsSwitch id="2881" programID="NEMA" fromLane="-16480_1" toLane="-17276_1" begin="1255.00" end="1325.00" duration="70.00"/>
   <tlsSwitch id="2881" programID="NEMA" fromLane="-905_0" toLane="16480_0" begin="1330.00" end="1351.00" duration="21.00"/>
   <tlsSwitch id="2881" programID="NEMA" fromLane="-905_0" toLane="-16037_0" begin="1330.00" end="1351.00" duration="21.00"/>
   <tlsSwitch id="2881" programID="NEMA" fromLane="-905_1" toLane="-16037_1" begin="1330.00" end="1351.00" duration="21.00"/>
   <tlsSwitch id="2881" programID="NEMA" fromLane="-905_1" toLane="-17276_0" begin="1330.00" end="1351.00" duration="21.00"/>
   <tlsSwitch id="2881" programID="NEMA" fromLane="-905_2" toLane="-17276_1" begin="1330.00" end="1351.00" duration="21.00"/>
   <tlsSwitch id="2881" programID="NEMA" fromLane="17276_2" toLane="-16037_0" begin="1357.00" end="1368.00" duration="11.00"/>
   <tlsSwitch id="2881" programID="NEMA" fromLane="17276_3" toLane="-16037_1" begin="1357.00" end="1368.00" duration="11.00"/>
   <tlsSwitch id="2881" programID="NEMA" fromLane="17276_0" toLane="16480_0" begin="1357.00" end="1445.00" duration="88.00"/>
   <tlsSwitch id="2881" programID="NEMA" fromLane="17276_1" toLane="16480_1" begin="1357.00" end="1445.00" duration="88.00"/>
   <tlsSwitch id="2881" programID="NEMA" fromLane="-16480_0" toLane="-16037_0" begin="1373.00" end="1445.00" duration="72.00"/>
   <tlsSwitch id="2881" programID="NEMA" fromLane="-16480_0" toLane="-17276_0" begin="1373.00" end="1445.00" duration="72.00"/>
   <tlsSwitch id="2881" programID="NEMA" fromLane="-16480_1" toLane="-17276_1" begin="1373.00" end="1445.00" duration="72.00"/>
   <tlsSwitch id="2881" programID="NEMA" fromLane="-905_0" toLane="16480_0" begin="1450.00" end="1471.00" duration="21.00"/>
   <tlsSwitch id="2881" programID="NEMA" fromLane="-905_0" toLane="-16037_0" begin="1450.00" end="1471.00" duration="21.00"/>
   <tlsSwitch id="2881" programID="NEMA" fromLane="-905_1" toLane="-16037_1" begin="1450.00" end="1471.00" duration="21.00"/>
   <tlsSwitch id="2881" programID="NEMA" fromLane="-905_1" toLane="-17276_0" begin="1450.00" end="1471.00" duration="21.00"/>
   <tlsSwitch id="2881" programID="NEMA" fromLane="-905_2" toLane="-17276_1" begin="1450.00" end="1471.00" duration="21.00"/>
   <tlsSwitch id="2881" programID="NEMA" fromLane="17276_2" toLane="-16037_0" begin="1477.00" end="1493.00" duration="16.00"/>
   <tlsSwitch id="2881" programID="NEMA" fromLane="17276_3" toLane="-16037_1" begin="1477.00" end="1493.00" duration="16.00"/>
   <tlsSwitch id="2881" programID="NEMA" fromLane="17276_0" toLane="16480_0" begin="1477.00" end="1565.00" duration="88.00"/>
   <tlsSwitch id="2881" programID="NEMA" fromLane="17276_1" toLane="16480_1" begin="1477.00" end="1565.00" duration="88.00"/>
   <tlsSwitch id="2881" programID="NEMA" fromLane="-16480_0" toLane="-16037_0" begin="1498.00" end="1565.00" duration="67.00"/>
   <tlsSwitch id="2881" programID="NEMA" fromLane="-16480_0" toLane="-17276_0" begin="1498.00" end="1565.00" duration="67.00"/>
   <tlsSwitch id="2881" programID="NEMA" fromLane="-16480_1" toLane="-17276_1" begin="1498.00" end="1565.00" duration="67.00"/>
   <tlsSwitch id="2881" programID="NEMA" fromLane="-905_0" toLane="16480_0" begin="1570.00" end="1591.00" duration="21.00"/>
   <tlsSwitch id="2881" programID="NEMA" fromLane="-905_0" toLane="-16037_0" begin="1570.00" end="1591.00" duration="21.00"/>
   <tlsSwitch id="2881" programID="NEMA" fromLane="-905_1" toLane="-16037_1" begin="1570.00" end="1591.00" duration="21.00"/>
   <tlsSwitch id="2881" programID="NEMA" fromLane="-905_1" toLane="-17276_0" begin="1570.00" end="1591.00" duration="21.00"/>
   <tlsSwitch id="2881" programID="NEMA" fromLane="-905_2" toLane="-17276_1" begin="1570.00" end="1591.00" duration="21.00"/>
   <tlsSwitch id="2881" programID="NEMA" fromLane="17276_2" toLane="-16037_0" begin="1597.00" end="1610.00" duration="13.00"/>
   <tlsSwitch id="2881" programID="NEMA" fromLane="17276_3" toLane="-16037_1" begin="1597.00" end="1610.00" duration="13.00"/>
   <tlsSwitch id="2881" programID="NEMA" fromLane="17276_0" toLane="16480_0" begin="1597.00" end="1685.00" duration="88.00"/>
   <tlsSwitch id="2881" programID="NEMA" fromLane="17276_1" toLane="16480_1" begin="1597.00" end="1685.00" duration="88.00"/>
   <tlsSwitch id="2881" programID="NEMA" fromLane="-16480_0" toLane="-16037_0" begin="1615.00" end="1685.00" duration="70.00"/>
   <tlsSwitch id="2881" programID="NEMA" fromLane="-16480_0" toLane="-17276_0" begin="1615.00" end="1685.00" duration="70.00"/>
   <tlsSwitch id="2881" programID="NEMA" fromLane="-16480_1" toLane="-17276_1" begin="1615.00" end="1685.00" duration="70.00"/>
   <tlsSwitch id="2881" programID="NEMA" fromLane="-905_0" toLane="16480_0" begin="1690.00" end="1711.00" duration="21.00"/>
   <tlsSwitch id="2881" programID="NEMA" fromLane="-905_0" toLane="-16037_0" begin="1690.00" end="1711.00" duration="21.00"/>
   <tlsSwitch id="2881" programID="NEMA" fromLane="-905_1" toLane="-16037_1" begin="1690.00" end="1711.00" duration="21.00"/>
   <tlsSwitch id="2881" programID="NEMA" fromLane="-905_1" toLane="-17276_0" begin="1690.00" end="1711.00" duration="21.00"/>
   <tlsSwitch id="2881" programID="NEMA" fromLane="-905_2" toLane="-17276_1" begin="1690.00" end="1711.00" duration="21.00"/>
   <tlsSwitch id="2881" programID="NEMA" fromLane="17276_2" toLane="-16037_0" begin="1717.00" end="1733.00" duration="16.00"/>
   <tlsSwitch id="2881" programID="NEMA" fromLane="17276_3" toLane="-16037_1" begin="1717.00" end="1733.00" duration="16.00"/>
   <tlsSwitch id="2881" programID="NEMA" fromLane="17276_0" toLane="16480_0" begin="1717.00" end="1805.00" duration="88.00"/>
   <tlsSwitch id="2881" programID="NEMA" fromLane="17276_1" toLane="16480_1" begin="1717.00" end="1805.00" duration="88.00"/>
   <tlsSwitch id="2881" programID="NEMA" fromLane="-16480_0" toLane="-16037_0" begin="1738.00" end="1805.00" duration="67.00"/>
   <tlsSwitch id="2881" programID="NEMA" fromLane="-16480_0" toLane="-17276_0" begin="1738.00" end="1805.00" duration="67.00"/>
   <tlsSwitch id="2881" programID="NEMA" fromLane="-16480_1" toLane="-17276_1" begin="1738.00" end="1805.00" duration="67.00"/>
   <tlsSwitch id="2881" programID="NEMA" fromLane="-905_0" toLane="16480_0" begin="1810.00" end="1831.00" duration="21.00"/>
   <tlsSwitch id="2881" programID="NEMA" fromLane="-905_0" toLane="-16037_0" begin="1810.00" end="1831.00" duration="21.00"/>
   <tlsSwitch id="2881" programID="NEMA" fromLane="-905_1" toLane="-16037_1" begin="1810.00" end="1831.00" duration="21.00"/>
   <tlsSwitch id="2881" programID="NEMA" fromLane="-905_1" toLane="-17276_0" begin="1810.00" end="1831.00" duration="21.00"/>
   <tlsSwitch id="2881" programID="NEMA" fromLane="-905_2" toLane="-17276_1" begin="1810.00" end="1831.00" duration="21.00"/>
   <tlsSwitch id="2881" programID="NEMA" fromLane="17276_2" toLane="-16037_0" begin="1837.00" end="1853.00" duration="16.00"/>
   <tlsSwitch id="2881" programID="NEMA" fromLane="17276_3" toLane="-16037_1" begin="1837.00" end="1853.00" duration="16.00"/>
   <tlsSwitch id="2881" programID="NEMA" fromLane="17276_0" toLane="16480_0" begin="1837.00" end="1925.00" duration="88.00"/>
   <tlsSwitch id="2881" programID="NEMA" fromLane="17276_1" toLane="16480_1" begin="1837.00" end="1925.00" duration="88.00"/>
   <tlsSwitch id="2881" programID="NEMA" fromLane="-16480_0" toLane="-16037_0" begin="1858.00" end="1925.00" duration="67.00"/>
   <tlsSwitch id="2881" programID="NEMA" fromLane="-16480_0" toLane="-17276_0" begin="1858.00" end="1925.00" duration="67.00"/>
   <tlsSwitch id="2881" programID="NEMA" fromLane="-16480_1" toLane="-17276_1" begin="1858.00" end="1925.00" duration="67.00"/>
   <tlsSwitch id="2881" programID="NEMA" fromLane="-905_0" toLane="16480_0" begin="1930.00" end="1951.00" duration="21.00"/>
   <tlsSwitch id="2881" programID="NEMA" fromLane="-905_0" toLane="-16037_0" begin="1930.00" end="1951.00" duration="21.00"/>
   <tlsSwitch id="2881" programID="NEMA" fromLane="-905_1" toLane="-16037_1" begin="1930.00" end="1951.00" duration="21.00"/>
   <tlsSwitch id="2881" programID="NEMA" fromLane="-905_1" toLane="-17276_0" begin="1930.00" end="1951.00" duration="21.00"/>
   <tlsSwitch id="2881" programID="NEMA" fromLane="-905_2" toLane="-17276_1" begin="1930.00" end="1951.00" duration="21.00"/>
   <tlsSwitch id="2881" programID="NEMA" fromLane="17276_2" toLane="-16037_0" begin="1957.00" end="1973.00" duration="16.00"/>
   <tlsSwitch id="2881" programID="NEMA" fromLane="17276_3" toLane="-16037_1" begin="1957.00" end="1973.00" duration="16.00"/>
   <tlsSwitch id="2881" programID="NEMA" fromLane="17276_0" toLane="16480_0" begin="1957.00" end="2045.00" duration="88.00"/>
   <tlsSwitch id="2881" programID="NEMA" fromLane="17276_1" toLane="16480_1" begin="1957.00" end="2045.00" duration="88.00"/>
   <tlsSwitch id="2881" programID="NEMA" fromLane="-16480_0" toLane="-16037_0" begin="1978.00" end="2045.00" duration="67.00"/>
   <tlsSwitch id="2881" programID="NEMA" fromLane="-16480_0" toLane="-17276_0" begin="1978.00" end="2045.00" duration="67.00"/>
   <tlsSwitch id="2881" programID="NEMA" fromLane="-16480_1" toLane="-17276_1" begin="1978.00" end="2045.00" duration="67.00"/>
   <tlsSwitch id="2881" programID="NEMA" fromLane="-905_0" toLane="16480_0" begin="2050.00" end="2071.00" duration="21.00"/>
   <tlsSwitch id="2881" programID="NEMA" fromLane="-905_0" toLane="-16037_0" begin="2050.00" end="2071.00" duration="21.00"/>
   <tlsSwitch id="2881" programID="NEMA" fromLane="-905_1" toLane="-16037_1" begin="2050.00" end="2071.00" duration="21.00"/>
   <tlsSwitch id="2881" programID="NEMA" fromLane="-905_1" toLane="-17276_0" begin="2050.00" end="2071.00" duration="21.00"/>
   <tlsSwitch id="2881" programID="NEMA" fromLane="-905_2" toLane="-17276_1" begin="2050.00" end="2071.00" duration="21.00"/>
   <tlsSwitch id="2881" programID="NEMA" fromLane="17276_2" toLane="-16037_0" begin="2077.00" end="2092.00" duration="15.00"/>
   <tlsSwitch id="2881" programID="NEMA" fromLane="17276_3" toLane="-16037_1" begin="2077.00" end="2092.00" duration="15.00"/>
   <tlsSwitch id="2881" programID="NEMA" fromLane="17276_0" toLane="16480_0" begin="2077.00" end="2165.00" duration="88.00"/>
   <tlsSwitch id="2881" programID="NEMA" fromLane="17276_1" toLane="16480_1" begin="2077.00" end="2165.00" duration="88.00"/>
   <tlsSwitch id="2881" programID="NEMA" fromLane="-16480_0" toLane="-16037_0" begin="2097.00" end="2165.00" duration="68.00"/>
   <tlsSwitch id="2881" programID="NEMA" fromLane="-16480_0" toLane="-17276_0" begin="2097.00" end="2165.00" duration="68.00"/>
   <tlsSwitch id="2881" programID="NEMA" fromLane="-16480_1" toLane="-17276_1" begin="2097.00" end="2165.00" duration="68.00"/>
   <tlsSwitch id="2881" programID="NEMA" fromLane="-905_0" toLane="16480_0" begin="2170.00" end="2191.00" duration="21.00"/>
   <tlsSwitch id="2881" programID="NEMA" fromLane="-905_0" toLane="-16037_0" begin="2170.00" end="2191.00" duration="21.00"/>
   <tlsSwitch id="2881" programID="NEMA" fromLane="-905_1" toLane="-16037_1" begin="2170.00" end="2191.00" duration="21.00"/>
   <tlsSwitch id="2881" programID="NEMA" fromLane="-905_1" toLane="-17276_0" begin="2170.00" end="2191.00" duration="21.00"/>
   <tlsSwitch id="2881" programID="NEMA" fromLane="-905_2" toLane="-17276_1" begin="2170.00" end="2191.00" duration="21.00"/>
   <tlsSwitch id="2881" programID="NEMA" fromLane="17276_2" toLane="-16037_0" begin="2197.00" end="2213.00" duration="16.00"/>
   <tlsSwitch id="2881" programID="NEMA" fromLane="17276_3" toLane="-16037_1" begin="2197.00" end="2213.00" duration="16.00"/>
   <tlsSwitch id="2881" programID="NEMA" fromLane="17276_0" toLane="16480_0" begin="2197.00" end="2285.00" duration="88.00"/>
   <tlsSwitch id="2881" programID="NEMA" fromLane="17276_1" toLane="16480_1" begin="2197.00" end="2285.00" duration="88.00"/>
   <tlsSwitch id="2881" programID="NEMA" fromLane="-16480_0" toLane="-16037_0" begin="2218.00" end="2285.00" duration="67.00"/>