<?xml version="1.0" encoding="UTF-8"?>

<!-- generated on 2026-05-22T10:43:43.907441+01:00 by Eclipse SUMO sumo v1_27_0+0005-36238c9d9a7
This data file and the accompanying materials
are made available under the terms of the Eclipse Public License v2.0
which accompanies this distribution, and is available at
http://www.eclipse.org/legal/epl-v20.html
This file may also be made available under the following Secondary
Licenses when the conditions for such availability set forth in the Eclipse
Public License 2.0 are satisfied: GNU General Public License, version 2
or later which is available at
https://www.gnu.org/licenses/old-licenses/gpl-2.0-standalone.html
SPDX-License-Identifier: EPL-2.0 OR GPL-2.0-or-later
<sumoConfiguration xmlns:xsi="http://www.w3.org/2001/XMLSchema-instance" xsi:noNamespaceSchemaLocation="http://sumo.dlr.de/xsd/sumoConfiguration.xsd">

    <input>
        <net-file value="net.net.xml"/>
        <route-files value="input_routes.rou.xml"/>
        <additional-files value="input_additional.add.xml,input_additional2.add.xml"/>
    </input>

    <output>
        <write-license value="true"/>
    </output>

    <processing>
        <default.departspeed value="0"/>
        <default.departlane value="first"/>
        <default.speeddev value="0"/>
    </processing>

    <report>
        <xml-validation value="never"/>
        <duration-log.statistics value="true"/>
        <no-step-log value="true"/>
    </report>

    <mesoscopic>
        <mesosim value="true"/>
        <meso-junction-control value="true"/>
    </mesoscopic>

</sumoConfiguration>
-->

<tlsSwitches xmlns:xsi="http://www.w3.org/2001/XMLSchema-instance" xsi:noNamespaceSchemaLocation="http://sumo.dlr.de/xsd/tlsswitches_file.xsd">
   <tlsSwitch id="2881" programID="NEMA" fromLane="17276_0" toLane="16480_0" begin="0.00" end="10.00" duration="10.00"/>
   <tlsSwitch id="2881" programID="NEMA" fromLane="17276_1" toLane="16480_1" begin="0.00" end="10.00" duration="10.00"/>
   <tlsSwitch id="2881" programID="NEMA" fromLane="17276_2" toLane="-16037_0" begin="10.00" end="109.00" duration="99.00"/>
   <tlsSwitch id="2881" programID="NEMA" fromLane="17276_3" toLane="-16037_1" begin="10.00" end="109.00" duration="99.00"/>
   <tlsSwitch id="2881" programID="NEMA" fromLane="-16480_0" toLane="-16037_0" begin="109.00" end="208.00" duration="99.00"/>
   <tlsSwitch id="2881" programID="NEMA" fromLane="-16480_0" toLane="-17276_0" begin="109.00" end="208.00" duration="99.00"/>
   <tlsSwitch id="2881" programID="NEMA" fromLane="-16480_1" toLane="-17276_1" begin="109.00" end="208.00" duration="99.00"/>
   <tlsSwitch id="2881" programID="NEMA" fromLane="-905_0" toLane="16480_0" begin="208.00" end="307.00" duration="99.00"/>
   <tlsSwitch id="2881" programID="NEMA" fromLane="-905_0" toLane="-16037_0" begin="208.00" end="307.00" duration="99.00"/>
   <tlsSwitch id="2881" programID="NEMA" fromLane="-905_1" toLane="-16037_1" begin="208.00" end="307.00" duration="99.00"/>
   <tlsSwitch id="2881" programID="NEMA" fromLane="-905_1" toLane="-17276_0" begin="208.00" end="307.00" duration="99.00"/>
   <tlsSwitch id="2881" programID="NEMA" fromLane="-905_2" toLane="-17276_1" begin="208.00" end="307.00" duration="99.00"/>
   <tlsSwitch id="2881" programID="NEMA" fromLane="17276_0" toLane="16480_0" begin="307.00" end="406.00" duration="99.00"/>
   <tlsSwitch id="2881" programID="NEMA" fromLane="17276_1" toLane="16480_1" begin="307.00" end="406.00" duration="99.00"/>
   <tlsSwitch id="2881" programID="NEMA" fromLane="17276_2" toLane="-16037_0" begin="406.00" end="505.00" duration="99.00"/>
   <tlsSwitch id="2881" programID="NEMA" fromLane="17276_3" toLane="-16037_1" begin="406.00" end="505.00" duration="99.00"/>
   <tlsSwitch id="2881" programID="NEMA" fromLane="-16480_0" toLane="-16037_0" begin="505.00" end="604.00" duration="99.00"/>
   <tlsSwitch id="2881" programID="NEMA" fromLane="-16480_0" toLane="-17276_0" begin="505.00" end="604.00" duration="99.00"/>
   <tlsSwitch id="2881" programID="NEMA" fromLane="-16480_1" toLane="-17276_1" begin="505.00" end="604.00" duration="99.00"/>
   <tlsSwitch id="2881" programID="NEMA" fromLane="-905_0" toLane="16480_0" begin="604.00" end="703.00" duration="99.00"/>
   <tlsSwitch id="2881" programID="NEMA" fromLane="-905_0" toLane="-16037_0" begin="604.00" end="703.00" duration="99.00"/>
   <tlsSwitch id="2881" programID="NEMA" fromLane="-905_1" toLane="-16037_1" begin="604.00" end="703.00" duration="99.00"/>
   <tlsSwitch id="2881" programID="NEMA" fromLane="-905_1" toLane="-17276_0" begin="604.00" end="703.00" duration="99.00"/>
   <tlsSwitch id="2881" programID="NEMA" fromLane="-905_2" toLane="-17276_1" begin="604.00" end="703.00" duration="99.00"/>
   <tlsSwitch id="2881" programID="NEMA" fromLane="17276_0" toLane="16480_0" begin="703.00" end="802.00" duration="99.00"/>
   <tlsSwitch id="2881" programID="NEMA" fromLane="17276_1" toLane="16480_1" begin="703.00" end="802.00" duration="99.00"/>
   <tlsSwitch id="2881" programID="NEMA" fromLane="17276_2" toLane="-16037_0" begin="802.00" end="901.00" duration="99.00"/>
   <tlsSwitch id="2881" programID="NEMA" fromLane="17276_3" toLane="-16037_1" begin="802.00" end="901.00" duration="99.00"/>
   <tlsSwitch id="2881" programID="NEMA" fromLane="-16480_0" toLane="-16037_0" begin="901.00" end="1000.00" duration="99.00"/>
   <tlsSwitch id="2881" programID="NEMA" fromLane="-16480_0" toLane="-17276_0" begin="901.00" end="1000.00" duration="99.00"/>
   <tlsSwitch id="2881" programID="NEMA" fromLane="-16480_1" toLane="-17276_1" begin="901.00" end="1000.00" duration="99.00"/>
   <tlsSwitch id="2881" programID="NEMA" fromLane="-905_0" toLane="16480_0" begin="1000.00" end="1099.00" duration="99.00"/>
   <tlsSwitch id="2881" programID="NEMA" fromLane="-905_0" toLane="-16037_0" begin="1000.00" end="1099.00" duration="99.00"/>
   <tlsSwitch id="2881" programID="NEMA" fromLane="-905_1" toLane="-16037_1" begin="1000.00" end="1099.00" duration="99.00"/>
   <tlsSwitch id="2881" programID="NEMA" fromLane="-905_1" toLane="-17276_0" begin="1000.00" end="1099.00" duration="99.00"/>
   <tlsSwitch id="2881" programID="NEMA" fromLane="-905_2" toLane="-17276_1" begin="1000.00" end="1099.00" duration="99.00"/>
   <tlsSwitch id="2881" programID="NEMA" fromLane="17276_0" toLane="16480_0" begin="1099.00" end="1198.00" duration="99.00"/>
   <tlsSwitch id="2881" programID="NEMA" fromLane="17276_1" toLane="16480_1" begin="1099.00" end="1198.00" duration="99.00"/>
   <tlsSwitch id="2881" programID="NEMA" fromLane="17276_2" toLane="-16037_0" begin="1198.00" end="1297.00" duration="99.00"/>
   <tlsSwitch id="2881" programID="NEMA" fromLane="17276_3" toLane="-16037_1" begin="1198.00" end="1297.00" duration="99.00"/>
   <tlsSwitch id="2881" programID="NEMA" fromLane="-16480_0" toLane="-16037_0" begin="1297.00" end="1396.00" duration="99.00"/>
   <tlsSwitch id="2881" programID="NEMA" fromLane="-16480_0" toLane="-17276_0" begin="1297.00" end="1396.00" duration="99.00"/>
   <tlsSwitch id="2881" programID="NEMA" fromLane="-16480_1" toLane="-17276_1" begin="1297.00" end="1396.00" duration="99.00"/>
   <tlsSwitch id="2881" programID="NEMA" fromLane="-905_0" toLane="16480_0" begin="1396.00" end="1495.00" duration="99.00"/>
   <tlsSwitch id="2881" programID="NEMA" fromLane="-905_0" toLane="-16037_0" begin="1396.00" end="1495.00" duration="99.00"/>
   <tlsSwitch id="2881" programID="NEMA" fromLane="-905_1" toLane="-16037_1" begin="1396.00" end="1495.00" duration="99.00"/>
   <tlsSwitch id="2881" programID="NEMA" fromLane="-905_1" toLane="-17276_0" begin="1396.00" end="1495.00" duration="99.00"/>
   <tlsSwitch id="2881" programID="NEMA" fromLane="-905_2" toLane="-17276_1" begin="1396.00" end="1495.00" duration="99.00"/>
   <tlsSwitch id="2881" programID="NEMA" fromLane="17276_0" toLane="16480_0" begin="1495.00" end="1594.00" duration="99.00"/>
   <tlsSwitch id="2881" programID="NEMA" fromLane="17276_1" toLane="16480_1" begin="1495.00" end="1594.00" duration="99.00"/>
   <tlsSwitch id="2881" programID="NEMA" fromLane="17276_2" toLane="-16037_0" begin="1594.00" end="1693.00" duration="99.00"/>
   <tlsSwitch id="2881" programID="NEMA" fromLane="17276_3" toLane="-16037_1" begin="1594.00" end="1693.00" duration="99.00"/>
   <tlsSwitch id="2881" programID="NEMA" fromLane="-16480_0" toLane="-16037_0" begin="1693.00" end="1792.00" duration="99.00"/>
   <tlsSwitch id="2881" programID="NEMA" fromLane="-16480_0" toLane="-17276_0" begin="1693.00" end="1792.00" duration="99.00"/>
   <tlsSwitch id="2881" programID="NEMA" fromLane="-16480_1" toLane="-17276_1" begin="1693.00" end="1792.00" duration="99.00"/>
   <tlsSwitch id="2881" programID="NEMA" fromLane="-905_0" toLane="16480_0" begin="1792.00" end="1891.00" duration="99.00"/>
   <tlsSwitch id="2881" programID="NEMA" fromLane="-905_0" toLane="-16037_0" begin="1792.00" end="1891.00" duration="99.00"/>
   <tlsSwitch id="2881" programID="NEMA" fromLane="-905_1" toLane="-16037_1" begin="1792.00" end="1891.00" duration="99.00"/>
   <tlsSwitch id="2881" programID="NEMA" fromLane="-905_1" toLane="-17276_0" begin="1792.00" end="1891.00" duration="99.00"/>
   <tlsSwitch id="2881" programID="NEMA" fromLane="-905_2" toLane="-17276_1" begin="1792.00" end="1891.00" duration="99.00"/>
   <tlsSwitch id="2881" programID="NEMA" fromLane="17276_0" toLane="16480_0" begin="1891.00" end="1990.00" duration="99.00"/>
   <tlsSwitch id="2881" programID="NEMA" fromLane="17276_1" toLane="16480_1" begin="1891.00" end="1990.00" duration="99.00"/>
   <tlsSwitch id="2881" programID="NEMA" fromLane="17276_2" toLane="-16037_0" begin="1990.00" end="2089.00" duration="99.00"/>
   <tlsSwitch id="2881" programID="NEMA" fromLane="17276_3" toLane="-16037_1" begin="1990.00" end="2089.00" duration="99.00"/>
   <tlsSwitch id="2881" programID="NEMA" fromLane="-16480_0" toLane="-16037_0" begin="2089.00" end="2188.00" duration="99.00"/>
   <tlsSwitch id="2881" programID="NEMA" fromLane="-16480_0" toLane="-17276_0" begin="2089.00" end="2188.00" duration="99.00"/>
   <tlsSwitch id="2881" programID="NEMA" fromLane="-16480_1" toLane="-17276_1" begin="2089.00" end="2188.00" duration="99.00"/>
   <tlsSwitch id="2881" programID="NEMA" fromLane="-905_0" toLane="16480_0" begin="2188.00" end="2287.00" duration="99.00"/>
   <tlsSwitch id="2881" programID="NEMA" fromLane="-905_0" toLane="-16037_0" begin="2188.00" end="2287.00" duration="99.00"/>
   <tlsSwitch id="2881" programID="NEMA" fromLane="-905_1" toLane="-16037_1" begin="2188.00" end="2287.00" duration="99.00"/>
   <tlsSwitch id="2881" programID="NEMA" fromLane="-905_1" toLane="-17276_0" begin="2188.00" end="2287.00" duration="99.00"/>
   <tlsSwitch id="2881" programID="NEMA" fromLane="-905_2" toLane="-17276_1" begin="2188.00" end="2287.00" duration="99.00"/>
   <tlsSwitch id="2881" programID="NEMA" fromLane="17276_0" toLane="16480_0" begin="2287.00" end="2386.00" duration="99.00"/>
   <tlsSwitch id="2881" programID="NEMA" fromLane="17276_1" toLane="16480_1" begin="2287.00" end="2386.00" duration="99.00"/>
   <tlsSwitch id="2881" programID="NEMA" fromLane="17276_2" toLane="-16037_0" begin="2386.00" end="2485.00" duration="99.00"/>
   <tlsSwitch id="2881" programID="NEMA" fromLane="17276_3" toLane="-16037_1" begin="2386.00" end="2485.00" duration="99.00"/>
   <tlsSwitch id="2881" programID="NEMA" fromLane="-16480_0" toLane="-16037_0" begin="2485.00" end="2584.00" duration="99.00"/>
   <tlsSwitch id="2881" programID="NEMA" fromLane="-16480_0" toLane="-17276_0" begin="2485.00" end="2584.00" duration="99.00"/>
   <tlsSwitch id="2881" programID="NEMA" fromLane="-16480_1" toLane="-17276_1" begin="2485.00" end="2584.00" duration="99.00"/>
   <tlsSwitch id="2881" programID="NEMA" fromLane="-905_0" toLane="16480_0" begin="2584.00" end="2683.00" duration="99.00"/>
   <tlsSwitch id="2881" programID="NEMA" fromLane="-905_0" toLane="-16037_0" begin="2584.00" end="2683.00" duration="99.00"/>
   <tlsSwitch id="2881" programID="NEMA" fromLane="-905_1" toLane="-16037_1" begin="2584.00" end="2683.00" duration="99.00"/>
   <tlsSwitch id="2881" programID="NEMA" fromLane="-905_1" toLane="-17276_0" begin="2584.00" end="2683.00" duration="99.00"/>
   <tlsSwitch id="2881" programID="NEMA" fromLane="-905_2" toLane="-17276_1" begin="2584.00" end="2683.00" duration="99.00"/>
   <tlsSwitch id="2881" programID="NEMA" fromLane="17276_0" toLane="16480_0" begin="2683.00" end="2782.00" duration="99.00"/>
   <tlsSwitch id="2881" programID="NEMA" fromLane="17276_1" toLane="16480_1" begin="2683.00" end="2782.00" duration="99.00"/>
   <tlsSwitch id="2881" programID="NEMA" fromLane="17276_2" toLane="-16037_0" begin="2782.00" end="2881.00" duration="99.00"/>
   <tlsSwitch id="2881" programID="NEMA" fromLane="17276_3" toLane="-16037_1" begin="2782.00" end="2881.00" duration="99.00"/>
   <tlsSwitch id="2881" programID="NEMA" fromLane="-16480_0" toLane="-16037_0" begin="2881.00" end="2980.00" duration="99.00"/>
   <tlsSwitch id="2881" programID="NEMA" fromLane="-16480_0" toLane="-17276_0" begin="2881.00" end="2980.00" duration="99.00"/>
   <tlsSwitch id="2881" programID="NEMA" fromLane="-16480_1" toLane="-17276_1" begin="2881.00" end="2980.00" duration="99.00"/>
   <tlsSwitch id="2881" programID="NEMA" fromLane="-905_0" toLane="16480_0" begin="2980.00" end="3079.00" duration="99.00"/>
   <tlsSwitch id="2881" programID="NEMA" fromLane="-905_0" toLane="-16037_0" begin="2980.00" end="3079.00" duration="99.00"/>
   <tlsSwitch id="2881" programID="NEMA" fromLane="-905_1" toLane="-16037_1" begin="2980.00" end="3079.00" duration="99.00"/>
   <tlsSwitch id="2881" programID="NEMA" fromLane="-905_1" toLane="-17276_0" begin="2980.00" end="3079.00" duration="99.00"/>
   <tlsSwitch id="2881" programID="NEMA" fromLane="-905_2" toLane="-17276_1" begin="2980.00" end="3079.00" duration="99.00"/>
   <tlsSwitch id="2881" programID="NEMA" fromLane="17276_0" toLane="16480_0" begin="3079.00" end="3178.00" duration="99.00"/>
   <tlsSwitch id="2881" programID="NEMA" fromLane="17276_1" toLane="16480_1" begin="3079.00" end="3178.00" duration="99.00"/>
   <tlsSwitch id="2881" programID="NEMA" fromLane="17276_2" toLane="-16037_0" begin="3178.00" end="3277.00" duration="99.00"/>
   <tlsSwitch id="2881" programID="NEMA" fromLane="17276_3" toLane="-16037_1" begin="3178.00" end="3277.00" duration="99.00"/>
   <tlsSwitch id="2881" programID="NEMA" fromLane="-16480_0" toLane="-16037_0" begin="3277.00" end="3376.00" duration="99.00"/>
   <tlsSwitch id="2881" programID="NEMA" fromLane="-16480_0" toLane="-17276_0" begin="3277.00" end="3376.00" duration="99.00"/>
   <tlsSwitch id="2881" programID="NEMA" fromLane="-16480_1" toLane="-17276_1" begin="3277.00" end="3376.00" duration="99.00"/>
   <tlsSwitch id="2881" programID="NEMA" fromLane="-905_0" toLane="16480_0" begin="3376.00" end="3475.00" duration="99.00"/>
   <tlsSwitch id="2881" programID="NEMA" fromLane="-905_0" toLane="-16037_0" begin="3376.00" end="3475.00" duration="99.00"/>
   <tlsSwitch id="2881" programID="NEMA" fromLane="-905_1" toLane="-16037_1" begin="3376.00" end="3475.00" duration="99.00"/>
   <tlsSwitch id="2881" programID="NEMA" fromLane="-905_1" toLane="-17276_0" begin="3376.00" end="3475.00" duration="99.00"/>
   <tlsSwitch id="2881" programID="NEMA" fromLane="-905_2" toLane="-17276_1" begin="3376.00" end="3475.00" duration="99.00"/>
   <tlsSwitch id="2881" programID="NEMA" fromLane="17276_0" toLane="16480_0" begin="3475.00" end="3574.00" duration="99.00"/>
   <tlsSwitch id="2881" programID="NEMA" fromLane="17276_1" toLane="16480_1" begin="3475.00" end="3574.00" duration="99.00"/>
   <tlsSwitch id="2881" programID="NEMA" fromLane="17276_2" toLane="-16037_0" begin="3574.00" end="3673.00" duration="99.00"/>
   <tlsSwitch id="2881" programID="NEMA" fromLane="17276_3" toLane="-16037_1" begin="3574.00" end="3673.00" duration="99.00"/>
   <tlsSwitch id="2881" programID="NEMA" fromLane="-16480_0" toLane="-16037_0" begin="3673.00" end="3772.00" duration="99.00"/>
   <tlsSwitch id="2881" programID="NEMA" fromLane="-16480_0" toLane="-17276_0" begin="3673.00" end="3772.00" duration="99.00"/>
   <tlsSwitch id="2881" programID="NEMA" fromLane="-16480_1" toLane="-17276_1" begin="3673.00" end="3772.00" duration="99.00"/>
   <tlsSwitch id="2881" programID="NEMA" fromLane="-905_0" toLane="16480_0" begin="3772.00" end="3871.00" duration="99.00"/>
   <tlsSwitch id="2881" programID="NEMA" fromLane="-905_0" toLane="-16037_0" begin="3772.00" end="3871.00" duration="99.00"/>
   <tlsSwitch id="2881" programID="NEMA" fromLane="-905_1" toLane="-16037_1" begin="3772.00" end="3871.00" duration="99.00"/>
   <tlsSwitch id="2881" programID="NEMA" fromLane="-905_1" toLane="-17276_0" begin="3772.00" end="3871.00" duration="99.00"/>
   <tlsSwitch id="2881" programID="NEMA" fromLane="-905_2" toLane="-17276_1" begin="3772.00" end="3871.00" duration="99.00"/>
   <tlsSwitch id="2881" programID="NEMA" fromLane="17276_0" toLane="16480_0" begin="3871.00" end="3970.00" duration="99.00"/>
   <tlsSwitch id="2881" programID="NEMA" fromLane="17276_1" toLane="16480_1" begin="3871.00" end="3970.00" duration="99.00"/>
   <tlsSwitch id="2881" programID="NEMA" fromLane="17276_2" toLane="-16037_0" begin="3970.00" end="4069.00" duration="99.00"/>
   <tlsSwitch id="2881" programID="NEMA" fromLane="17276_3" toLane="-16037_1" begin="3970.00" end="4069.00" duration="99.00"/>
   <tlsSwitch id="2881" programID="NEMA" fromLane="-16480_0" toLane="-16037_0" begin="4069.00" end="4168.00" duration="99.00"/>
   <tlsSwitch id="2881" programID="NEMA" fromLane="-16480_0" toLane="-17276_0" begin="4069.00" end="4168.00" duration="99.00"/>
   <tlsSwitch id="2881" programID="NEMA" fromLane="-16480_1" toLane="-17276_1" begin="4069.00" end="4168.00" duration="99.00"/>
   <tlsSwitch id="2881" programID="NEMA" fromLane="-905_0" toLane="16480_0" begin="4168.00" end="4267.00" duration="99.00"/>
   <tlsSwitch id="2881" programID="NEMA" fromLane="-905_0" toLane="-16037_0" begin="4168.00" end="4267.00" duration="99.00"/>
   <tlsSwitch id="2881" programID="NEMA" fromLane="-905_1" toLane="-16037_1" begin="4168.00" end="4267.00" duration="99.00"/>
   <tlsSwitch id="2881" programID="NEMA" fromLane="-905_1" toLane="-17276_0" begin="4168.00" end="4267.00" duration="99.00"/>
   <tlsSwitch id="2881" programID="NEMA" fromLane="-905_2" toLane="-17276_1" begin="4168.00" end="4267.00" duration="99.00"/>
   <tlsSwitch id="2881" programID="NEMA" fromLane="17276_0" toLane="16480_0" begin="4267.00" end="4366.00" duration="99.00"/>
   <tlsSwitch id="2881" programID="NEMA" fromLane="17276_1" toLane="16480_1" begin="4267.00" end="4366.00" duration="99.00"/>
   <tlsSwitch id="2881" programID="NEMA" fromLane="17276_2" toLane="-16037_0" begin="4366.00" end="4465.00" duration="99.00"/>
   <tlsSwitch id="2881" programID="NEMA" fromLane="17276_3" toLane="-16037_1" begin="4366.00" end="4465.00" duration="99.00"/>
</tlsSwitches>
