<?xml version="1.0" encoding="UTF-8"?>

<!-- generated on 2024-12-20 11:20:43 by Eclipse SUMO netedit Version v1_21_0+1536-2f97d9a5bab
-->

<additional xmlns:xsi="http://www.w3.org/2001/XMLSchema-instance" xsi:noNamespaceSchemaLocation="http://sumo.dlr.de/xsd/additional_file.xsd">
    <!-- StoppingPlaces -->
    <chargingStation id="cs_0" lane="Edge5_1"/>
    <!-- Detectors -->
    <laneAreaDetector id="e2_0" lane="Edge5_1" pos="10.00" length="40.00" period="300.00" file="e2_0.xml"/>
</additional>
