<?xml version="1.0" encoding="UTF-8"?>

<!-- generated on Tue Feb 21 16:44:04 2017 by SUMO netconvert Version dev-SVN-r23047
<?xml version="1.0" encoding="UTF-8"?>

<configuration xmlns:xsi="http://www.w3.org/2001/XMLSchema-instance" xsi:noNamespaceSchemaLocation="http://sumo.dlr.de/xsd/netconvertConfiguration.xsd">

    <input>
        <sumo-net-file value="input_net.net.xml"/>
    </input>

    <output>
        <output-file value="net.net.xml"/>
        <plain-output-prefix value="plain"/>
    </output>

    <processing>
        <no-internal-links value="true"/>
        <no-turnarounds value="true"/>
        <offset.disable-normalization value="true"/>
        <lefthand value="false"/>
        <junctions.corner-detail value="0"/>
        <rectangular-lane-cut value="false"/>
    </processing>

    <report>
        <xml-validation value="never"/>
    </report>

</configuration>
-->

<nodes version="0.27" xmlns:xsi="http://www.w3.org/2001/XMLSchema-instance" xsi:noNamespaceSchemaLocation="http://sumo.dlr.de/xsd/nodes_file.xsd">
    <location netOffset="500.00,500.00" convBoundary="0.00,500.00,500.00,500.00" origBoundary="-500.00,-500.00,500.00,500.00" projParameter="!"/>

    <node id="0" x="500.00" y="500.00" type="dead_end"/>
    <node id="1" x="0.00" y="500.00" type="dead_end"/>
</nodes>
