<routes xmlns:xsi="http://www.w3.org/2001/XMLSchema-instance" xsi:noNamespaceSchemaLocation="http://sumo.dlr.de/xsd/routes_file.xsd">
    <vType id="DEFAULT_VEHTYPE" sigma="0"/>
    <route id="r1" edges="E0 E1 E2"/>
    <vehicle id="0" depart="0" departSpeed="max" route="r1" departLane="0">
        <stop lane="E1_0" duration="60"/>
    </vehicle>
    <vehicle id="1" depart="0" departSpeed="max" route="r1" departLane="1">
        <stop lane="E1_1" duration="60"/>
    </vehicle>
</routes>
