<?xml version="1.0" encoding="UTF-8"?>

<!-- generated on Wed 24 Apr 2019 09:25:18 PM CEST by Eclipse SUMO netedit Version v1_2_0+0022-5179cc2293
<configuration xmlns:xsi="http://www.w3.org/2001/XMLSchema-instance" xsi:noNamespaceSchemaLocation="http://sumo.dlr.de/xsd/netconvertConfiguration.xsd">

    <input>
        <sumo-net-file value="net3.net.xml"/>
    </input>

    <output>
        <output-file value="net3.net.xml"/>
    </output>

    <processing>
        <geometry.max-grade.fix value="false"/>
        <offset.disable-normalization value="true"/>
        <lefthand value="false"/>
    </processing>

    <junctions>
        <no-internal-links value="false"/>
        <no-turnarounds value="true"/>
        <junctions.corner-detail value="0"/>
        <junctions.limit-turn-speed value="-1"/>
        <rectangular-lane-cut value="false"/>
    </junctions>

    <pedestrian>
        <walkingareas value="false"/>
    </pedestrian>

    <visualisation>
        <registry-viewport value="true"/>
    </visualisation>

</configuration>
-->

<net version="1.1" xmlns:xsi="http://www.w3.org/2001/XMLSchema-instance" xsi:noNamespaceSchemaLocation="http://sumo.dlr.de/xsd/net_file.xsd">

    <location netOffset="100.00,100.00" convBoundary="46.46,0.00,200.00,200.00" origBoundary="-10000000000.00,-10000000000.00,10000000000.00,10000000000.00" projParameter="!"/>

    <edge id=":C_0" function="internal">
        <lane id=":C_0_0" index="0" allow="passenger" speed="13.89" length="73.58" shape="95.20,132.90 92.02,117.73 84.31,98.11 74.83,79.11 66.37,65.81"/>
    </edge>
    <edge id=":C_1" function="internal">
        <lane id=":C_1_0" index="0" allow="passenger" speed="13.89" length="79.50" shape="95.20,132.90 95.20,53.40"/>
        <lane id=":C_1_1" index="1" allow="passenger" speed="13.89" length="79.50" shape="98.40,132.90 98.40,53.40"/>
    </edge>
    <edge id=":C_3" function="internal">
        <lane id=":C_3_0" index="0" allow="passenger" speed="13.89" length="42.49" shape="134.40,104.80 121.45,106.56 112.20,111.82 106.65,120.61 105.40,128.90"/>
    </edge>
    <edge id=":C_4" function="internal">
        <lane id=":C_4_0" index="0" allow="passenger" speed="13.89" length="77.03" shape="134.40,104.80 116.39,102.36 99.04,95.05 82.37,82.87 69.11,68.73"/>
    </edge>
    <edge id=":C_5" function="internal">
        <lane id=":C_5_0" index="0" allow="passenger" speed="13.89" length="74.17" shape="134.40,101.60 117.12,99.24 100.43,92.15 84.35,80.34 71.60,66.73"/>
    </edge>
    <edge id=":C_6" function="internal">
        <lane id=":C_6_0" index="0" allow="passenger" speed="13.89" length="17.48" shape="134.40,101.60 118.65,98.59 117.52,97.68"/>
    </edge>
    <edge id=":C_13" function="internal">
        <lane id=":C_13_0" index="0" allow="passenger" speed="13.89" length="4.05" shape="105.40,128.90 104.80,132.90"/>
    </edge>
    <edge id=":C_14" function="internal">
        <lane id=":C_14_0" index="0" allow="passenger" speed="13.89" length="4.01" shape="69.11,68.73 66.37,65.81"/>
    </edge>
    <edge id=":C_15" function="internal">
        <lane id=":C_15_0" index="0" allow="passenger" speed="13.89" length="4.01" shape="71.60,66.73 68.86,63.80"/>
    </edge>
    <edge id=":C_16" function="internal">
        <lane id=":C_16_0" index="0" allow="passenger" speed="13.89" length="50.70" shape="117.52,97.68 107.40,89.55 100.65,74.49 98.40,53.40"/>
    </edge>
    <edge id=":C_7" function="internal">
        <lane id=":C_7_0" index="0" allow="passenger" speed="13.89" length="56.57" shape="104.80,53.40 106.65,73.09 112.20,87.15 121.45,95.59 130.40,97.53"/>
    </edge>
    <edge id=":C_8" function="internal">
        <lane id=":C_8_0" index="0" allow="passenger" speed="13.89" length="79.50" shape="104.80,53.40 104.80,132.90"/>
        <lane id=":C_8_1" index="1" allow="passenger" speed="13.89" length="79.50" shape="101.60,53.40 101.60,132.90"/>
    </edge>
    <edge id=":C_10" function="internal">
        <lane id=":C_10_0" index="0" allow="passenger" speed="13.89" length="5.71" shape="101.60,53.40 100.00,58.89"/>
    </edge>
    <edge id=":C_17" function="internal">
        <lane id=":C_17_0" index="0" allow="passenger" speed="13.89" length="4.09" shape="130.40,97.53 134.40,98.40"/>
    </edge>
    <edge id=":C_18" function="internal">
        <lane id=":C_18_0" index="0" allow="passenger" speed="13.89" length="40.24" shape="100.00,58.89 98.17,65.17 89.71,71.34 79.02,71.14 68.86,63.80"/>
    </edge>
    <edge id=":C_11" function="internal">
        <lane id=":C_11_0" index="0" allow="passenger" speed="13.89" length="41.23" shape="71.35,61.80 81.79,72.40 89.24,74.54 93.71,68.20 94.80,57.40"/>
    </edge>
    <edge id=":C_12" function="internal">
        <lane id=":C_12_0" index="0" allow="passenger" speed="13.89" length="71.29" shape="71.35,61.80 86.32,77.81 101.82,89.25 117.85,96.11 130.40,97.85"/>
    </edge>
    <edge id=":C_19" function="internal">
        <lane id=":C_19_0" index="0" allow="passenger" speed="13.89" length="4.02" shape="94.80,57.40 95.20,53.40"/>
    </edge>
    <edge id=":C_20" function="internal">
        <lane id=":C_20_0" index="0" allow="passenger" speed="13.89" length="4.04" shape="130.40,97.85 134.40,98.40"/>
    </edge>
    <edge id=":C_c0" function="crossing" crossingEdges="CN NC">
        <lane id=":C_c0_0" index="0" allow="pedestrian" speed="1.00" length="12.80" width="4.00" shape="106.40,130.90 93.60,130.90"/>
    </edge>
    <edge id=":C_c1" function="crossing" crossingEdges="CE EC">
        <lane id=":C_c1_0" index="0" allow="pedestrian" speed="1.00" length="9.60" width="4.00" shape="132.40,96.80 132.40,106.40"/>
    </edge>
    <edge id=":C_c2" function="crossing" crossingEdges="CS SC">
        <lane id=":C_c2_0" index="0" allow="pedestrian" speed="1.00" length="12.80" width="4.00" shape="93.60,55.40 106.40,55.40"/>
    </edge>
    <edge id=":C_c3" function="crossing" crossingEdges="CW WC">
        <lane id=":C_c3_0" index="0" allow="pedestrian" speed="1.00" length="9.60" width="4.00" shape="66.37,68.37 73.85,62.35"/>
    </edge>
    <edge id=":C_w0" function="walkingarea">
        <lane id=":C_w0_0" index="0" allow="pedestrian" speed="1.00" length="47.23" width="4.00" shape="67.62,69.93 65.12,66.81 63.36,68.22 90.60,132.90 93.60,132.90 93.60,128.90"/>
    </edge>
    <edge id=":C_w1" function="walkingarea">
        <lane id=":C_w1_0" index="0" allow="pedestrian" speed="1.00" length="25.02" width="4.00" shape="106.40,128.90 106.40,132.90 109.40,132.90 134.40,107.90 134.40,106.40 130.40,106.40"/>
    </edge>
    <edge id=":C_w2" function="walkingarea">
        <lane id=":C_w2_0" index="0" allow="pedestrian" speed="1.00" length="33.61" width="4.00" shape="130.40,96.80 134.40,96.80 134.40,93.05 109.40,53.40 106.40,53.40 106.40,57.40"/>
    </edge>
    <edge id=":C_w3" function="walkingarea">
        <lane id=":C_w3_0" index="0" allow="pedestrian" speed="1.00" length="14.33" width="4.00" shape="93.60,57.40 93.60,53.40 90.60,53.40 74.94,58.92 72.60,60.79 75.11,63.91"/>
    </edge>
    <edge id=":E_0" function="internal">
        <lane id=":E_0_0" index="0" allow="passenger" speed="13.89" length="4.67" shape="200.00,98.40 201.20,99.20 201.60,100.00 201.20,100.80 200.00,101.60"/>
    </edge>
    <edge id=":E_w0" function="walkingarea">
        <lane id=":E_w0_0" index="0" allow="pedestrian" speed="1.00" length="12.23" width="3.75" shape="200.00,106.40 200.00,107.90 200.00,93.05 200.00,96.80"/>
    </edge>
    <edge id=":N_0" function="internal">
        <lane id=":N_0_0" index="0" allow="passenger" speed="13.89" length="4.67" shape="101.60,200.00 100.80,201.20 100.00,201.60 99.20,201.20 98.40,200.00"/>
    </edge>
    <edge id=":N_w0" function="walkingarea">
        <lane id=":N_w0_0" index="0" allow="pedestrian" speed="1.00" length="15.80" width="3.00" shape="93.60,200.00 90.60,200.00 109.40,200.00 106.40,200.00"/>
    </edge>
    <edge id=":S_0" function="internal">
        <lane id=":S_0_0" index="0" allow="passenger" speed="13.89" length="4.67" shape="98.40,0.00 99.20,-1.20 100.00,-1.60 100.80,-1.20 101.60,0.00"/>
    </edge>
    <edge id=":S_w0" function="walkingarea">
        <lane id=":S_w0_0" index="0" allow="pedestrian" speed="1.00" length="15.80" width="3.00" shape="106.40,0.00 109.40,0.00 90.60,0.00 93.60,0.00"/>
    </edge>
    <edge id=":W_0" function="internal">
        <lane id=":W_0_0" index="0" allow="passenger" speed="13.89" length="4.67" shape="45.21,34.37 45.08,32.94 45.46,32.12 46.33,31.93 47.71,32.37"/>
    </edge>
    <edge id=":W_w0" function="walkingarea">
        <lane id=":W_w0_0" index="0" allow="pedestrian" speed="1.00" length="12.22" width="3.00" shape="48.95,31.37 51.29,29.49 39.72,38.79 41.47,37.38"/>
    </edge>

    <edge id="CE" from="C" to="E" priority="3">
        <lane id="CE_0" index="0" allow="pedestrian" speed="13.89" length="65.60" width="3.75" shape="134.40,94.92 200.00,94.92"/>
        <lane id="CE_1" index="1" allow="passenger" speed="13.89" length="65.60" shape="134.40,98.40 200.00,98.40"/>
    </edge>
    <edge id="CN" from="C" to="N" priority="2">
        <lane id="CN_0" index="0" allow="pedestrian" speed="13.89" length="67.10" width="3.00" shape="107.90,132.90 107.90,200.00"/>
        <lane id="CN_1" index="1" allow="passenger" speed="13.89" length="67.10" shape="104.80,132.90 104.80,200.00"/>
        <lane id="CN_2" index="2" allow="passenger" speed="13.89" length="67.10" shape="101.60,132.90 101.60,200.00"/>
    </edge>
    <edge id="CS" from="C" to="S" priority="2">
        <lane id="CS_0" index="0" allow="pedestrian" speed="13.89" length="53.40" width="3.00" shape="92.10,53.40 92.10,0.00"/>
        <lane id="CS_1" index="1" allow="passenger" speed="13.89" length="53.40" shape="95.20,53.40 95.20,0.00"/>
        <lane id="CS_2" index="2" allow="passenger" speed="13.89" length="53.40" shape="98.40,53.40 98.40,0.00"/>
    </edge>
    <edge id="CW" from="C" to="W" priority="3">
        <lane id="CW_0" index="0" allow="pedestrian" speed="13.89" length="37.75" width="2.25" shape="64.24,67.51 40.59,38.08"/>
        <lane id="CW_1" index="1" allow="passenger" speed="13.89" length="37.75" shape="66.37,65.81 42.72,36.38"/>
        <lane id="CW_2" index="2" allow="passenger" speed="13.89" length="37.75" shape="68.86,63.80 45.21,34.37"/>
    </edge>
    <edge id="EC" from="E" to="C" priority="3">
        <lane id="EC_0" index="0" allow="pedestrian" speed="13.89" length="65.60" width="1.50" shape="200.00,107.15 134.40,107.15"/>
        <lane id="EC_1" index="1" allow="passenger" speed="13.89" length="65.60" shape="200.00,104.80 134.40,104.80"/>
        <lane id="EC_2" index="2" allow="passenger" speed="13.89" length="65.60" shape="200.00,101.60 134.40,101.60"/>
    </edge>
    <edge id="NC" from="N" to="C" priority="2">
        <lane id="NC_0" index="0" allow="pedestrian" speed="13.89" length="67.10" width="3.00" shape="92.10,200.00 92.10,132.90"/>
        <lane id="NC_1" index="1" allow="passenger" speed="13.89" length="67.10" shape="95.20,200.00 95.20,132.90"/>
        <lane id="NC_2" index="2" allow="passenger" speed="13.89" length="67.10" shape="98.40,200.00 98.40,132.90"/>
    </edge>
    <edge id="SC" from="S" to="C" priority="2">
        <lane id="SC_0" index="0" allow="pedestrian" speed="13.89" length="53.40" width="3.00" shape="107.90,0.00 107.90,53.40"/>
        <lane id="SC_1" index="1" allow="passenger" speed="13.89" length="53.40" shape="104.80,0.00 104.80,53.40"/>
        <lane id="SC_2" index="2" allow="passenger" speed="13.89" length="53.40" shape="101.60,0.00 101.60,53.40"/>
    </edge>
    <edge id="WC" from="W" to="C" priority="3">
        <lane id="WC_0" index="0" allow="pedestrian" speed="13.89" length="37.75" width="3.00" shape="50.12,30.43 73.77,59.86"/>
        <lane id="WC_1" index="1" allow="passenger" speed="13.89" length="37.75" shape="47.71,32.37 71.35,61.80"/>
    </edge>

    <tlLogic id="C" type="static" programID="0" offset="0">
        <phase duration="37" state="rrrgGGgrrrrggGrGr"/>
        <phase duration="5"  state="rrrgGGgrrrrgGrrrr"/>
        <phase duration="3"  state="rrryyyyrrrryyrrrr"/>
        <phase duration="37" state="gGGrrrrgGGgrrrGrG"/>
        <phase duration="5"  state="gGGrrrrgGGgrrrrrr"/>
        <phase duration="3"  state="yyyrrrryyyyrrrrrr"/>
    </tlLogic>

    <junction id="C" type="traffic_light" x="100.00" y="100.00" incLanes="NC_0 NC_1 NC_2 EC_0 EC_1 EC_2 SC_0 SC_1 SC_2 WC_0 WC_1 :C_w1_0 :C_w2_0 :C_w3_0 :C_w0_0" intLanes=":C_0_0 :C_1_0 :C_1_1 :C_13_0 :C_14_0 :C_15_0 :C_16_0 :C_17_0 :C_8_0 :C_8_1 :C_18_0 :C_19_0 :C_20_0 :C_c0_0 :C_c1_0 :C_c2_0 :C_c3_0" shape="90.60,132.90 109.40,132.90 134.40,107.90 134.40,93.05 109.40,53.40 90.60,53.40 74.94,58.92 63.36,68.22" radius="25.00">
        <request index="0"  response="10010000000110000" foes="10010000000110000" cont="0"/>
        <request index="1"  response="01011100001110000" foes="01011110001110000" cont="0"/>
        <request index="2"  response="01011100001110000" foes="01011110001110000" cont="0"/>
        <request index="3"  response="00110000000000000" foes="00110001100000000" cont="1"/>
        <request index="4"  response="10100010000000000" foes="10100011100000111" cont="1"/>
        <request index="5"  response="10100010000000000" foes="10100011100000111" cont="1"/>
        <request index="6"  response="01101010000000000" foes="01101011100000110" cont="1"/>
        <request index="7"  response="01101000000000000" foes="01101000000000000" cont="1"/>
        <request index="8"  response="01011000001111000" foes="01011000001111000" cont="0"/>
        <request index="9"  response="01011000001111000" foes="01011000001111000" cont="0"/>
        <request index="10" response="11001000001110110" foes="11001000001110110" cont="1"/>
        <request index="11" response="11000000000000000" foes="11000000000000110" cont="1"/>
        <request index="12" response="10100010010000000" foes="10100011111000110" cont="1"/>
        <request index="13" response="00000000000000000" foes="00000001100001111" cont="0"/>
        <request index="14" response="00000000000000000" foes="00001000011111000" cont="0"/>
        <request index="15" response="00000000000000000" foes="00000111111000110" cont="0"/>
        <request index="16" response="00000000000000000" foes="00001110000110001" cont="0"/>
    </junction>
    <junction id="E" type="priority" x="200.00" y="100.00" incLanes="CE_0 CE_1" intLanes=":E_0_0" shape="200.00,100.00 200.00,93.05 200.00,100.00">
        <request index="0" response="0" foes="0" cont="0"/>
    </junction>
    <junction id="N" type="priority" x="100.00" y="200.00" incLanes="CN_0 CN_1 CN_2" intLanes=":N_0_0" shape="100.00,200.00 109.40,200.00 100.00,200.00">
        <request index="0" response="0" foes="0" cont="0"/>
    </junction>
    <junction id="S" type="priority" x="100.00" y="0.00" incLanes="CS_0 CS_1 CS_2" intLanes=":S_0_0" shape="100.00,0.00 90.60,0.00 100.00,0.00">
        <request index="0" response="0" foes="0" cont="0"/>
    </junction>
    <junction id="W" type="priority" x="46.46" y="33.37" incLanes="CW_0 CW_1 CW_2" intLanes=":W_0_0" shape="46.46,33.37 39.72,38.79 46.46,33.37">
        <request index="0" response="0" foes="0" cont="0"/>
    </junction>

    <junction id=":C_13_0" type="internal" x="105.40" y="128.90" incLanes=":C_3_0" intLanes=":C_8_0 :C_8_1 :C_c0_0 :C_c1_0"/>
    <junction id=":C_14_0" type="internal" x="69.11" y="68.73" incLanes=":C_4_0" intLanes=":C_0_0 :C_1_0 :C_1_1 :C_8_0 :C_8_1 :C_10_0 :C_c1_0 :C_c3_0"/>
    <junction id=":C_15_0" type="internal" x="71.60" y="66.73" incLanes=":C_5_0" intLanes=":C_0_0 :C_1_0 :C_1_1 :C_8_0 :C_8_1 :C_10_0 :C_c1_0 :C_c3_0"/>
    <junction id=":C_16_0" type="internal" x="117.52" y="97.68" incLanes=":C_6_0 WC_1" intLanes=":C_1_0 :C_1_1 :C_8_0 :C_8_1 :C_10_0 :C_11_0 :C_12_0 :C_c1_0 :C_c2_0"/>
    <junction id=":C_17_0" type="internal" x="130.40" y="97.53" incLanes=":C_7_0" intLanes=":C_12_0 :C_c1_0 :C_c2_0"/>
    <junction id=":C_18_0" type="internal" x="100.00" y="58.89" incLanes=":C_10_0 NC_1 NC_2" intLanes=":C_0_0 :C_1_0 :C_1_1 :C_4_0 :C_5_0 :C_6_0 :C_12_0 :C_c2_0 :C_c3_0"/>
    <junction id=":C_19_0" type="internal" x="94.80" y="57.40" incLanes=":C_11_0" intLanes=":C_1_0 :C_1_1 :C_6_0 :C_c2_0 :C_c3_0"/>
    <junction id=":C_20_0" type="internal" x="130.40" y="97.85" incLanes=":C_12_0" intLanes=":C_1_0 :C_1_1 :C_6_0 :C_7_0 :C_8_0 :C_8_1 :C_10_0 :C_c1_0 :C_c3_0"/>

    <connection from="CE" to="EC" fromLane="1" toLane="2" via=":E_0_0" dir="t" state="M"/>
    <connection from="CN" to="NC" fromLane="2" toLane="2" via=":N_0_0" dir="t" state="M"/>
    <connection from="CS" to="SC" fromLane="2" toLane="2" via=":S_0_0" dir="t" state="M"/>
    <connection from="CW" to="WC" fromLane="2" toLane="1" via=":W_0_0" dir="t" state="M"/>
    <connection from="EC" to="CN" fromLane="1" toLane="1" via=":C_3_0" tl="C" linkIndex="3" dir="r" state="o"/>
    <connection from="EC" to="CW" fromLane="1" toLane="1" via=":C_4_0" tl="C" linkIndex="4" dir="L" state="o"/>
    <connection from="EC" to="CW" fromLane="2" toLane="2" via=":C_5_0" tl="C" linkIndex="5" dir="L" state="o"/>
    <connection from="EC" to="CS" fromLane="2" toLane="2" via=":C_6_0" tl="C" linkIndex="6" dir="l" state="o"/>
    <connection from="NC" to="CW" fromLane="1" toLane="1" via=":C_0_0" tl="C" linkIndex="0" dir="s" state="o"/>
    <connection from="NC" to="CS" fromLane="1" toLane="1" via=":C_1_0" tl="C" linkIndex="1" dir="s" state="o"/>
    <connection from="NC" to="CS" fromLane="2" toLane="2" via=":C_1_1" tl="C" linkIndex="2" dir="s" state="o"/>
    <connection from="SC" to="CE" fromLane="1" toLane="1" via=":C_7_0" tl="C" linkIndex="7" dir="r" state="o"/>
    <connection from="SC" to="CN" fromLane="1" toLane="1" via=":C_8_0" tl="C" linkIndex="8" dir="s" state="o"/>
    <connection from="SC" to="CN" fromLane="2" toLane="2" via=":C_8_1" tl="C" linkIndex="9" dir="s" state="o"/>
    <connection from="SC" to="CW" fromLane="2" toLane="2" via=":C_10_0" tl="C" linkIndex="10" dir="l" state="o"/>
    <connection from="WC" to="CS" fromLane="1" toLane="1" via=":C_11_0" tl="C" linkIndex="11" dir="r" state="o"/>
    <connection from="WC" to="CE" fromLane="1" toLane="1" via=":C_12_0" tl="C" linkIndex="12" dir="R" state="o"/>

    <connection from=":C_0" to="CW" fromLane="0" toLane="1" dir="s" state="M"/>
    <connection from=":C_1" to="CS" fromLane="0" toLane="1" dir="s" state="M"/>
    <connection from=":C_1" to="CS" fromLane="1" toLane="2" dir="s" state="M"/>
    <connection from=":C_3" to="CN" fromLane="0" toLane="1" via=":C_13_0" dir="r" state="m"/>
    <connection from=":C_13" to="CN" fromLane="0" toLane="1" dir="r" state="M"/>
    <connection from=":C_4" to="CW" fromLane="0" toLane="1" via=":C_14_0" dir="L" state="m"/>
    <connection from=":C_14" to="CW" fromLane="0" toLane="1" dir="L" state="M"/>
    <connection from=":C_5" to="CW" fromLane="0" toLane="2" via=":C_15_0" dir="L" state="m"/>
    <connection from=":C_15" to="CW" fromLane="0" toLane="2" dir="L" state="M"/>
    <connection from=":C_6" to="CS" fromLane="0" toLane="2" via=":C_16_0" dir="l" state="m"/>
    <connection from=":C_16" to="CS" fromLane="0" toLane="2" dir="l" state="M"/>
    <connection from=":C_7" to="CE" fromLane="0" toLane="1" via=":C_17_0" dir="r" state="m"/>
    <connection from=":C_17" to="CE" fromLane="0" toLane="1" dir="r" state="M"/>
    <connection from=":C_8" to="CN" fromLane="0" toLane="1" dir="s" state="M"/>
    <connection from=":C_8" to="CN" fromLane="1" toLane="2" dir="s" state="M"/>
    <connection from=":C_10" to="CW" fromLane="0" toLane="2" via=":C_18_0" dir="l" state="m"/>
    <connection from=":C_18" to="CW" fromLane="0" toLane="2" dir="l" state="M"/>
    <connection from=":C_11" to="CS" fromLane="0" toLane="1" via=":C_19_0" dir="r" state="m"/>
    <connection from=":C_19" to="CS" fromLane="0" toLane="1" dir="r" state="M"/>
    <connection from=":C_12" to="CE" fromLane="0" toLane="1" via=":C_20_0" dir="R" state="m"/>
    <connection from=":C_20" to="CE" fromLane="0" toLane="1" dir="R" state="M"/>
    <connection from=":E_0" to="EC" fromLane="0" toLane="2" dir="t" state="M"/>
    <connection from=":N_0" to="NC" fromLane="0" toLane="2" dir="t" state="M"/>
    <connection from=":S_0" to="SC" fromLane="0" toLane="2" dir="t" state="M"/>
    <connection from=":W_0" to="WC" fromLane="0" toLane="1" dir="t" state="M"/>

    <connection from=":C_c0" to=":C_w0" fromLane="0" toLane="0" dir="s" state="M"/>
    <connection from=":C_c1" to=":C_w1" fromLane="0" toLane="0" dir="s" state="M"/>
    <connection from=":C_c2" to=":C_w2" fromLane="0" toLane="0" dir="s" state="M"/>
    <connection from=":C_c3" to=":C_w3" fromLane="0" toLane="0" dir="s" state="M"/>
    <connection from=":C_w0" to=":C_c3" fromLane="0" toLane="0" tl="C" linkIndex="16" dir="s" state="M"/>
    <connection from=":C_w0" to="CW" fromLane="0" toLane="0" dir="s" state="M"/>
    <connection from="NC" to=":C_w0" fromLane="0" toLane="0" dir="s" state="M"/>
    <connection from=":C_w1" to=":C_c0" fromLane="0" toLane="0" tl="C" linkIndex="13" dir="s" state="M"/>
    <connection from=":C_w1" to="CN" fromLane="0" toLane="0" dir="s" state="M"/>
    <connection from="EC" to=":C_w1" fromLane="0" toLane="0" dir="s" state="M"/>
    <connection from=":C_w2" to=":C_c1" fromLane="0" toLane="0" tl="C" linkIndex="14" dir="s" state="M"/>
    <connection from=":C_w2" to="CE" fromLane="0" toLane="0" dir="s" state="M"/>
    <connection from="SC" to=":C_w2" fromLane="0" toLane="0" dir="s" state="M"/>
    <connection from=":C_w3" to=":C_c2" fromLane="0" toLane="0" tl="C" linkIndex="15" dir="s" state="M"/>
    <connection from=":C_w3" to="CS" fromLane="0" toLane="0" dir="s" state="M"/>
    <connection from="WC" to=":C_w3" fromLane="0" toLane="0" dir="s" state="M"/>
    <connection from=":E_w0" to="EC" fromLane="0" toLane="0" dir="s" state="M"/>
    <connection from="CE" to=":E_w0" fromLane="0" toLane="0" dir="s" state="M"/>
    <connection from=":N_w0" to="NC" fromLane="0" toLane="0" dir="s" state="M"/>
    <connection from="CN" to=":N_w0" fromLane="0" toLane="0" dir="s" state="M"/>
    <connection from=":S_w0" to="SC" fromLane="0" toLane="0" dir="s" state="M"/>
    <connection from="CS" to=":S_w0" fromLane="0" toLane="0" dir="s" state="M"/>
    <connection from=":W_w0" to="WC" fromLane="0" toLane="0" dir="s" state="M"/>
    <connection from="CW" to=":W_w0" fromLane="0" toLane="0" dir="s" state="M"/>
</net>
