<?xml version="1.0" encoding="UTF-8"?>

<!-- generated on 12.12.2016 14:50:33 by Netedit Version 0.28.0
This data file and the accompanying materials
are made available under the terms of the Eclipse Public License v2.0
which accompanies this distribution, and is available at
http://www.eclipse.org/legal/epl-v20.html
SPDX-License-Identifier: EPL-2.0
<configuration xmlns:xsi="http://www.w3.org/2001/XMLSchema-instance" xsi:noNamespaceSchemaLocation="http://sumo.dlr.de/xsd/netedit.exeConfiguration.xsd">

    <input>
        <sumo-net-file value="C:\Users\luec_le\Pictures\tutorial_circles\circles.net.xml"/>
    </input>

    <output>
        <additionals-output value="C:\Users\luec_le\Pictures\tutorial_circles\circles.add"/>
        <output-file value="C:\Users\luec_le\Pictures\tutorial_circles\circles.net.xml"/>
    </output>

    <processing>
        <no-turnarounds value="true"/>
        <offset.disable-normalization value="true"/>
        <lefthand value="false"/>
        <junctions.corner-detail value="0"/>
    </processing>

</configuration>
-->

<net version="0.27" xmlns:xsi="http://www.w3.org/2001/XMLSchema-instance" xsi:noNamespaceSchemaLocation="http://sumo.dlr.de/xsd/net_file.xsd">

    <location netOffset="0.00,0.00" convBoundary="-35.18,-10.31,111.86,96.37" origBoundary="-10000000000.00,-10000000000.00,10000000000.00,10000000000.00" projParameter="!"/>

    <edge id=":edge1_0" function="internal">
        <lane id=":edge1_0_0" index="0" speed="13.89" length="1.24" shape="-18.78,79.14 -19.11,78.99 -19.32,78.84 -19.47,78.64 -19.62,78.31"/>
    </edge>
    <edge id=":gneJ0_0" function="internal">
        <lane id=":gneJ0_0_0" index="0" speed="13.89" length="0.79" shape="26.47,98.01 26.23,98.03 26.07,98.02 25.92,97.98 25.70,97.90"/>
    </edge>
    <edge id=":gneJ2_0" function="internal">
        <lane id=":gneJ2_0_0" index="0" speed="13.89" length="1.52" shape="-36.70,39.35 -36.82,38.98 -36.84,38.61 -36.77,38.25 -36.61,37.89"/>
    </edge>
    <edge id=":gneJ3_0" function="internal">
        <lane id=":gneJ3_0_0" index="0" speed="13.89" length="1.43" shape="-12.32,-3.00 -12.10,-3.30 -11.83,-3.53 -11.52,-3.68 -11.16,-3.77"/>
    </edge>
    <edge id=":gneJ4_0" function="internal">
        <lane id=":gneJ4_0_0" index="0" speed="13.89" length="0.98" shape="47.02,-11.95 47.30,-11.98 47.50,-11.97 47.69,-11.92 47.95,-11.79"/>
    </edge>
    <edge id=":gneJ5_0" function="internal">
        <lane id=":gneJ5_0_0" index="0" speed="13.89" length="1.07" shape="91.71,10.09 91.99,10.24 92.16,10.37 92.30,10.55 92.44,10.83"/>
    </edge>
    <edge id=":gneJ6_0" function="internal">
        <lane id=":gneJ6_0_0" index="0" speed="13.89" length="1.76" shape="113.36,54.12 113.51,54.55 113.53,54.97 113.43,55.38 113.20,55.78"/>
    </edge>
    <edge id=":gneJ7_0" function="internal">
        <lane id=":gneJ7_0_0" index="0" speed="13.89" length="1.33" shape="85.77,92.10 85.54,92.35 85.28,92.54 84.98,92.67 84.64,92.73"/>
    </edge>

    <edge id="edge1" from="gneJ7" to="gneJ0" priority="1">
        <lane id="edge1_0" index="0" speed="13.89" length="58.41" shape="84.64,92.73 26.47,98.01"/>
    </edge>
    <edge id="edge2" from="gneJ4" to="gneJ5" priority="1">
        <lane id="edge2_0" index="0" speed="13.89" length="48.93" shape="47.95,-11.79 91.71,10.09"/>
    </edge>
    <edge id="gneE0" from="gneJ0" to="edge1" priority="1">
        <lane id="gneE0_0" index="0" speed="13.89" length="48.27" shape="25.70,97.90 -18.78,79.14"/>
    </edge>
    <edge id="gneE1" from="edge1" to="gneJ2" priority="1">
        <lane id="gneE1_0" index="0" speed="13.89" length="42.54" shape="-19.62,78.31 -36.70,39.35"/>
    </edge>
    <edge id="gneE2" from="gneJ2" to="gneJ3" priority="1">
        <lane id="gneE2_0" index="0" speed="13.89" length="47.57" shape="-36.61,37.89 -12.32,-3.00"/>
    </edge>
    <edge id="gneE3" from="gneJ3" to="gneJ4" priority="1">
        <lane id="gneE3_0" index="0" speed="13.89" length="58.75" shape="-11.16,-3.77 47.02,-11.95"/>
    </edge>
    <edge id="gneE5" from="gneJ5" to="gneJ6" priority="1">
        <lane id="gneE5_0" index="0" speed="13.89" length="48.08" shape="92.44,10.83 113.36,54.12"/>
    </edge>
    <edge id="gneE6" from="gneJ6" to="gneJ7" priority="1">
        <lane id="gneE6_0" index="0" speed="13.89" length="45.51" shape="113.20,55.78 85.77,92.10"/>
    </edge>

    <junction id="edge1" type="priority" x="-18.12" y="77.63" incLanes="gneE0_0" intLanes=":edge1_0_0" shape="-19.40,80.62 -18.16,77.67 -21.09,78.95">
        <request index="0" response="0" foes="0" cont="0"/>
    </junction>
    <junction id="gneJ0" type="priority" x="26.33" y="96.37" incLanes="edge1_0" intLanes=":gneJ0_0_0" shape="26.61,99.61 26.32,96.42 25.08,99.37">
        <request index="0" response="0" foes="0" cont="0"/>
    </junction>
    <junction id="gneJ2" type="priority" x="-35.18" y="38.71" incLanes="gneE1_0" intLanes=":gneJ2_0_0" shape="-38.17,39.99 -35.24,38.71 -37.99,37.07">
        <request index="0" response="0" foes="0" cont="0"/>
    </junction>
    <junction id="gneJ3" type="priority" x="-10.91" y="-2.14" incLanes="gneE2_0" intLanes=":gneJ3_0_0" shape="-10.94,-2.19 -11.39,-5.36 -13.69,-3.82">
        <request index="0" response="0" foes="0" cont="0"/>
    </junction>
    <junction id="gneJ4" type="priority" x="47.23" y="-10.31" incLanes="gneE3_0" intLanes=":gneJ4_0_0" shape="47.24,-10.36 48.67,-13.22 46.79,-13.53">
        <request index="0" response="0" foes="0" cont="0"/>
    </junction>
    <junction id="gneJ5" type="priority" x="90.96" y="11.56" incLanes="edge2_0" intLanes=":gneJ5_0_0" shape="91.00,11.52 93.88,10.13 92.43,8.66">
        <request index="0" response="0" foes="0" cont="0"/>
    </junction>
    <junction id="gneJ6" type="priority" x="111.86" y="54.81" incLanes="gneE5_0" intLanes=":gneJ6_0_0" shape="114.80,53.42 111.92,54.82 114.47,56.74">
        <request index="0" response="0" foes="0" cont="0"/>
    </junction>
    <junction id="gneJ7" type="priority" x="84.47" y="91.09" incLanes="gneE6_0" intLanes=":gneJ7_0_0" shape="87.05,93.07 84.50,91.14 84.79,94.32">
        <request index="0" response="0" foes="0" cont="0"/>
    </junction>

    <connection from="edge1" to="gneE0" fromLane="0" toLane="0" via=":gneJ0_0_0" dir="s" state="M"/>
    <connection from="edge2" to="gneE5" fromLane="0" toLane="0" via=":gneJ5_0_0" dir="s" state="M"/>
    <connection from="gneE0" to="gneE1" fromLane="0" toLane="0" via=":edge1_0_0" dir="s" state="M"/>
    <connection from="gneE1" to="gneE2" fromLane="0" toLane="0" via=":gneJ2_0_0" dir="l" state="M"/>
    <connection from="gneE2" to="gneE3" fromLane="0" toLane="0" via=":gneJ3_0_0" dir="l" state="M"/>
    <connection from="gneE3" to="edge2" fromLane="0" toLane="0" via=":gneJ4_0_0" dir="s" state="M"/>
    <connection from="gneE5" to="gneE6" fromLane="0" toLane="0" via=":gneJ6_0_0" dir="l" state="M"/>
    <connection from="gneE6" to="edge1" fromLane="0" toLane="0" via=":gneJ7_0_0" dir="l" state="M"/>

    <connection from=":edge1_0" to="gneE1" fromLane="0" toLane="0" dir="s" state="M"/>
    <connection from=":gneJ0_0" to="gneE0" fromLane="0" toLane="0" dir="s" state="M"/>
    <connection from=":gneJ2_0" to="gneE2" fromLane="0" toLane="0" dir="s" state="M"/>
    <connection from=":gneJ3_0" to="gneE3" fromLane="0" toLane="0" dir="s" state="M"/>
    <connection from=":gneJ4_0" to="edge2" fromLane="0" toLane="0" dir="s" state="M"/>
    <connection from=":gneJ5_0" to="gneE5" fromLane="0" toLane="0" dir="s" state="M"/>
    <connection from=":gneJ6_0" to="gneE6" fromLane="0" toLane="0" dir="s" state="M"/>
    <connection from=":gneJ7_0" to="edge1" fromLane="0" toLane="0" dir="s" state="M"/>

</net>
