<?xml version="1.0" encoding="UTF-8"?>

<!-- generated on 02/26/16 14:52:01 by SUMO marouter Version dev-SVN-r20083
<?xml version="1.0" encoding="UTF-8"?>

<configuration xmlns:xsi="http://www.w3.org/2001/XMLSchema-instance" xsi:noNamespaceSchemaLocation="http://sumo.dlr.de/xsd/marouterConfiguration.xsd">

    <input>
        <net-file value="input_net.net.xml"/>
        <additional-files value="input_taz.taz.xml"/>
        <od-matrix-files value="input_od_v.fma"/>
    </input>

    <output>
        <output-file value="routes.rou.xml"/>
    </output>

    <processing>
        <timeline value="0.9,0.5,0.2,0.2,0.5,1.3,7.0,9.3,6.7,4.2,4.0,3.8,4.1,4.6,5.0,6.7,9.6,9.2,7.1,4.8,3.5,2.7,2.2,1.9"/>
        <timeline.day-in-hours value="true"/>
        <additive-traffic value="true"/>
    </processing>

    <report>
        <xml-validation value="never"/>
    </report>

</configuration>
-->

<routes xmlns:xsi="http://www.w3.org/2001/XMLSchema-instance" xsi:noNamespaceSchemaLocation="http://sumo.dlr.de/xsd/routes_file.xsd">
    <flow id="0" begin="0.00" end="3600.00" number="0" fromTaz="0" toTaz="1" departLane="free" departSpeed="max">
        <routeDistribution>
            <route cost="41.80" probability="0.04500000" edges="top0to0/2 0/2to1/2 1/2totop1"/>
        </routeDistribution>
    </flow>
    <flow id="1" begin="0.00" end="3600.00" number="0" fromTaz="0" toTaz="2" departLane="free" departSpeed="max">
        <routeDistribution>
            <route cost="69.89" probability="0.04500000" edges="top0to0/2 0/2to1/2 1/2to2/2 2/2totop2"/>
        </routeDistribution>
    </flow>
    <flow id="2" begin="0.00" end="3600.00" number="0" fromTaz="0" toTaz="3" departLane="free" departSpeed="max">
        <routeDistribution>
            <route cost="126.08" probability="0.09000000" edges="top0to0/2 0/2to0/1 0/1to0/0 0/0to1/0 1/0to2/0 2/0toright0"/>
        </routeDistribution>
    </flow>
    <flow id="3" begin="0.00" end="3600.00" number="0" fromTaz="0" toTaz="4" departLane="free" departSpeed="max">
        <routeDistribution>
            <route cost="97.99" probability="0.09000000" edges="top0to0/2 0/2to0/1 0/1to1/1 1/1to2/1 2/1toright1"/>
        </routeDistribution>
    </flow>
    <flow id="4" begin="0.00" end="3600.00" number="0" fromTaz="1" toTaz="0" departLane="free" departSpeed="max">
        <routeDistribution>
            <route cost="41.80" probability="0.04500000" edges="top1to1/2 1/2to0/2 0/2totop0"/>
        </routeDistribution>
    </flow>
    <flow id="5" begin="0.00" end="3600.00" number="0" fromTaz="1" toTaz="2" departLane="free" departSpeed="max">
        <routeDistribution>
            <route cost="41.80" probability="0.04500000" edges="top1to1/2 1/2to2/2 2/2totop2"/>
        </routeDistribution>
    </flow>
    <flow id="6" begin="0.00" end="3600.00" number="0" fromTaz="1" toTaz="3" departLane="free" departSpeed="max">
        <routeDistribution>
            <route cost="97.99" probability="0.09000000" edges="top1to1/2 1/2to1/1 1/1to1/0 1/0to2/0 2/0toright0"/>
        </routeDistribution>
    </flow>
    <flow id="7" begin="0.00" end="3600.00" number="0" fromTaz="1" toTaz="4" departLane="free" departSpeed="max">
        <routeDistribution>
            <route cost="69.89" probability="0.09000000" edges="top1to1/2 1/2to1/1 1/1to2/1 2/1toright1"/>
        </routeDistribution>
    </flow>
    <flow id="8" begin="0.00" end="3600.00" number="0" fromTaz="2" toTaz="0" departLane="free" departSpeed="max">
        <routeDistribution>
            <route cost="69.89" probability="0.04500000" edges="top2to2/2 2/2to1/2 1/2to0/2 0/2totop0"/>
        </routeDistribution>
    </flow>
    <flow id="9" begin="0.00" end="3600.00" number="0" fromTaz="2" toTaz="1" departLane="free" departSpeed="max">
        <routeDistribution>
            <route cost="41.80" probability="0.04500000" edges="top2to2/2 2/2to1/2 1/2totop1"/>
        </routeDistribution>
    </flow>
    <flow id="10" begin="0.00" end="3600.00" number="0" fromTaz="2" toTaz="3" departLane="free" departSpeed="max">
        <routeDistribution>
            <route cost="69.89" probability="0.09000000" edges="top2to2/2 2/2to2/1 2/1to2/0 2/0toright0"/>
        </routeDistribution>
    </flow>
    <flow id="11" begin="0.00" end="3600.00" number="0" fromTaz="2" toTaz="4" departLane="free" departSpeed="max">
        <routeDistribution>
            <route cost="41.80" probability="0.09000000" edges="top2to2/2 2/2to2/1 2/1toright1"/>
        </routeDistribution>
    </flow>
    <flow id="12" begin="0.00" end="3600.00" number="0" fromTaz="3" toTaz="0" departLane="free" departSpeed="max">
        <routeDistribution>
            <route cost="126.08" probability="0.09000000" edges="right0to2/0 2/0to1/0 1/0to0/0 0/0to0/1 0/1to0/2 0/2totop0"/>
        </routeDistribution>
    </flow>
    <flow id="13" begin="0.00" end="3600.00" number="0" fromTaz="3" toTaz="1" departLane="free" departSpeed="max">
        <routeDistribution>
            <route cost="97.99" probability="0.09000000" edges="right0to2/0 2/0to1/0 1/0to1/1 1/1to1/2 1/2totop1"/>
        </routeDistribution>
    </flow>
    <flow id="14" begin="0.00" end="3600.00" number="0" fromTaz="3" toTaz="2" departLane="free" departSpeed="max">
        <routeDistribution>
            <route cost="69.89" probability="0.09000000" edges="right0to2/0 2/0to2/1 2/1to2/2 2/2totop2"/>
        </routeDistribution>
    </flow>
    <flow id="15" begin="0.00" end="3600.00" number="0" fromTaz="3" toTaz="4" departLane="free" departSpeed="max">
        <routeDistribution>
            <route cost="41.80" probability="0.04500000" edges="right0to2/0 2/0to2/1 2/1toright1"/>
        </routeDistribution>
    </flow>
    <flow id="16" begin="0.00" end="3600.00" number="0" fromTaz="4" toTaz="0" departLane="free" departSpeed="max">
        <routeDistribution>
            <route cost="97.99" probability="0.09000000" edges="right1to2/1 2/1to1/1 1/1to0/1 0/1to0/2 0/2totop0"/>
        </routeDistribution>
    </flow>
    <flow id="17" begin="0.00" end="3600.00" number="0" fromTaz="4" toTaz="1" departLane="free" departSpeed="max">
        <routeDistribution>
            <route cost="69.89" probability="0.09000000" edges="right1to2/1 2/1to1/1 1/1to1/2 1/2totop1"/>
        </routeDistribution>
    </flow>
    <flow id="18" begin="0.00" end="3600.00" number="0" fromTaz="4" toTaz="2" departLane="free" departSpeed="max">
        <routeDistribution>
            <route cost="41.80" probability="0.09000000" edges="right1to2/1 2/1to2/2 2/2totop2"/>
        </routeDistribution>
    </flow>
    <flow id="19" begin="0.00" end="3600.00" number="0" fromTaz="4" toTaz="3" departLane="free" departSpeed="max">
        <routeDistribution>
            <route cost="41.80" probability="0.04500000" edges="right1to2/1 2/1to2/0 2/0toright0"/>
        </routeDistribution>
    </flow>
    <flow id="20" begin="3600.00" end="7200.00" number="0" fromTaz="0" toTaz="1" departLane="free" departSpeed="max">
        <routeDistribution>
            <route cost="41.80" probability="0.02500000" edges="top0to0/2 0/2to1/2 1/2totop1"/>
        </routeDistribution>
    </flow>
    <flow id="21" begin="3600.00" end="7200.00" number="0" fromTaz="0" toTaz="2" departLane="free" departSpeed="max">
        <routeDistribution>
            <route cost="69.89" probability="0.02500000" edges="top0to0/2 0/2to1/2 1/2to2/2 2/2totop2"/>
        </routeDistribution>
    </flow>
    <flow id="22" begin="3600.00" end="7200.00" number="0" fromTaz="0" toTaz="3" departLane="free" departSpeed="max">
        <routeDistribution>
            <route cost="126.08" probability="0.05000000" edges="top0to0/2 0/2to0/1 0/1to0/0 0/0to1/0 1/0to2/0 2/0toright0"/>
        </routeDistribution>
    </flow>
    <flow id="23" begin="3600.00" end="7200.00" number="0" fromTaz="0" toTaz="4" departLane="free" departSpeed="max">
        <routeDistribution>
            <route cost="97.99" probability="0.05000000" edges="top0to0/2 0/2to0/1 0/1to1/1 1/1to2/1 2/1toright1"/>
        </routeDistribution>
    </flow>
    <flow id="24" begin="3600.00" end="7200.00" number="0" fromTaz="1" toTaz="0" departLane="free" departSpeed="max">
        <routeDistribution>
            <route cost="41.80" probability="0.02500000" edges="top1to1/2 1/2to0/2 0/2totop0"/>
        </routeDistribution>
    </flow>
    <flow id="25" begin="3600.00" end="7200.00" number="0" fromTaz="1" toTaz="2" departLane="free" departSpeed="max">
        <routeDistribution>
            <route cost="41.80" probability="0.02500000" edges="top1to1/2 1/2to2/2 2/2totop2"/>
        </routeDistribution>
    </flow>
    <flow id="26" begin="3600.00" end="7200.00" number="0" fromTaz="1" toTaz="3" departLane="free" departSpeed="max">
        <routeDistribution>
            <route cost="97.99" probability="0.05000000" edges="top1to1/2 1/2to1/1 1/1to1/0 1/0to2/0 2/0toright0"/>
        </routeDistribution>
    </flow>
    <flow id="27" begin="3600.00" end="7200.00" number="0" fromTaz="1" toTaz="4" departLane="free" departSpeed="max">
        <routeDistribution>
            <route cost="69.89" probability="0.05000000" edges="top1to1/2 1/2to1/1 1/1to2/1 2/1toright1"/>
        </routeDistribution>
    </flow>
    <flow id="28" begin="3600.00" end="7200.00" number="0" fromTaz="2" toTaz="0" departLane="free" departSpeed="max">
        <routeDistribution>
            <route cost="69.89" probability="0.02500000" edges="top2to2/2 2/2to1/2 1/2to0/2 0/2totop0"/>
        </routeDistribution>
    </flow>
    <flow id="29" begin="3600.00" end="7200.00" number="0" fromTaz="2" toTaz="1" departLane="free" departSpeed="max">
        <routeDistribution>
            <route cost="41.80" probability="0.02500000" edges="top2to2/2 2/2to1/2 1/2totop1"/>
        </routeDistribution>
    </flow>
    <flow id="30" begin="3600.00" end="7200.00" number="0" fromTaz="2" toTaz="3" departLane="free" departSpeed="max">
        <routeDistribution>
            <route cost="69.89" probability="0.05000000" edges="top2to2/2 2/2to2/1 2/1to2/0 2/0toright0"/>
        </routeDistribution>
    </flow>
    <flow id="31" begin="3600.00" end="7200.00" number="0" fromTaz="2" toTaz="4" departLane="free" departSpeed="max">
        <routeDistribution>
            <route cost="41.80" probability="0.05000000" edges="top2to2/2 2/2to2/1 2/1toright1"/>
        </routeDistribution>
    </flow>
    <flow id="32" begin="3600.00" end="7200.00" number="0" fromTaz="3" toTaz="0" departLane="free" departSpeed="max">
        <routeDistribution>
            <route cost="126.08" probability="0.05000000" edges="right0to2/0 2/0to1/0 1/0to0/0 0/0to0/1 0/1to0/2 0/2totop0"/>
        </routeDistribution>
    </flow>
    <flow id="33" begin="3600.00" end="7200.00" number="0" fromTaz="3" toTaz="1" departLane="free" departSpeed="max">
        <routeDistribution>
            <route cost="97.99" probability="0.05000000" edges="right0to2/0 2/0to1/0 1/0to1/1 1/1to1/2 1/2totop1"/>
        </routeDistribution>
    </flow>
    <flow id="34" begin="3600.00" end="7200.00" number="0" fromTaz="3" toTaz="2" departLane="free" departSpeed="max">
        <routeDistribution>
            <route cost="69.89" probability="0.05000000" edges="right0to2/0 2/0to2/1 2/1to2/2 2/2totop2"/>
        </routeDistribution>
    </flow>
    <flow id="35" begin="3600.00" end="7200.00" number="0" fromTaz="3" toTaz="4" departLane="free" departSpeed="max">
        <routeDistribution>
            <route cost="41.80" probability="0.02500000" edges="right0to2/0 2/0to2/1 2/1toright1"/>
        </routeDistribution>
    </flow>
    <flow id="36" begin="3600.00" end="7200.00" number="0" fromTaz="4" toTaz="0" departLane="free" departSpeed="max">
        <routeDistribution>
            <route cost="97.99" probability="0.05000000" edges="right1to2/1 2/1to1/1 1/1to0/1 0/1to0/2 0/2totop0"/>
        </routeDistribution>
    </flow>
    <flow id="37" begin="3600.00" end="7200.00" number="0" fromTaz="4" toTaz="1" departLane="free" departSpeed="max">
        <routeDistribution>
            <route cost="69.89" probability="0.05000000" edges="right1to2/1 2/1to1/1 1/1to1/2 1/2totop1"/>
        </routeDistribution>
    </flow>
    <flow id="38" begin="3600.00" end="7200.00" number="0" fromTaz="4" toTaz="2" departLane="free" departSpeed="max">
        <routeDistribution>
            <route cost="41.80" probability="0.05000000" edges="right1to2/1 2/1to2/2 2/2totop2"/>
        </routeDistribution>
    </flow>
    <flow id="39" begin="3600.00" end="7200.00" number="0" fromTaz="4" toTaz="3" departLane="free" departSpeed="max">
        <routeDistribution>
            <route cost="41.80" probability="0.02500000" edges="right1to2/1 2/1to2/0 2/0toright0"/>
        </routeDistribution>
    </flow>
    <flow id="40" begin="7200.00" end="10800.00" number="0" fromTaz="0" toTaz="1" departLane="free" departSpeed="max">
        <routeDistribution>
            <route cost="41.80" probability="0.01000000" edges="top0to0/2 0/2to1/2 1/2totop1"/>
        </routeDistribution>
    </flow>
    <flow id="41" begin="7200.00" end="10800.00" number="0" fromTaz="0" toTaz="2" departLane="free" departSpeed="max">
        <routeDistribution>
            <route cost="69.89" probability="0.01000000" edges="top0to0/2 0/2to1/2 1/2to2/2 2/2totop2"/>
        </routeDistribution>
    </flow>
    <flow id="42" begin="7200.00" end="10800.00" number="0" fromTaz="0" toTaz="3" departLane="free" departSpeed="max">
        <routeDistribution>
            <route cost="126.08" probability="0.02000000" edges="top0to0/2 0/2to0/1 0/1to0/0 0/0to1/0 1/0to2/0 2/0toright0"/>
        </routeDistribution>
    </flow>
    <flow id="43" begin="7200.00" end="10800.00" number="0" fromTaz="0" toTaz="4" departLane="free" departSpeed="max">
        <routeDistribution>
            <route cost="97.99" probability="0.02000000" edges="top0to0/2 0/2to0/1 0/1to1/1 1/1to2/1 2/1toright1"/>
        </routeDistribution>
    </flow>
    <flow id="44" begin="7200.00" end="10800.00" number="0" fromTaz="1" toTaz="0" departLane="free" departSpeed="max">
        <routeDistribution>
            <route cost="41.80" probability="0.01000000" edges="top1to1/2 1/2to0/2 0/2totop0"/>
        </routeDistribution>
    </flow>
    <flow id="45" begin="7200.00" end="10800.00" number="0" fromTaz="1" toTaz="2" departLane="free" departSpeed="max">
        <routeDistribution>
            <route cost="41.80" probability="0.01000000" edges="top1to1/2 1/2to2/2 2/2totop2"/>
        </routeDistribution>
    </flow>
    <flow id="46" begin="7200.00" end="10800.00" number="0" fromTaz="1" toTaz="3" departLane="free" departSpeed="max">
        <routeDistribution>
            <route cost="97.99" probability="0.02000000" edges="top1to1/2 1/2to1/1 1/1to1/0 1/0to2/0 2/0toright0"/>
        </routeDistribution>
    </flow>
    <flow id="47" begin="7200.00" end="10800.00" number="0" fromTaz="1" toTaz="4" departLane="free" departSpeed="max">
        <routeDistribution>
            <route cost="69.89" probability="0.02000000" edges="top1to1/2 1/2to1/1 1/1to2/1 2/1toright1"/>
        </routeDistribution>
    </flow>
    <flow id="48" begin="7200.00" end="10800.00" number="0" fromTaz="2" toTaz="0" departLane="free" departSpeed="max">
        <routeDistribution>
            <route cost="69.89" probability="0.01000000" edges="top2to2/2 2/2to1/2 1/2to0/2 0/2totop0"/>
        </routeDistribution>
    </flow>
    <flow id="49" begin="7200.00" end="10800.00" number="0" fromTaz="2" toTaz="1" departLane="free" departSpeed="max">
        <routeDistribution>
            <route cost="41.80" probability="0.01000000" edges="top2to2/2 2/2to1/2 1/2totop1"/>
        </routeDistribution>
    </flow>
    <flow id="50" begin="7200.00" end="10800.00" number="0" fromTaz="2" toTaz="3" departLane="free" departSpeed="max">
        <routeDistribution>
            <route cost="69.89" probability="0.02000000" edges="top2to2/2 2/2to2/1 2/1to2/0 2/0toright0"/>
        </routeDistribution>
    </flow>
    <flow id="51" begin="7200.00" end="10800.00" number="0" fromTaz="2" toTaz="4" departLane="free" departSpeed="max">
        <routeDistribution>
            <route cost="41.80" probability="0.02000000" edges="top2to2/2 2/2to2/1 2/1toright1"/>
        </routeDistribution>
    </flow>
    <flow id="52" begin="7200.00" end="10800.00" number="0" fromTaz="3" toTaz="0" departLane="free" departSpeed="max">
        <routeDistribution>
            <route cost="126.08" probability="0.02000000" edges="right0to2/0 2/0to1/0 1/0to0/0 0/0to0/1 0/1to0/2 0/2totop0"/>
        </routeDistribution>
    </flow>
    <flow id="53" begin="7200.00" end="10800.00" number="0" fromTaz="3" toTaz="1" departLane="free" departSpeed="max">
        <routeDistribution>
            <route cost="97.99" probability="0.02000000" edges="right0to2/0 2/0to1/0 1/0to1/1 1/1to1/2 1/2totop1"/>
        </routeDistribution>
    </flow>
    <flow id="54" begin="7200.00" end="10800.00" number="0" fromTaz="3" toTaz="2" departLane="free" departSpeed="max">
        <routeDistribution>
            <route cost="69.89" probability="0.02000000" edges="right0to2/0 2/0to2/1 2/1to2/2 2/2totop2"/>
        </routeDistribution>
    </flow>
    <flow id="55" begin="7200.00" end="10800.00" number="0" fromTaz="3" toTaz="4" departLane="free" departSpeed="max">
        <routeDistribution>
            <route cost="41.80" probability="0.01000000" edges="right0to2/0 2/0to2/1 2/1toright1"/>
        </routeDistribution>
    </flow>
    <flow id="56" begin="7200.00" end="10800.00" number="0" fromTaz="4" toTaz="0" departLane="free" departSpeed="max">
        <routeDistribution>
            <route cost="97.99" probability="0.02000000" edges="right1to2/1 2/1to1/1 1/1to0/1 0/1to0/2 0/2totop0"/>
        </routeDistribution>
    </flow>
    <flow id="57" begin="7200.00" end="10800.00" number="0" fromTaz="4" toTaz="1" departLane="free" departSpeed="max">
        <routeDistribution>
            <route cost="69.89" probability="0.02000000" edges="right1to2/1 2/1to1/1 1/1to1/2 1/2totop1"/>
        </routeDistribution>
    </flow>
    <flow id="58" begin="7200.00" end="10800.00" number="0" fromTaz="4" toTaz="2" departLane="free" departSpeed="max">
        <routeDistribution>
            <route cost="41.80" probability="0.02000000" edges="right1to2/1 2/1to2/2 2/2totop2"/>
        </routeDistribution>
    </flow>
    <flow id="59" begin="7200.00" end="10800.00" number="0" fromTaz="4" toTaz="3" departLane="free" departSpeed="max">
        <routeDistribution>
            <route cost="41.80" probability="0.01000000" edges="right1to2/1 2/1to2/0 2/0toright0"/>
        </routeDistribution>
    </flow>
    <flow id="60" begin="10800.00" end="14400.00" number="0" fromTaz="0" toTaz="1" departLane="free" departSpeed="max">
        <routeDistribution>
            <route cost="41.80" probability="0.01000000" edges="top0to0/2 0/2to1/2 1/2totop1"/>
        </routeDistribution>
    </flow>
    <flow id="61" begin="10800.00" end="14400.00" number="0" fromTaz="0" toTaz="2" departLane="free" departSpeed="max">
        <routeDistribution>
            <route cost="69.89" probability="0.01000000" edges="top0to0/2 0/2to1/2 1/2to2/2 2/2totop2"/>
        </routeDistribution>
    </flow>
    <flow id="62" begin="10800.00" end="14400.00" number="0" fromTaz="0" toTaz="3" departLane="free" departSpeed="max">
        <routeDistribution>
            <route cost="126.08" probability="0.02000000" edges="top0to0/2 0/2to0/1 0/1to0/0 0/0to1/0 1/0to2/0 2/0toright0"/>
        </routeDistribution>
    </flow>
    <flow id="63" begin="10800.00" end="14400.00" number="0" fromTaz="0" toTaz="4" departLane="free" departSpeed="max">
        <routeDistribution>
            <route cost="97.99" probability="0.02000000" edges="top0to0/2 0/2to0/1 0/1to1/1 1/1to2/1 2/1toright1"/>
        </routeDistribution>
    </flow>
    <flow id="64" begin="10800.00" end="14400.00" number="0" fromTaz="1" toTaz="0" departLane="free" departSpeed="max">
        <routeDistribution>
            <route cost="41.80" probability="0.01000000" edges="top1to1/2 1/2to0/2 0/2totop0"/>
        </routeDistribution>
    </flow>
    <flow id="65" begin="10800.00" end="14400.00" number="0" fromTaz="1" toTaz="2" departLane="free" departSpeed="max">
        <routeDistribution>
            <route cost="41.80" probability="0.01000000" edges="top1to1/2 1/2to2/2 2/2totop2"/>
        </routeDistribution>
    </flow>
    <flow id="66" begin="10800.00" end="14400.00" number="0" fromTaz="1" toTaz="3" departLane="free" departSpeed="max">
        <routeDistribution>
            <route cost="97.99" probability="0.02000000" edges="top1to1/2 1/2to1/1 1/1to1/0 1/0to2/0 2/0toright0"/>
        </routeDistribution>
    </flow>
    <flow id="67" begin="10800.00" end="14400.00" number="0" fromTaz="1" toTaz="4" departLane="free" departSpeed="max">
        <routeDistribution>
            <route cost="69.89" probability="0.02000000" edges="top1to1/2 1/2to1/1 1/1to2/1 2/1toright1"/>
        </routeDistribution>
    </flow>
    <flow id="68" begin="10800.00" end="14400.00" number="0" fromTaz="2" toTaz="0" departLane="free" departSpeed="max">
        <routeDistribution>
            <route cost="69.89" probability="0.01000000" edges="top2to2/2 2/2to1/2 1/2to0/2 0/2totop0"/>
        </routeDistribution>
    </flow>
    <flow id="69" begin="10800.00" end="14400.00" number="0" fromTaz="2" toTaz="1" departLane="free" departSpeed="max">
        <routeDistribution>
            <route cost="41.80" probability="0.01000000" edges="top2to2/2 2/2to1/2 1/2totop1"/>
        </routeDistribution>
    </flow>
    <flow id="70" begin="10800.00" end="14400.00" number="0" fromTaz="2" toTaz="3" departLane="free" departSpeed="max">
        <routeDistribution>
            <route cost="69.89" probability="0.02000000" edges="top2to2/2 2/2to2/1 2/1to2/0 2/0toright0"/>
        </routeDistribution>
    </flow>
    <flow id="71" begin="10800.00" end="14400.00" number="0" fromTaz="2" toTaz="4" departLane="free" departSpeed="max">
        <routeDistribution>
            <route cost="41.80" probability="0.02000000" edges="top2to2/2 2/2to2/1 2/1toright1"/>
        </routeDistribution>
    </flow>
    <flow id="72" begin="10800.00" end="14400.00" number="0" fromTaz="3" toTaz="0" departLane="free" departSpeed="max">
        <routeDistribution>
            <route cost="126.08" probability="0.02000000" edges="right0to2/0 2/0to1/0 1/0to0/0 0/0to0/1 0/1to0/2 0/2totop0"/>
        </routeDistribution>
    </flow>
    <flow id="73" begin="10800.00" end="14400.00" number="0" fromTaz="3" toTaz="1" departLane="free" departSpeed="max">
        <routeDistribution>
            <route cost="97.99" probability="0.02000000" edges="right0to2/0 2/0to1/0 1/0to1/1 1/1to1/2 1/2totop1"/>
        </routeDistribution>
    </flow>
    <flow id="74" begin="10800.00" end="14400.00" number="0" fromTaz="3" toTaz="2" departLane="free" departSpeed="max">
        <routeDistribution>
            <route cost="69.89" probability="0.02000000" edges="right0to2/0 2/0to2/1 2/1to2/2 2/2totop2"/>
        </routeDistribution>
    </flow>
    <flow id="75" begin="10800.00" end="14400.00" number="0" fromTaz="3" toTaz="4" departLane="free" departSpeed="max">
        <routeDistribution>
            <route cost="41.80" probability="0.01000000" edges="right0to2/0 2/0to2/1 2/1toright1"/>
        </routeDistribution>
    </flow>
    <flow id="76" begin="10800.00" end="14400.00" number="0" fromTaz="4" toTaz="0" departLane="free" departSpeed="max">
        <routeDistribution>
            <route cost="97.99" probability="0.02000000" edges="right1to2/1 2/1to1/1 1/1to0/1 0/1to0/2 0/2totop0"/>
        </routeDistribution>
    </flow>
    <flow id="77" begin="10800.00" end="14400.00" number="0" fromTaz="4" toTaz="1" departLane="free" departSpeed="max">
        <routeDistribution>
            <route cost="69.89" probability="0.02000000" edges="right1to2/1 2/1to1/1 1/1to1/2 1/2totop1"/>
        </routeDistribution>
    </flow>
    <flow id="78" begin="10800.00" end="14400.00" number="0" fromTaz="4" toTaz="2" departLane="free" departSpeed="max">
        <routeDistribution>
            <route cost="41.80" probability="0.02000000" edges="right1to2/1 2/1to2/2 2/2totop2"/>
        </routeDistribution>
    </flow>
    <flow id="79" begin="10800.00" end="14400.00" number="0" fromTaz="4" toTaz="3" departLane="free" departSpeed="max">
        <routeDistribution>
            <route cost="41.80" probability="0.01000000" edges="right1to2/1 2/1to2/0 2/0toright0"/>
        </routeDistribution>
    </flow>
    <flow id="80" begin="14400.00" end="18000.00" number="0" fromTaz="0" toTaz="1" departLane="free" departSpeed="max">
        <routeDistribution>
            <route cost="41.80" probability="0.02500000" edges="top0to0/2 0/2to1/2 1/2totop1"/>
        </routeDistribution>
    </flow>
    <flow id="81" begin="14400.00" end="18000.00" number="0" fromTaz="0" toTaz="2" departLane="free" departSpeed="max">
        <routeDistribution>
            <route cost="69.89" probability="0.02500000" edges="top0to0/2 0/2to1/2 1/2to2/2 2/2totop2"/>
        </routeDistribution>
    </flow>
    <flow id="82" begin="14400.00" end="18000.00" number="0" fromTaz="0" toTaz="3" departLane="free" departSpeed="max">
        <routeDistribution>
            <route cost="126.08" probability="0.03750000" edges="top0to0/2 0/2to1/2 1/2to2/2 2/2to2/1 2/1to2/0 2/0toright0"/>
            <route cost="126.08" probability="0.01250000" edges="top0to0/2 0/2to0/1 0/1to0/0 0/0to1/0 1/0to2/0 2/0toright0"/>
        </routeDistribution>
    </flow>
    <flow id="83" begin="14400.00" end="18000.00" number="0" fromTaz="0" toTaz="4" departLane="free" departSpeed="max">
        <routeDistribution>
            <route cost="97.99" probability="0.00500000" edges="top0to0/2 0/2to0/1 0/1to1/1 1/1to2/1 2/1toright1"/>
            <route cost="97.99" probability="0.04500000" edges="top0to0/2 0/2to1/2 1/2to2/2 2/2to2/1 2/1toright1"/>
        </routeDistribution>
    </flow>
    <flow id="84" begin="14400.00" end="18000.00" number="0" fromTaz="1" toTaz="0" departLane="free" departSpeed="max">
        <routeDistribution>
            <route cost="41.80" probability="0.02500000" edges="top1to1/2 1/2to0/2 0/2totop0"/>
        </routeDistribution>
    </flow>
    <flow id="85" begin="14400.00" end="18000.00" number="0" fromTaz="1" toTaz="2" departLane="free" departSpeed="max">
        <routeDistribution>
            <route cost="41.80" probability="0.02500000" edges="top1to1/2 1/2to2/2 2/2totop2"/>
        </routeDistribution>
    </flow>
    <flow id="86" begin="14400.00" end="18000.00" number="0" fromTaz="1" toTaz="3" departLane="free" departSpeed="max">
        <routeDistribution>
            <route cost="97.99" probability="0.05000000" edges="top1to1/2 1/2to1/1 1/1to1/0 1/0to2/0 2/0toright0"/>
        </routeDistribution>
    </flow>
    <flow id="87" begin="14400.00" end="18000.00" number="0" fromTaz="1" toTaz="4" departLane="free" departSpeed="max">
        <routeDistribution>
            <route cost="69.89" probability="0.00500000" edges="top1to1/2 1/2to1/1 1/1to2/1 2/1toright1"/>
            <route cost="69.89" probability="0.04500000" edges="top1to1/2 1/2to2/2 2/2to2/1 2/1toright1"/>
        </routeDistribution>
    </flow>
    <flow id="88" begin="14400.00" end="18000.00" number="0" fromTaz="2" toTaz="0" departLane="free" departSpeed="max">
        <routeDistribution>
            <route cost="69.89" probability="0.02500000" edges="top2to2/2 2/2to1/2 1/2to0/2 0/2totop0"/>
        </routeDistribution>
    </flow>
    <flow id="89" begin="14400.00" end="18000.00" number="0" fromTaz="2" toTaz="1" departLane="free" departSpeed="max">
        <routeDistribution>
            <route cost="41.80" probability="0.02500000" edges="top2to2/2 2/2to1/2 1/2totop1"/>
        </routeDistribution>
    </flow>
    <flow id="90" begin="14400.00" end="18000.00" number="0" fromTaz="2" toTaz="3" departLane="free" departSpeed="max">
        <routeDistribution>
            <route cost="69.89" probability="0.05000000" edges="top2to2/2 2/2to2/1 2/1to2/0 2/0toright0"/>
        </routeDistribution>
    </flow>
    <flow id="91" begin="14400.00" end="18000.00" number="0" fromTaz="2" toTaz="4" departLane="free" departSpeed="max">
        <routeDistribution>
            <route cost="41.80" probability="0.05000000" edges="top2to2/2 2/2to2/1 2/1toright1"/>
        </routeDistribution>
    </flow>
    <flow id="92" begin="14400.00" end="18000.00" number="0" fromTaz="3" toTaz="0" departLane="free" departSpeed="max">
        <routeDistribution>
            <route cost="126.08" probability="0.00500000" edges="right0to2/0 2/0to1/0 1/0to0/0 0/0to0/1 0/1to0/2 0/2totop0"/>
            <route cost="126.08" probability="0.02750000" edges="right0to2/0 2/0to2/1 2/1to1/1 1/1to1/2 1/2to0/2 0/2totop0"/>
            <route cost="126.08" probability="0.01750000" edges="right0to2/0 2/0to1/0 1/0to1/1 1/1to1/2 1/2to0/2 0/2totop0"/>
        </routeDistribution>
    </flow>
    <flow id="93" begin="14400.00" end="18000.00" number="0" fromTaz="3" toTaz="1" departLane="free" departSpeed="max">
        <routeDistribution>
            <route cost="97.99" probability="0.02750000" edges="right0to2/0 2/0to2/1 2/1to1/1 1/1to1/2 1/2totop1"/>
            <route cost="97.99" probability="0.02250000" edges="right0to2/0 2/0to1/0 1/0to1/1 1/1to1/2 1/2totop1"/>
        </routeDistribution>
    </flow>
    <flow id="94" begin="14400.00" end="18000.00" number="0" fromTaz="3" toTaz="2" departLane="free" departSpeed="max">
        <routeDistribution>
            <route cost="69.89" probability="0.05000000" edges="right0to2/0 2/0to2/1 2/1to2/2 2/2totop2"/>
        </routeDistribution>
    </flow>
    <flow id="95" begin="14400.00" end="18000.00" number="0" fromTaz="3" toTaz="4" departLane="free" departSpeed="max">
        <routeDistribution>
            <route cost="41.80" probability="0.02500000" edges="right0to2/0 2/0to2/1 2/1toright1"/>
        </routeDistribution>
    </flow>