<?xml version="1.0"?>

<!-- generated on 01/21/08 09:24:56 by SUMO netconvert Version 0.9.7
<configuration>

   <input>
      <xml-node-files>../data/examples\simple_nets\eight\eight3l\eight3l.nod.xml</xml-node-files>
      <xml-edge-files>../data/examples\simple_nets\eight\eight3l\eight3l.edg.xml</xml-edge-files>
   </input>

   <output>
      <output-file>../data/examples\simple_nets\eight\eight3l\eight3l.net.xml</output-file>
   </output>

   <processing>
      <add-internal-links>true</add-internal-links>
   </processing>

   <report>
      <verbose>true</verbose>
   </report>

</configuration>
-->

<net>

   <net-offset>1000.000000,1000.000000</net-offset>
   <conv-boundary>0.000000,0.000000,2000.000000,2000.000000</conv-boundary>
   <orig-boundary>-1000.000000,-1000.000000,1000.000000,1000.000000</orig-boundary>
   <orig-proj>!</orig-proj>

   <edges no="84">:1_0 :1_1 :1_2 :1_3 :1_4 :1_5 :1_6 :1_7 :2_0 :2_1 :2_2 :2_3 :2_4 :2_5 :2_6 :2_7 :3_0 :3_1 :3_2 :3_3 :3_4 :3_5 :3_6 :3_7 :4_0 :4_1 :4_2 :4_3 :4_4 :4_5 :4_6 :4_7 :4_8 :4_9 :4_10 :4_11 :4_12 :4_13 :4_14 :4_15 :4_16 :4_17 :4_18 :4_19 :5_0 :5_1 :5_2 :5_3 :5_4 :5_5 :5_6 :5_7 :6_0 :6_1 :6_2 :6_3 :6_4 :6_5 :6_6 :6_7 :7_0 :7_1 :7_2 :7_3 :7_4 :7_5 :7_6 :7_7 a1 a2 a3 a4 a5 a6 a7 a8 b1 b2 b3 b4 b5 b6 b7 b8</edges>
   <edge id=":1_0" function="internal">
      <lanes>
         <lane id=":1_0_0" depart="0" maxspeed="13.89" length="29.19" >9.85,1008.25 1.93,1007.12 -3.73,1003.72 -7.12,998.07 -8.25,990.15</lane>
      </lanes>
      <cedge id="a1">:1_0_0</cedge>
   </edge>

   <edge id=":1_1" function="internal">
      <lanes>
         <lane id=":1_1_0" depart="0" maxspeed="13.89" length="23.87" >9.85,1004.95 3.37,1004.03 -1.25,1001.25 -4.03,996.63 -4.95,990.15</lane>
      </lanes>
      <cedge id="a1">:1_1_0</cedge>
   </edge>

   <edge id=":1_2" function="internal">
      <lanes>
         <lane id=":1_2_0" depart="0" maxspeed="13.89" length="18.55" >9.85,1001.65 4.82,1000.93 1.22,998.78 -0.93,995.18 -1.65,990.15</lane>
      </lanes>
      <cedge id="a1">:1_2_0</cedge>
   </edge>

   <edge id=":1_3" function="internal">
      <lanes>
         <lane id=":1_3_0" depart="0" maxspeed="13.89" length="4.82" >9.85,1001.65 8.61,1000.83 8.20,1000.00 8.61,999.17 9.85,998.35</lane>
      </lanes>
      <cedge id="b1">:1_3_0</cedge>
   </edge>

   <edge id=":1_4" function="internal">
      <lanes>
         <lane id=":1_4_0" depart="0" maxspeed="13.89" length="2.58" >8.25,990.15 8.35,990.85 8.65,991.35 9.15,991.65 9.85,991.75</lane>
      </lanes>
      <cedge id="b1">:1_4_0</cedge>
   </edge>

   <edge id=":1_5" function="internal">
      <lanes>
         <lane id=":1_5_0" depart="0" maxspeed="13.89" length="7.90" >4.95,990.15 5.26,992.29 6.17,993.83 7.71,994.74 9.85,995.05</lane>
      </lanes>
      <cedge id="b1">:1_5_0</cedge>
   </edge>

   <edge id=":1_6" function="internal">
      <lanes>
         <lane id=":1_6_0" depart="0" maxspeed="13.89" length="13.22" >1.65,990.15 2.16,993.74 3.70,996.30 6.26,997.84 9.85,998.35</lane>
      </lanes>
      <cedge id="b1">:1_6_0</cedge>
   </edge>

   <edge id=":1_7" function="internal">
      <lanes>
         <lane id=":1_7_0" depart="0" maxspeed="13.89" length="4.82" >1.65,990.15 0.82,991.39 -0.00,991.80 -0.83,991.39 -1.65,990.15</lane>
      </lanes>
      <cedge id="a1">:1_7_0</cedge>
   </edge>

   <edge id=":2_0" function="internal">
      <lanes>
         <lane id=":2_0_0" depart="0" maxspeed="13.89" length="29.19" >-8.25,9.85 -7.12,1.93 -3.73,-3.72 1.93,-7.12 9.85,-8.25</lane>
      </lanes>
      <cedge id="a2">:2_0_0</cedge>
   </edge>

   <edge id=":2_1" function="internal">
      <lanes>
         <lane id=":2_1_0" depart="0" maxspeed="13.89" length="23.87" >-4.95,9.85 -4.03,3.38 -1.25,-1.25 3.37,-4.02 9.85,-4.95</lane>
      </lanes>
      <cedge id="a2">:2_1_0</cedge>
   </edge>

   <edge id=":2_2" function="internal">
      <lanes>
         <lane id=":2_2_0" depart="0" maxspeed="13.89" length="18.55" >-1.65,9.85 -0.93,4.82 1.22,1.23 4.82,-0.93 9.85,-1.65</lane>
      </lanes>
      <cedge id="a2">:2_2_0</cedge>
   </edge>

   <edge id=":2_3" function="internal">
      <lanes>
         <lane id=":2_3_0" depart="0" maxspeed="13.89" length="4.82" >-1.65,9.85 -0.83,8.61 -0.00,8.20 0.82,8.61 1.65,9.85</lane>
      </lanes>
      <cedge id="b8">:2_3_0</cedge>
   </edge>

   <edge id=":2_4" function="internal">
      <lanes>
         <lane id=":2_4_0" depart="0" maxspeed="13.89" length="2.58" >9.85,8.25 9.15,8.35 8.65,8.65 8.35,9.15 8.25,9.85</lane>
      </lanes>
      <cedge id="b8">:2_4_0</cedge>
   </edge>

   <edge id=":2_5" function="internal">
      <lanes>
         <lane id=":2_5_0" depart="0" maxspeed="13.89" length="7.90" >9.85,4.95 7.71,5.26 6.18,6.17 5.26,7.71 4.95,9.85</lane>
      </lanes>
      <cedge id="b8">:2_5_0</cedge>
   </edge>

   <edge id=":2_6" function="internal">
      <lanes>
         <lane id=":2_6_0" depart="0" maxspeed="13.89" length="13.22" >9.85,1.65 6.26,2.16 3.70,3.70 2.16,6.26 1.65,9.85</lane>
      </lanes>
      <cedge id="b8">:2_6_0</cedge>
   </edge>

   <edge id=":2_7" function="internal">
      <lanes>
         <lane id=":2_7_0" depart="0" maxspeed="13.89" length="4.82" >9.85,1.65 8.61,0.83 8.20,0.00 8.61,-0.82 9.85,-1.65</lane>
      </lanes>
      <cedge id="a2">:2_7_0</cedge>
   </edge>

   <edge id=":3_0" function="internal">
      <lanes>
         <lane id=":3_0_0" depart="0" maxspeed="13.89" length="2.58" >991.75,9.85 991.65,9.15 991.35,8.65 990.85,8.35 990.15,8.25</lane>
      </lanes>
      <cedge id="b7">:3_0_0</cedge>
   </edge>

   <edge id=":3_1" function="internal">
      <lanes>
         <lane id=":3_1_0" depart="0" maxspeed="13.89" length="7.90" >995.05,9.85 994.74,7.71 993.82,6.17 992.29,5.26 990.15,4.95</lane>
      </lanes>
      <cedge id="b7">:3_1_0</cedge>
   </edge>

   <edge id=":3_2" function="internal">
      <lanes>
         <lane id=":3_2_0" depart="0" maxspeed="13.89" length="13.22" >998.35,9.85 997.84,6.26 996.30,3.70 993.74,2.16 990.15,1.65</lane>
      </lanes>
      <cedge id="b7">:3_2_0</cedge>
   </edge>

   <edge id=":3_3" function="internal">
      <lanes>
         <lane id=":3_3_0" depart="0" maxspeed="13.89" length="4.82" >998.35,9.85 999.17,8.61 1000.00,8.20 1000.83,8.61 1001.65,9.85</lane>
      </lanes>
      <cedge id="a3">:3_3_0</cedge>
   </edge>

   <edge id=":3_4" function="internal">
      <lanes>
         <lane id=":3_4_0" depart="0" maxspeed="13.89" length="29.19" >990.15,-8.25 998.07,-7.12 1003.72,-3.73 1007.12,1.93 1008.25,9.85</lane>
      </lanes>
      <cedge id="a3">:3_4_0</cedge>
   </edge>

   <edge id=":3_5" function="internal">
      <lanes>
         <lane id=":3_5_0" depart="0" maxspeed="13.89" length="23.87" >990.15,-4.95 996.63,-4.03 1001.25,-1.25 1004.03,3.37 1004.95,9.85</lane>
      </lanes>
      <cedge id="a3">:3_5_0</cedge>
   </edge>

   <edge id=":3_6" function="internal">
      <lanes>
         <lane id=":3_6_0" depart="0" maxspeed="13.89" length="18.55" >990.15,-1.65 995.18,-0.93 998.78,1.22 1000.93,4.82 1001.65,9.85</lane>
      </lanes>
      <cedge id="a3">:3_6_0</cedge>
   </edge>

   <edge id=":3_7" function="internal">
      <lanes>
         <lane id=":3_7_0" depart="0" maxspeed="13.89" length="4.82" >990.15,-1.65 991.39,-0.82 991.80,0.00 991.39,0.83 990.15,1.65</lane>
      </lanes>
      <cedge id="b7">:3_7_0</cedge>
   </edge>

   <edge id=":4_0" function="internal">
      <lanes>
         <lane id=":4_0_0" depart="0" maxspeed="13.89" length="5.00" >991.75,1011.35 991.56,1009.99 990.97,1009.03 990.01,1008.44 988.65,1008.25</lane>
      </lanes>
      <cedge id="a8">:4_0_0</cedge>
   </edge>

   <edge id=":4_1" function="internal">
      <lanes>
         <lane id=":4_1_0" depart="0" maxspeed="13.89" length="22.70" >991.75,1011.35 991.75,1004.61 991.75,1000.00 991.75,995.39 991.75,988.65</lane>
      </lanes>
      <cedge id="b6">:4_1_0</cedge>
   </edge>

   <edge id=":4_2" function="internal">
      <lanes>
         <lane id=":4_2_0" depart="0" maxspeed="13.89" length="22.70" >995.05,1011.35 995.05,1004.61 995.05,1000.00 995.05,995.39 995.05,988.65</lane>
      </lanes>
      <cedge id="b6">:4_2_0</cedge>
   </edge>

   <edge id=":4_3" function="internal">
      <lanes>
         <lane id=":4_3_0" depart="0" maxspeed="13.89" length="22.70" >998.35,1011.35 998.35,1004.61 998.35,1000.00 998.35,995.39 998.35,988.65</lane>
      </lanes>
      <cedge id="b6">:4_3_0</cedge>
   </edge>

   <edge id=":4_4" function="internal">
      <lanes>
         <lane id=":4_4_0" depart="0" maxspeed="13.89" length="20.97" >998.35,1011.35 999.16,1005.66 1001.60,1001.60 1005.66,999.16 1011.35,998.35</lane>
      </lanes>
      <cedge id="b2">:4_4_0</cedge>
   </edge>

   <edge id=":4_5" function="internal">
      <lanes>
         <lane id=":4_5_0" depart="0" maxspeed="13.89" length="4.82" >998.35,1011.35 999.17,1010.11 1000.00,1009.70 1000.83,1010.11 1001.65,1011.35</lane>
      </lanes>
      <cedge id="a4">:4_5_0</cedge>
   </edge>

   <edge id=":4_6" function="internal">
      <lanes>
         <lane id=":4_6_0" depart="0" maxspeed="13.89" length="5.00" >1011.35,1008.25 1009.99,1008.44 1009.03,1009.03 1008.44,1009.99 1008.25,1011.35</lane>
      </lanes>
      <cedge id="a4">:4_6_0</cedge>
   </edge>

   <edge id=":4_7" function="internal">
      <lanes>
         <lane id=":4_7_0" depart="0" maxspeed="13.89" length="22.70" >1011.35,1004.95 1004.61,1004.95 1000.00,1004.95 995.39,1004.95 988.65,1004.95</lane>
      </lanes>
      <cedge id="a8">:4_7_0</cedge>
   </edge>

   <edge id=":4_8" function="internal">
      <lanes>
         <lane id=":4_8_0" depart="0" maxspeed="13.89" length="20.97" >1011.35,1001.65 1005.66,1000.84 1001.60,998.40 999.16,994.34 998.35,988.65</lane>
      </lanes>
      <cedge id="b6">:4_8_0</cedge>
   </edge>

   <edge id=":4_9" function="internal">
      <lanes>
         <lane id=":4_9_0" depart="0" maxspeed="13.89" length="4.82" >1011.35,1001.65 1010.11,1000.83 1009.70,1000.00 1010.11,999.17 1011.35,998.35</lane>
      </lanes>
      <cedge id="b2">:4_9_0</cedge>
   </edge>

   <edge id=":4_10" function="internal">
      <lanes>
         <lane id=":4_10_0" depart="0" maxspeed="13.89" length="5.00" >1008.25,988.65 1008.44,990.01 1009.03,990.98 1009.99,991.56 1011.35,991.75</lane>
      </lanes>
      <cedge id="b2">:4_10_0</cedge>
   </edge>

   <edge id=":4_11" function="internal">
      <lanes>
         <lane id=":4_11_0" depart="0" maxspeed="13.89" length="22.70" >1008.25,988.65 1008.25,995.39 1008.25,1000.00 1008.25,1004.61 1008.25,1011.35</lane>
      </lanes>
      <cedge id="a4">:4_11_0</cedge>
   </edge>

   <edge id=":4_12" function="internal">
      <lanes>
         <lane id=":4_12_0" depart="0" maxspeed="13.89" length="22.70" >1004.95,988.65 1004.95,995.39 1004.95,1000.00 1004.95,1004.61 1004.95,1011.35</lane>
      </lanes>
      <cedge id="a4">:4_12_0</cedge>
   </edge>

   <edge id=":4_13" function="internal">
      <lanes>
         <lane id=":4_13_0" depart="0" maxspeed="13.89" length="22.70" >1001.65,988.65 1001.65,995.39 1001.65,1000.00 1001.65,1004.61 1001.65,1011.35</lane>
      </lanes>
      <cedge id="a4">:4_13_0</cedge>
   </edge>

   <edge id=":4_14" function="internal">
      <lanes>
         <lane id=":4_14_0" depart="0" maxspeed="13.89" length="20.97" >1001.65,988.65 1000.84,994.34 998.40,998.40 994.34,1000.84 988.65,1001.65</lane>
      </lanes>
      <cedge id="a8">:4_14_0</cedge>
   </edge>

   <edge id=":4_15" function="internal">
      <lanes>
         <lane id=":4_15_0" depart="0" maxspeed="13.89" length="4.82" >1001.65,988.65 1000.83,989.89 1000.00,990.30 999.17,989.89 998.35,988.65</lane>
      </lanes>
      <cedge id="b6">:4_15_0</cedge>
   </edge>

   <edge id=":4_16" function="internal">
      <lanes>
         <lane id=":4_16_0" depart="0" maxspeed="13.89" length="5.00" >988.65,991.75 990.01,991.56 990.98,990.97 991.56,990.01 991.75,988.65</lane>
      </lanes>
      <cedge id="b6">:4_16_0</cedge>
   </edge>

   <edge id=":4_17" function="internal">
      <lanes>
         <lane id=":4_17_0" depart="0" maxspeed="13.89" length="22.70" >988.65,995.05 995.39,995.05 1000.00,995.05 1004.61,995.05 1011.35,995.05</lane>
      </lanes>
      <cedge id="b2">:4_17_0</cedge>
   </edge>

   <edge id=":4_18" function="internal">
      <lanes>
         <lane id=":4_18_0" depart="0" maxspeed="13.89" length="20.97" >988.65,998.35 994.34,999.16 998.40,1001.60 1000.84,1005.66 1001.65,1011.35</lane>
      </lanes>
      <cedge id="a4">:4_18_0</cedge>
   </edge>

   <edge id=":4_19" function="internal">
      <lanes>
         <lane id=":4_19_0" depart="0" maxspeed="13.89" length="4.82" >988.65,998.35 989.89,999.17 990.30,1000.00 989.89,1000.83 988.65,1001.65</lane>
      </lanes>
      <cedge id="a8">:4_19_0</cedge>
   </edge>

   <edge id=":5_0" function="internal">
      <lanes>
         <lane id=":5_0_0" depart="0" maxspeed="13.89" length="29.19" >1009.85,2008.25 1001.93,2007.12 996.28,2003.72 992.88,1998.07 991.75,1990.15</lane>
      </lanes>
      <cedge id="b5">:5_0_0</cedge>
   </edge>

   <edge id=":5_1" function="internal">
      <lanes>
         <lane id=":5_1_0" depart="0" maxspeed="13.89" length="23.87" >1009.85,2004.95 1003.37,2004.02 998.75,2001.25 995.97,1996.63 995.05,1990.15</lane>
      </lanes>
      <cedge id="b5">:5_1_0</cedge>
   </edge>

   <edge id=":5_2" function="internal">
      <lanes>
         <lane id=":5_2_0" depart="0" maxspeed="13.89" length="18.55" >1009.85,2001.65 1004.82,2000.93 1001.22,1998.78 999.07,1995.18 998.35,1990.15</lane>
      </lanes>
      <cedge id="b5">:5_2_0</cedge>
   </edge>

   <edge id=":5_3" function="internal">
      <lanes>
         <lane id=":5_3_0" depart="0" maxspeed="13.89" length="4.82" >1009.85,2001.65 1008.61,2000.82 1008.20,2000.00 1008.61,1999.18 1009.85,1998.35</lane>
      </lanes>
      <cedge id="a5">:5_3_0</cedge>
   </edge>

   <edge id=":5_4" function="internal">
      <lanes>
         <lane id=":5_4_0" depart="0" maxspeed="13.89" length="2.58" >1008.25,1990.15 1008.35,1990.85 1008.65,1991.35 1009.15,1991.65 1009.85,1991.75</lane>
      </lanes>
      <cedge id="a5">:5_4_0</cedge>
   </edge>

   <edge id=":5_5" function="internal">
      <lanes>
         <lane id=":5_5_0" depart="0" maxspeed="13.89" length="7.90" >1004.95,1990.15 1005.26,1992.29 1006.18,1993.82 1007.71,1994.74 1009.85,1995.05</lane>
      </lanes>
      <cedge id="a5">:5_5_0</cedge>
   </edge>

   <edge id=":5_6" function="internal">
      <lanes>
         <lane id=":5_6_0" depart="0" maxspeed="13.89" length="13.22" >1001.65,1990.15 1002.16,1993.74 1003.70,1996.30 1006.26,1997.84 1009.85,1998.35</lane>
      </lanes>
      <cedge id="a5">:5_6_0</cedge>
   </edge>

   <edge id=":5_7" function="internal">
      <lanes>
         <lane id=":5_7_0" depart="0" maxspeed="13.89" length="4.82" >1001.65,1990.15 1000.83,1991.39 1000.00,1991.80 999.17,1991.39 998.35,1990.15</lane>
      </lanes>
      <cedge id="b5">:5_7_0</cedge>
   </edge>

   <edge id=":6_0" function="internal">
      <lanes>
         <lane id=":6_0_0" depart="0" maxspeed="13.89" length="29.19" >2008.25,1990.15 2007.12,1998.07 2003.73,2003.72 1998.07,2007.12 1990.15,2008.25</lane>
      </lanes>
      <cedge id="b4">:6_0_0</cedge>
   </edge>

   <edge id=":6_1" function="internal">
      <lanes>
         <lane id=":6_1_0" depart="0" maxspeed="13.89" length="23.87" >2004.95,1990.15 2004.02,1996.62 2001.25,2001.25 1996.63,2004.02 1990.15,2004.95</lane>
      </lanes>
      <cedge id="b4">:6_1_0</cedge>
   </edge>

   <edge id=":6_2" function="internal">
      <lanes>
         <lane id=":6_2_0" depart="0" maxspeed="13.89" length="18.55" >2001.65,1990.15 2000.93,1995.18 1998.78,1998.78 1995.18,2000.93 1990.15,2001.65</lane>
      </lanes>
      <cedge id="b4">:6_2_0</cedge>
   </edge>

   <edge id=":6_3" function="internal">
      <lanes>
         <lane id=":6_3_0" depart="0" maxspeed="13.89" length="4.82" >2001.65,1990.15 2000.82,1991.39 2000.00,1991.80 1999.18,1991.39 1998.35,1990.15</lane>
      </lanes>
      <cedge id="a6">:6_3_0</cedge>
   </edge>

   <edge id=":6_4" function="internal">
      <lanes>
         <lane id=":6_4_0" depart="0" maxspeed="13.89" length="2.58" >1990.15,1991.75 1990.85,1991.65 1991.35,1991.35 1991.65,1990.85 1991.75,1990.15</lane>
      </lanes>
      <cedge id="a6">:6_4_0</cedge>
   </edge>

   <edge id=":6_5" function="internal">
      <lanes>
         <lane id=":6_5_0" depart="0" maxspeed="13.89" length="7.90" >1990.15,1995.05 1992.29,1994.74 1993.82,1993.83 1994.74,1992.29 1995.05,1990.15</lane>
      </lanes>
      <cedge id="a6">:6_5_0</cedge>
   </edge>

   <edge id=":6_6" function="internal">
      <lanes>
         <lane id=":6_6_0" depart="0" maxspeed="13.89" length="13.22" >1990.15,1998.35 1993.74,1997.84 1996.30,1996.30 1997.84,1993.74 1998.35,1990.15</lane>
      </lanes>
      <cedge id="a6">:6_6_0</cedge>
   </edge>

   <edge id=":6_7" function="internal">
      <lanes>
         <lane id=":6_7_0" depart="0" maxspeed="13.89" length="4.82" >1990.15,1998.35 1991.39,1999.18 1991.80,2000.00 1991.39,2000.82 1990.15,2001.65</lane>
      </lanes>
      <cedge id="b4">:6_7_0</cedge>
   </edge>

   <edge id=":7_0" function="internal">
      <lanes>
         <lane id=":7_0_0" depart="0" maxspeed="13.89" length="2.58" >1991.75,1009.85 1991.65,1009.15 1991.35,1008.65 1990.85,1008.35 1990.15,1008.25</lane>
      </lanes>
      <cedge id="a7">:7_0_0</cedge>
   </edge>

   <edge id=":7_1" function="internal">
      <lanes>
         <lane id=":7_1_0" depart="0" maxspeed="13.89" length="7.90" >1995.05,1009.85 1994.74,1007.71 1993.83,1006.17 1992.29,1005.26 1990.15,1004.95</lane>
      </lanes>
      <cedge id="a7">:7_1_0</cedge>
   </edge>

   <edge id=":7_2" function="internal">
      <lanes>
         <lane id=":7_2_0" depart="0" maxspeed="13.89" length="13.22" >1998.35,1009.85 1997.84,1006.26 1996.30,1003.70 1993.74,1002.16 1990.15,1001.65</lane>
      </lanes>
      <cedge id="a7">:7_2_0</cedge>
   </edge>

   <edge id=":7_3" function="internal">
      <lanes>
         <lane id=":7_3_0" depart="0" maxspeed="13.89" length="4.82" >1998.35,1009.85 1999.18,1008.61 2000.00,1008.20 2000.82,1008.61 2001.65,1009.85</lane>
      </lanes>
      <cedge id="b3">:7_3_0</cedge>
   </edge>

   <edge id=":7_4" function="internal">
      <lanes>
         <lane id=":7_4_0" depart="0" maxspeed="13.89" length="29.19" >1990.15,991.75 1998.07,992.88 2003.73,996.28 2007.12,1001.93 2008.25,1009.85</lane>
      </lanes>
      <cedge id="b3">:7_4_0</cedge>
   </edge>

   <edge id=":7_5" function="internal">
      <lanes>
         <lane id=":7_5_0" depart="0" maxspeed="13.89" length="23.87" >1990.15,995.05 1996.63,995.97 2001.25,998.75 2004.02,1003.38 2004.95,1009.85</lane>
      </lanes>
      <cedge id="b3">:7_5_0</cedge>
   </edge>

   <edge id=":7_6" function="internal">
      <lanes>
         <lane id=":7_6_0" depart="0" maxspeed="13.89" length="18.55" >1990.15,998.35 1995.18,999.07 1998.78,1001.22 2000.93,1004.82 2001.65,1009.85</lane>
      </lanes>
      <cedge id="b3">:7_6_0</cedge>
   </edge>

   <edge id=":7_7" function="internal">
      <lanes>
         <lane id=":7_7_0" depart="0" maxspeed="13.89" length="4.82" >1990.15,998.35 1991.39,999.17 1991.80,1000.00 1991.39,1000.83 1990.15,1001.65</lane>
      </lanes>
      <cedge id="a7">:7_7_0</cedge>
   </edge>


   <node_count>7</node_count>


   <edge id="a1" from="1" to="2" priority="74" type="" function="normal">
      <lanes>
         <lane id="a1_0" depart="1" vclasses="" maxspeed="13.89" length="980.30">-8.25,990.15 -8.25,9.85</lane>
         <lane id="a1_1" depart="0" vclasses="" maxspeed="13.89" length="980.30">-4.95,990.15 -4.95,9.85</lane>
         <lane id="a1_2" depart="0" vclasses="" maxspeed="13.89" length="980.30">-1.65,990.15 -1.65,9.85</lane>
      </lanes>
      <cedge id="a2">a1_0 a1_1 a1_2</cedge>
      <cedge id="b8">a1_2</cedge>
   </edge>

   <edge id="a2" from="2" to="3" priority="74" type="" function="normal">
      <lanes>
         <lane id="a2_0" depart="1" vclasses="" maxspeed="13.89" length="980.30">9.85,-8.25 990.15,-8.25</lane>
         <lane id="a2_1" depart="0" vclasses="" maxspeed="13.89" length="980.30">9.85,-4.95 990.15,-4.95</lane>
         <lane id="a2_2" depart="0" vclasses="" maxspeed="13.89" length="980.30">9.85,-1.65 990.15,-1.65</lane>
      </lanes>
      <cedge id="a3">a2_0 a2_1 a2_2</cedge>
      <cedge id="b7">a2_2</cedge>
   </edge>

   <edge id="a3" from="3" to="4" priority="74" type="" function="normal">
      <lanes>
         <lane id="a3_0" depart="1" vclasses="" maxspeed="13.89" length="978.80">1008.25,9.85 1008.25,988.65</lane>
         <lane id="a3_1" depart="0" vclasses="" maxspeed="13.89" length="978.80">1004.95,9.85 1004.95,988.65</lane>
         <lane id="a3_2" depart="0" vclasses="" maxspeed="13.89" length="978.80">1001.65,9.85 1001.65,988.65</lane>
      </lanes>
      <cedge id="b2">a3_0</cedge>
      <cedge id="a4">a3_0 a3_1 a3_2</cedge>
      <cedge id="a8">a3_2</cedge>
      <cedge id="b6">a3_2</cedge>
   </edge>

   <edge id="a4" from="4" to="5" priority="74" type="" function="normal">
      <lanes>
         <lane id="a4_0" depart="1" vclasses="" maxspeed="13.89" length="978.80">1008.25,1011.35 1008.25,1990.15</lane>
         <lane id="a4_1" depart="0" vclasses="" maxspeed="13.89" length="978.80">1004.95,1011.35 1004.95,1990.15</lane>
         <lane id="a4_2" depart="0" vclasses="" maxspeed="13.89" length="978.80">1001.65,1011.35 1001.65,1990.15</lane>
      </lanes>
      <cedge id="a5">a4_0 a4_1 a4_2</cedge>
      <cedge id="b5">a4_2</cedge>
   </edge>

   <edge id="a5" from="5" to="6" priority="74" type="" function="normal">
      <lanes>
         <lane id="a5_0" depart="1" vclasses="" maxspeed="13.89" length="980.30">1009.85,1991.75 1990.15,1991.75</lane>
         <lane id="a5_1" depart="0" vclasses="" maxspeed="13.89" length="980.30">1009.85,1995.05 1990.15,1995.05</lane>
         <lane id="a5_2" depart="0" vclasses="" maxspeed="13.89" length="980.30">1009.85,1998.35 1990.15,1998.35</lane>
      </lanes>
      <cedge id="a6">a5_0 a5_1 a5_2</cedge>
      <cedge id="b4">a5_2</cedge>
   </edge>

   <edge id="a6" from="6" to="7" priority="74" type="" function="normal">
      <lanes>
         <lane id="a6_0" depart="1" vclasses="" maxspeed="13.89" length="980.30">1991.75,1990.15 1991.75,1009.85</lane>
         <lane id="a6_1" depart="0" vclasses="" maxspeed="13.89" length="980.30">1995.05,1990.15 1995.05,1009.85</lane>
         <lane id="a6_2" depart="0" vclasses="" maxspeed="13.89" length="980.30">1998.35,1990.15 1998.35,1009.85</lane>
      </lanes>
      <cedge id="a7">a6_0 a6_1 a6_2</cedge>
      <cedge id="b3">a6_2</cedge>
   </edge>

   <edge id="a7" from="7" to="4" priority="74" type="" function="normal">
      <lanes>
         <lane id="a7_0" depart="1" vclasses="" maxspeed="13.89" length="978.80">1990.15,1008.25 1011.35,1008.25</lane>
         <lane id="a7_1" depart="0" vclasses="" maxspeed="13.89" length="978.80">1990.15,1004.95 1011.35,1004.95</lane>
         <lane id="a7_2" depart="0" vclasses="" maxspeed="13.89" length="978.80">1990.15,1001.65 1011.35,1001.65</lane>
      </lanes>
      <cedge id="a4">a7_0</cedge>
      <cedge id="a8">a7_1</cedge>
      <cedge id="b6">a7_2</cedge>
      <cedge id="b2">a7_2</cedge>
   </edge>

   <edge id="a8" from="4" to="1" priority="74" type="" function="normal">
      <lanes>
         <lane id="a8_0" depart="1" vclasses="" maxspeed="13.89" length="978.80">988.65,1008.25 9.85,1008.25</lane>
         <lane id="a8_1" depart="0" vclasses="" maxspeed="13.89" length="978.80">988.65,1004.95 9.85,1004.95</lane>
         <lane id="a8_2" depart="0" vclasses="" maxspeed="13.89" length="978.80">988.65,1001.65 9.85,1001.65</lane>
      </lanes>
      <cedge id="a1">a8_0 a8_1 a8_2</cedge>
      <cedge id="b1">a8_2</cedge>
   </edge>

   <edge id="b1" from="1" to="4" priority="74" type="" function="normal">
      <lanes>
         <lane id="b1_0" depart="1" vclasses="" maxspeed="13.89" length="978.80">9.85,991.75 988.65,991.75</lane>
         <lane id="b1_1" depart="0" vclasses="" maxspeed="13.89" length="978.80">9.85,995.05 988.65,995.05</lane>
         <lane id="b1_2" depart="0" vclasses="" maxspeed="13.89" length="978.80">9.85,998.35 988.65,998.35</lane>
      </lanes>
      <cedge id="b6">b1_0</cedge>
      <cedge id="b2">b1_1</cedge>
      <cedge id="a4">b1_2</cedge>
      <cedge id="a8">b1_2</cedge>
   </edge>

   <edge id="b2" from="4" to="7" priority="74" type="" function="normal">
      <lanes>
         <lane id="b2_0" depart="1" vclasses="" maxspeed="13.89" length="978.80">1011.35,991.75 1990.15,991.75</lane>
         <lane id="b2_1" depart="0" vclasses="" maxspeed="13.89" length="978.80">1011.35,995.05 1990.15,995.05</lane>
         <lane id="b2_2" depart="0" vclasses="" maxspeed="13.89" length="978.80">1011.35,998.35 1990.15,998.35</lane>
      </lanes>
      <cedge id="b3">b2_0 b2_1 b2_2</cedge>
      <cedge id="a7">b2_2</cedge>
   </edge>

   <edge id="b3" from="7" to="6" priority="74" type="" function="normal">
      <lanes>
         <lane id="b3_0" depart="1" vclasses="" maxspeed="13.89" length="980.30">2008.25,1009.85 2008.25,1990.15</lane>
         <lane id="b3_1" depart="0" vclasses="" maxspeed="13.89" length="980.30">2004.95,1009.85 2004.95,1990.15</lane>
         <lane id="b3_2" depart="0" vclasses="" maxspeed="13.89" length="980.30">2001.65,1009.85 2001.65,1990.15</lane>
      </lanes>
      <cedge id="b4">b3_0 b3_1 b3_2</cedge>
      <cedge id="a6">b3_2</cedge>
   </edge>

   <edge id="b4" from="6" to="5" priority="74" type="" function="normal">
      <lanes>
         <lane id="b4_0" depart="1" vclasses="" maxspeed="13.89" length="980.30">1990.15,2008.25 1009.85,2008.25</lane>
         <lane id="b4_1" depart="0" vclasses="" maxspeed="13.89" length="980.30">1990.15,2004.95 1009.85,2004.95</lane>
         <lane id="b4_2" depart="0" vclasses="" maxspeed="13.89" length="980.30">1990.15,2001.65 1009.85,2001.65</lane>
      </lanes>
      <cedge id="b5">b4_0 b4_1 b4_2</cedge>
      <cedge id="a5">b4_2</cedge>
   </edge>

   <edge id="b5" from="5" to="4" priority="74" type="" function="normal">
      <lanes>
         <lane id="b5_0" depart="1" vclasses="" maxspeed="13.89" length="978.80">991.75,1990.15 991.75,1011.35</lane>
         <lane id="b5_1" depart="0" vclasses="" maxspeed="13.89" length="978.80">995.05,1990.15 995.05,1011.35</lane>
         <lane id="b5_2" depart="0" vclasses="" maxspeed="13.89" length="978.80">998.35,1990.15 998.35,1011.35</lane>
      </lanes>
      <cedge id="a8">b5_0</cedge>
      <cedge id="b6">b5_0 b5_1 b5_2</cedge>
      <cedge id="b2">b5_2</cedge>
      <cedge id="a4">b5_2</cedge>
   </edge>

   <edge id="b6" from="4" to="3" priority="74" type="" function="normal">
      <lanes>
         <lane id="b6_0" depart="1" vclasses="" maxspeed="13.89" length="978.80">991.75,988.65 991.75,9.85</lane>
         <lane id="b6_1" depart="0" vclasses="" maxspeed="13.89" length="978.80">995.05,988.65 995.05,9.85</lane>
         <lane id="b6_2" depart="0" vclasses="" maxspeed="13.89" length="978.80">998.35,988.65 998.35,9.85</lane>
      </lanes>
      <cedge id="b7">b6_0 b6_1 b6_2</cedge>
      <cedge id="a3">b6_2</cedge>
   </edge>

   <edge id="b7" from="3" to="2" priority="74" type="" function="normal">
      <lanes>
         <lane id="b7_0" depart="1" vclasses="" maxspeed="13.89" length="980.30">990.15,8.25 9.85,8.25</lane>
         <lane id="b7_1" depart="0" vclasses="" maxspeed="13.89" length="980.30">990.15,4.95 9.85,4.95</lane>
         <lane id="b7_2" depart="0" vclasses="" maxspeed="13.89" length="980.30">990.15,1.65 9.85,1.65</lane>
      </lanes>
      <cedge id="b8">b7_0 b7_1 b7_2</cedge>
      <cedge id="a2">b7_2</cedge>
   </edge>

   <edge id="b8" from="2" to="1" priority="74" type="" function="normal">
      <lanes>
         <lane id="b8_0" depart="1" vclasses="" maxspeed="13.89" length="980.30">8.25,9.85 8.25,990.15</lane>
         <lane id="b8_1" depart="0" vclasses="" maxspeed="13.89" length="980.30">4.95,9.85 4.95,990.15</lane>
         <lane id="b8_2" depart="0" vclasses="" maxspeed="13.89" length="980.30">1.65,9.85 1.65,990.15</lane>
      </lanes>
      <cedge id="b1">b8_0 b8_1 b8_2</cedge>
      <cedge id="a1">b8_2</cedge>
   </edge>


   <row-logic>
      <key>1</key>
      <requestsize>8</requestsize>
      <lanenumber>6</lanenumber>
      <logic>
         <logicitem request="0" response="00000000" foes="10000000" cont="0"/>
         <logicitem request="1" response="00000000" foes="10000000" cont="0"/>
         <logicitem request="2" response="00000000" foes="10000000" cont="0"/>
         <logicitem request="3" response="01000000" foes="01110000" cont="0"/>
         <logicitem request="4" response="00000000" foes="00001000" cont="0"/>
         <logicitem request="5" response="00000000" foes="00001000" cont="0"/>
         <logicitem request="6" response="00000000" foes="00001000" cont="0"/>
         <logicitem request="7" response="00000100" foes="00000111" cont="0"/>
      </logic>
   </row-logic>

   <row-logic>
      <key>2</key>
      <requestsize>8</requestsize>
      <lanenumber>6</lanenumber>
      <logic>
         <logicitem request="0" response="00000000" foes="10000000" cont="0"/>
         <logicitem request="1" response="00000000" foes="10000000" cont="0"/>
         <logicitem request="2" response="00000000" foes="10000000" cont="0"/>
         <logicitem request="3" response="01000000" foes="01110000" cont="0"/>
         <logicitem request="4" response="00000000" foes="00001000" cont="0"/>
         <logicitem request="5" response="00000000" foes="00001000" cont="0"/>
         <logicitem request="6" response="00000000" foes="00001000" cont="0"/>
         <logicitem request="7" response="00000100" foes="00000111" cont="0"/>
      </logic>
   </row-logic>

   <row-logic>
      <key>3</key>
      <requestsize>8</requestsize>
      <lanenumber>6</lanenumber>