<?xml version="1.0" encoding="UTF-8"?>

<!-- generated on 2022-07-14 14:13:17.631446 by gtfs2pt.py v1_14_0+0097-18db435eed4
  options: -n data/eichwalde.net.xml.gz <doubleminus>modes tram <doubleminus>gtfs https://sumo.dlr.de/daily/GTFS_VBB_Juni-Dezember-2016.zip <doubleminus>date 20160713
-->

<additional xmlns:xsi="http://www.w3.org/2001/XMLSchema-instance" xsi:noNamespaceSchemaLocation="http://sumo.dlr.de/xsd/additional_file.xsd">
    <trainStop id="171419641:225.64" lane="171419641_0" startPos="165.64" endPos="285.64" friendlyPos="true" name="Wendenschloß (Berlin)">
        <access friendlyPos="true" lane="-32204604#1_0" pos="18.47" length="0.38"/>
        <access friendlyPos="true" lane="32204604#1_0" pos="9.44" length="4.41"/>
        <access friendlyPos="true" lane="445947587_0" pos="3.42" length="16.44"/>
        <access friendlyPos="true" lane="-32204604#0_0" pos="0.00" length="22.32"/>
        <access friendlyPos="true" lane="32204604#0_0" pos="90.78" length="22.68"/>
        <access friendlyPos="true" lane="445947591#2_0" pos="10.82" length="24.06"/>
        <access friendlyPos="true" lane="445947591#0_0" pos="63.08" length="37.13"/>
        <access friendlyPos="true" lane="-445947592_0" pos="127.04" length="39.33"/>
        <access friendlyPos="true" lane="445947592_0" pos="0.00" length="39.73"/>
        <access friendlyPos="true" lane="-23532795#0_0" pos="29.69" length="121.00"/>
    </trainStop>
    <trainStop id="319292807:97.87" lane="319292807_0" startPos="37.87" endPos="157.87" friendlyPos="true" name="Müggelbergallee (Berlin)">
        <access friendlyPos="true" lane="445947592_0" pos="103.51" length="1.63"/>
        <access friendlyPos="true" lane="-445947592_0" pos="23.52" length="3.17"/>
        <access friendlyPos="true" lane="-23532795#0_0" pos="159.44" length="122.06"/>
        <access friendlyPos="true" lane="23532795#0_0" pos="22.62" length="126.86"/>
    </trainStop>
    <trainStop id="319292807:460.19" lane="319292807_0" startPos="400.19" endPos="520.19" friendlyPos="true" name="Lienhardweg (Berlin)">
    </trainStop>
    <trainStop id="319292807:844.67" lane="319292807_0" startPos="784.67" endPos="904.67" friendlyPos="true" name="Zur Nachtheide (Berlin)">
    </trainStop>
    <trainStop id="319292807:1137.13" lane="319292807_0" startPos="1077.13" endPos="1197.13" friendlyPos="true" name="Dregerhoffstr. (Berlin)">
    </trainStop>
    <trainStop id="319292807:1477.14" lane="319292807_0" startPos="1417.14" endPos="1537.14" friendlyPos="true" name="Pritstabelstr. (Berlin)">
    </trainStop>
    <trainStop id="319292807:1926.71" lane="319292807_0" startPos="1866.71" endPos="1986.71" friendlyPos="true" name="Segewaldweg (Berlin)">
    </trainStop>
    <trainStop id="319292807:2090.24" lane="319292807_0" startPos="2030.24" endPos="2150.24" friendlyPos="true" name="Mayschweg (Berlin)">
    </trainStop>
    <trainStop id="107701626:0.00" lane="107701626_0" startPos="0.00" endPos="60.00" friendlyPos="true" name="Zur Nachtheide (Berlin)">
    </trainStop>
    <trainStop id="107701626:317.64" lane="107701626_0" startPos="257.64" endPos="377.64" friendlyPos="true" name="Lienhardweg (Berlin)">
    </trainStop>
    <trainStop id="107701626:680.04" lane="107701626_0" startPos="620.04" endPos="740.04" friendlyPos="true" name="Müggelbergallee (Berlin)">
        <access friendlyPos="true" lane="445947592_0" pos="103.51" length="1.63"/>
        <access friendlyPos="true" lane="-445947592_0" pos="23.52" length="3.17"/>
        <access friendlyPos="true" lane="-23532795#0_0" pos="159.44" length="122.06"/>
        <access friendlyPos="true" lane="23532795#0_0" pos="22.62" length="126.86"/>
    </trainStop>
    <trainStop id="110800148:26.58" lane="110800148_0" startPos="0.00" endPos="86.58" friendlyPos="true" name="Wendenschloß (Berlin)">
        <access friendlyPos="true" lane="-32204604#1_0" pos="18.47" length="0.38"/>
        <access friendlyPos="true" lane="32204604#1_0" pos="9.44" length="4.41"/>
        <access friendlyPos="true" lane="445947587_0" pos="3.42" length="16.44"/>
        <access friendlyPos="true" lane="-32204604#0_0" pos="0.00" length="22.32"/>
        <access friendlyPos="true" lane="32204604#0_0" pos="90.78" length="22.68"/>
        <access friendlyPos="true" lane="445947591#2_0" pos="10.82" length="24.06"/>
        <access friendlyPos="true" lane="445947591#0_0" pos="63.08" length="37.13"/>
        <access friendlyPos="true" lane="-445947592_0" pos="127.04" length="39.33"/>
        <access friendlyPos="true" lane="445947592_0" pos="0.00" length="39.73"/>
        <access friendlyPos="true" lane="-23532795#0_0" pos="29.69" length="121.00"/>
    </trainStop>
    <trainStop id="180390329#0:243.47" lane="180390329#0_0" startPos="183.47" endPos="303.47" friendlyPos="true" name="Wassersportallee (Berlin)">
        <access friendlyPos="true" lane="-52153733#1_0" pos="6.75" length="0.78"/>
        <access friendlyPos="true" lane="52153733#1_0" pos="47.54" length="5.59"/>
        <access friendlyPos="true" lane="-17272871_0" pos="0.00" length="22.83"/>
        <access friendlyPos="true" lane="-52153733#2_0" pos="72.90" length="31.64"/>
        <access friendlyPos="true" lane="17272871_0" pos="189.33" length="27.00"/>
        <access friendlyPos="true" lane="52153733#2_0" pos="0.00" length="32.18"/>
        <access friendlyPos="true" lane="-561573547_0" pos="48.46" length="76.99"/>
        <access friendlyPos="true" lane="528662942_0" pos="30.71" length="85.70"/>
        <access friendlyPos="true" lane="561573547_0" pos="0.00" length="81.69"/>
        <access friendlyPos="true" lane="-52153733#0_0" pos="0.00" length="85.53"/>
    </trainStop>
    <trainStop id="180390329#2:55.16" lane="180390329#2_0" startPos="0.00" endPos="115.16" friendlyPos="true" name="S Grünau (Berlin) [Adlergestell]">
        <access friendlyPos="true" lane="442574982#4_0" pos="46.78" length="4.69"/>
        <access friendlyPos="true" lane="442574982#2_0" pos="25.44" length="12.81"/>
        <access friendlyPos="true" lane="131490037#2_0" pos="25.29" length="16.16"/>
        <access friendlyPos="true" lane="-131490037#2_0" pos="82.74" length="19.17"/>
        <access friendlyPos="true" lane="328362698#1_0" pos="17.13" length="22.66"/>
        <access friendlyPos="true" lane="328362694_0" pos="0.00" length="32.12"/>
        <access friendlyPos="true" lane="-658716829_0" pos="13.92" length="32.26"/>
        <access friendlyPos="true" lane="-328362694_0" pos="33.76" length="39.23"/>
        <access friendlyPos="true" lane="16343847#5_0" pos="0.00" length="43.22"/>
        <access friendlyPos="true" lane="442574982#1_0" pos="0.00" length="43.22"/>
    </trainStop>
    <trainStop id="180390329#11:25.84" lane="180390329#11_0" startPos="0.00" endPos="85.84" friendlyPos="true" name="Regattatribünen (Berlin)">
        <access friendlyPos="true" lane="180392324#4_0" pos="27.20" length="6.94"/>
        <access friendlyPos="true" lane="-180392324#4_0" pos="17.79" length="11.74"/>
        <access friendlyPos="true" lane="-151627030#15_0" pos="19.05" length="18.90"/>
        <access friendlyPos="true" lane="151627030#15_0" pos="28.27" length="23.72"/>
        <access friendlyPos="true" lane="-4912480#4_0" pos="72.56" length="40.74"/>
        <access friendlyPos="true" lane="4912480#4_0" pos="0.00" length="45.15"/>
        <access friendlyPos="true" lane="318951470_0" pos="0.00" length="50.33"/>
        <access friendlyPos="true" lane="-379044639_0" pos="6.29" length="75.75"/>
        <access friendlyPos="true" lane="301687321_0" pos="0.00" length="67.84"/>
        <access friendlyPos="true" lane="-151627029#17_0" pos="0.00" length="77.18"/>
    </trainStop>
    <trainStop id="180390329#15:292.91" lane="180390329#15_0" startPos="232.91" endPos="352.91" friendlyPos="true" name="Regattastr./Sportpromenade (Berlin)">
        <access friendlyPos="true" lane="151627030#3_0" pos="44.92" length="1.28"/>
        <access friendlyPos="true" lane="-151627030#3_0" pos="0.24" length="3.53"/>
        <access friendlyPos="true" lane="-151627030#4_0" pos="243.05" length="8.68"/>
        <access friendlyPos="true" lane="151627030#4_0" pos="0.00" length="8.06"/>
        <access friendlyPos="true" lane="416587113#0_0" pos="0.00" length="9.15"/>
        <access friendlyPos="true" lane="-702592792#1_0" pos="0.00" length="74.76"/>
        <access friendlyPos="true" lane="-151627030#2_0" pos="0.00" length="81.49"/>
        <access friendlyPos="true" lane="151627030#2_0" pos="100.45" length="81.40"/>
        <access friendlyPos="true" lane="702592792#1_0" pos="62.50" length="79.35"/>
        <access friendlyPos="true" lane="151627040#6_0" pos="113.19" length="109.43"/>
    </trainStop>
    <trainStop id="180390329#18:31.10" lane="180390329#18_0" startPos="0.00" endPos="91.10" friendlyPos="true" name="Strandbad Grünau (Berlin)">
        <access friendlyPos="true" lane="-8418405#3_0" pos="0.00" length="7.28"/>
        <access friendlyPos="true" lane="-8418405#4_0" pos="24.22" length="6.96"/>
        <access friendlyPos="true" lane="-670181877_0" pos="0.00" length="10.89"/>
        <access friendlyPos="true" lane="670181877_0" pos="38.27" length="11.13"/>
        <access friendlyPos="true" lane="8418405#3_0" pos="7.74" length="9.18"/>
        <access friendlyPos="true" lane="8418405#4_0" pos="0.00" length="8.93"/>
        <access friendlyPos="true" lane="416587110#0_0" pos="0.00" length="22.96"/>
        <access friendlyPos="true" lane="-8418405#2_0" pos="0.00" length="26.34"/>
        <access friendlyPos="true" lane="8418405#2_0" pos="104.32" length="26.94"/>
        <access friendlyPos="true" lane="180438651_0" pos="60.75" length="45.34"/>
    </trainStop>
    <trainStop id="180390329#22:63.65" lane="180390329#22_0" startPos="3.65" endPos="123.65" friendlyPos="true" name="Bammelecke (Berlin)">
        <access friendlyPos="true" lane="10671506#3_0" pos="112.37" length="43.24"/>
        <access friendlyPos="true" lane="-693953491_0" pos="75.08" length="98.08"/>
        <access friendlyPos="true" lane="693953490#1_0" pos="0.20" length="100.01"/>
        <access friendlyPos="true" lane="693953491_0" pos="0.00" length="102.81"/>
        <access friendlyPos="true" lane="693953490#0_0" pos="3.57" length="101.91"/>
        <access friendlyPos="true" lane="-64282776_0" pos="0.00" length="103.85"/>
        <access friendlyPos="true" lane="10671506#4_0" pos="0.00" length="111.13"/>
        <access friendlyPos="true" lane="64282776_0" pos="180.72" length="108.50"/>
    </trainStop>
    <trainStop id="180390329#24:109.99" lane="180390329#24_0" startPos="49.99" endPos="169.99" friendlyPos="true" name="Richtershorn (Berlin)">
        <access friendlyPos="true" lane="24032488#2_0" pos="0.00" length="13.08"/>
        <access friendlyPos="true" lane="-10671504#1_0" pos="38.34" length="11.72"/>
        <access friendlyPos="true" lane="-24032488#2_0" pos="89.83" length="18.45"/>
        <access friendlyPos="true" lane="10671504#1_0" pos="5.44" length="16.52"/>
        <access friendlyPos="true" lane="-10671504#0_0" pos="0.00" length="25.32"/>
        <access friendlyPos="true" lane="176187635#2_0" pos="413.33" length="27.82"/>
        <access friendlyPos="true" lane="317244747_0" pos="0.00" length="65.55"/>
        <access friendlyPos="true" lane="-317244747_0" pos="43.19" length="70.21"/>
        <access friendlyPos="true" lane="-10671504#2_0" pos="9.58" length="72.59"/>
        <access friendlyPos="true" lane="10671504#2_0" pos="0.00" length="73.52"/>
    </trainStop>
    <trainStop id="170799109#1:36.40" lane="170799109#1_0" startPos="0.00" endPos="96.40" friendlyPos="true" name="Schappachstr. (Berlin)">
        <access friendlyPos="true" lane="-116171834#7_0" pos="12.49" length="0.16"/>
        <access friendlyPos="true" lane="116171834#7_0" pos="31.43" length="4.96"/>
        <access friendlyPos="true" lane="-317683529#1_0" pos="31.43" length="20.44"/>
        <access friendlyPos="true" lane="416587115#0_0" pos="0.00" length="22.86"/>
        <access friendlyPos="true" lane="-116171834#8_0" pos="10.79" length="26.23"/>
        <access friendlyPos="true" lane="116171834#8_0" pos="0.00" length="26.69"/>
        <access friendlyPos="true" lane="317683529#1_0" pos="12.42" length="25.24"/>
        <access friendlyPos="true" lane="317683529#0_0" pos="9.95" length="36.00"/>
        <access friendlyPos="true" lane="-317683529#0_0" pos="0.00" length="34.71"/>
        <access friendlyPos="true" lane="416587114#0_0" pos="0.00" length="51.01"/>
    </trainStop>
    <trainStop id="170799109#3:158.78" lane="170799109#3_0" startPos="98.78" endPos="218.78" friendlyPos="true" name="Lübbenauer Weg (Berlin)">
        <access friendlyPos="true" lane="-116171834#3_0" pos="153.58" length="3.23"/>
        <access friendlyPos="true" lane="116171834#3_0" pos="27.93" length="8.04"/>
        <access friendlyPos="true" lane="301687326#3_0" pos="27.70" length="12.13"/>
        <access friendlyPos="true" lane="-301687326#3_0" pos="149.92" length="16.93"/>
        <access friendlyPos="true" lane="21721173#4_0" pos="55.87" length="51.42"/>
        <access friendlyPos="true" lane="-21721173#4_0" pos="0.00" length="56.20"/>
        <access friendlyPos="true" lane="-301687326#2_0" pos="0.00" length="69.26"/>
        <access friendlyPos="true" lane="-116171834#2_0" pos="0.00" length="66.97"/>
        <access friendlyPos="true" lane="116171834#2_0" pos="43.38" length="67.26"/>
        <access friendlyPos="true" lane="-21721173#8_0" pos="88.51" length="64.62"/>
    </trainStop>
    <trainStop id="169008810#2:0.00" lane="169008810#2_0" startPos="0.00" endPos="60.00" friendlyPos="true" name="Adlergestell/Vetschauer Allee (Berlin)">
        <access friendlyPos="true" lane="511575457#0_0" pos="0.00" length="14.94"/>
        <access friendlyPos="true" lane="-511575457#0_0" pos="74.15" length="16.86"/>
        <access friendlyPos="true" lane="240539087_0" pos="48.07" length="16.88"/>
        <access friendlyPos="true" lane="511575458#2_0" pos="0.00" length="27.30"/>
        <access friendlyPos="true" lane="157743391#0_0" pos="0.00" length="31.30"/>
        <access friendlyPos="true" lane="511575459_0" pos="1.89" length="39.22"/>
        <access friendlyPos="true" lane="157743392#0_0" pos="0.00" length="36.10"/>
        <access friendlyPos="true" lane="301688194_0" pos="0.00" length="36.16"/>
        <access friendlyPos="true" lane="197671089_0" pos="0.00" length="52.54"/>
        <access friendlyPos="true" lane="206903426#5_0" pos="29.26" length="48.21"/>
    </trainStop>
    <trainStop id="169008810#10:22.90" lane="169008810#10_0" startPos="0.00" endPos="82.90" friendlyPos="true" name="Zum Seeblick (Berlin)">
        <access friendlyPos="true" lane="240539089#4_0" pos="8.44" length="4.19"/>
        <access friendlyPos="true" lane="421209091#0_0" pos="5.27" length="2.76"/>
        <access friendlyPos="true" lane="197671091#1_0" pos="0.00" length="21.14"/>
        <access friendlyPos="true" lane="-197671091#1_0" pos="5.04" length="25.24"/>
        <access friendlyPos="true" lane="240539089#3_0" pos="15.85" length="27.03"/>
        <access friendlyPos="true" lane="421209091#1_0" pos="0.00" length="26.87"/>
        <access friendlyPos="true" lane="-197671091#3_0" pos="7.62" length="24.84"/>
        <access friendlyPos="true" lane="176187644#0_0" pos="0.00" length="28.96"/>
        <access friendlyPos="true" lane="350351302#5_0" pos="0.20" length="34.06"/>
        <access friendlyPos="true" lane="28925245#3_0" pos="25.13" length="37.77"/>
    </trainStop>
    <trainStop id="169008810#15:61.08" lane="169008810#15_0" startPos="1.08" endPos="121.08" friendlyPos="true" name="Alt-Schmöckwitz. (Berlin)">
        <access friendlyPos="true" lane="680724865_0" pos="10.45" length="13.72"/>
        <access friendlyPos="true" lane="44170716#1_0" pos="61.33" length="20.94"/>
        <access friendlyPos="true" lane="44170716#2_0" pos="0.00" length="26.52"/>
        <access friendlyPos="true" lane="266150542#0_0" pos="0.00" length="48.62"/>
        <access friendlyPos="true" lane="44170716#3_0" pos="0.00" length="42.84"/>
        <access friendlyPos="true" lane="44170716#6_0" pos="0.00" length="41.97"/>
        <access friendlyPos="true" lane="44170716#5_0" pos="12.72" length="42.47"/>
        <access friendlyPos="true" lane="266150542#1_0" pos="11.70" length="52.14"/>
        <access friendlyPos="true" lane="-421209092_0" pos="92.93" length="72.86"/>
        <access friendlyPos="true" lane="524196491_0" pos="0.00" length="74.36"/>
    </trainStop>
    <trainStop id="158512978#1:13.16" lane="158512978#1_0" startPos="0.00" endPos="73.16" friendlyPos="true" name="Alt--Schmöckwitz (Berlin)">
        <access friendlyPos="true" lane="-13376682#1_0" pos="75.40" length="27.59"/>
        <access friendlyPos="true" lane="421231594#0_0" pos="0.00" length="29.92"/>
        <access friendlyPos="true" lane="421231594#1_0" pos="0.00" length="32.16"/>
        <access friendlyPos="true" lane="13376682#1_0" pos="2.77" length="32.40"/>
        <access friendlyPos="true" lane="44170716#6_0" pos="37.59" length="43.73"/>
        <access friendlyPos="true" lane="565669872#0_0" pos="0.00" length="43.84"/>
        <access friendlyPos="true" lane="441960334#2_0" pos="3.31" length="50.35"/>
        <access friendlyPos="true" lane="441960334#1_0" pos="0.20" length="52.81"/>
        <access friendlyPos="true" lane="441960334#0_0" pos="0.20" length="54.19"/>
        <access friendlyPos="true" lane="565669872#1_0" pos="0.00" length="58.23"/>
    </trainStop>
    <trainStop id="263108169#1:0.00" lane="263108169#1_0" startPos="0.00" endPos="60.00" friendlyPos="true" name="Alt-Schmöckwitz (Berlin)">
        <access friendlyPos="true" lane="-4463781#1_0" pos="18.11" length="6.39"/>
        <access friendlyPos="true" lane="4463781#1_0" pos="11.83" length="11.19"/>
        <access friendlyPos="true" lane="441961566#6_0" pos="26.14" length="17.79"/>
        <access friendlyPos="true" lane="-383790135_0" pos="9.74" length="30.05"/>
        <access friendlyPos="true" lane="383790135_0" pos="0.00" length="34.78"/>
        <access friendlyPos="true" lane="-4463780#0_0" pos="62.53" length="39.46"/>
        <access friendlyPos="true" lane="4463780#0_0" pos="0.00" length="35.55"/>
        <access friendlyPos="true" lane="441960309#1_0" pos="0.39" length="33.99"/>
        <access friendlyPos="true" lane="-4463781#2_0" pos="14.86" length="35.93"/>
        <access friendlyPos="true" lane="4463781#2_0" pos="0.00" length="36.97"/>
    </trainStop>
    <trainStop id="263108169#6:119.35" lane="263108169#6_0" startPos="59.35" endPos="179.35" friendlyPos="true" name="Zum Seeblick (Berlin)">
        <access friendlyPos="true" lane="240539089#4_0" pos="8.44" length="4.19"/>
        <access friendlyPos="true" lane="421209091#0_0" pos="5.27" length="2.76"/>
        <access friendlyPos="true" lane="197671091#1_0" pos="0.00" length="21.14"/>
        <access friendlyPos="true" lane="-197671091#1_0" pos="5.04" length="25.24"/>
        <access friendlyPos="true" lane="240539089#3_0" pos="15.85" length="27.03"/>
        <access friendlyPos="true" lane="421209091#1_0" pos="0.00" length="26.87"/>
        <access friendlyPos="true" lane="-197671091#3_0" pos="7.62" length="24.84"/>
        <access friendlyPos="true" lane="176187644#0_0" pos="0.00" length="28.96"/>
        <access friendlyPos="true" lane="350351302#5_0" pos="0.20" length="34.06"/>
        <access friendlyPos="true" lane="28925245#3_0" pos="25.13" length="37.77"/>
    </trainStop>
    <trainStop id="263108169#16:3.43" lane="263108169#16_0" startPos="0.00" endPos="63.43" friendlyPos="true" name="Adlergestell/Vetschauer Allee (Berlin)">
        <access friendlyPos="true" lane="511575457#0_0" pos="0.00" length="14.94"/>
        <access friendlyPos="true" lane="-511575457#0_0" pos="74.15" length="16.86"/>
        <access friendlyPos="true" lane="240539087_0" pos="48.07" length="16.88"/>
        <access friendlyPos="true" lane="511575458#2_0" pos="0.00" length="27.30"/>
        <access friendlyPos="true" lane="157743391#0_0" pos="0.00" length="31.30"/>
        <access friendlyPos="true" lane="511575459_0" pos="1.89" length="39.22"/>
        <access friendlyPos="true" lane="157743392#0_0" pos="0.00" length="36.10"/>
        <access friendlyPos="true" lane="301688194_0" pos="0.00" length="36.16"/>
        <access friendlyPos="true" lane="197671089_0" pos="0.00" length="52.54"/>
        <access friendlyPos="true" lane="206903426#5_0" pos="29.26" length="48.21"/>
    </trainStop>
    <trainStop id="263108169#20:36.38" lane="263108169#20_0" startPos="0.00" endPos="96.38" friendlyPos="true" name="Lübbenauer Weg (Berlin)">
        <access friendlyPos="true" lane="-116171834#3_0" pos="153.58" length="3.23"/>
        <access friendlyPos="true" lane="116171834#3_0" pos="27.93" length="8.04"/>
        <access friendlyPos="true" lane="301687326#3_0" pos="27.70" length="12.13"/>
        <access friendlyPos="true" lane="-301687326#3_0" pos="149.92" length="16.93"/>
        <access friendlyPos="true" lane="21721173#4_0" pos="55.87" length="51.42"/>
        <access friendlyPos="true" lane="-21721173#4_0" pos="0.00" length="56.20"/>
        <access friendlyPos="true" lane="-301687326#2_0" pos="0.00" length="69.26"/>
        <access friendlyPos="true" lane="-116171834#2_0" pos="0.00" length="66.97"/>
        <access friendlyPos="true" lane="116171834#2_0" pos="43.38" length="67.26"/>
        <access friendlyPos="true" lane="-21721173#8_0" pos="88.51" length="64.62"/>
    </trainStop>
    <trainStop id="263108169#22:68.67" lane="263108169#22_0" startPos="8.67" endPos="128.67" friendlyPos="true" name="Schappachstr. (Berlin)">
        <access friendlyPos="true" lane="-116171834#7_0" pos="12.49" length="0.16"/>
        <access friendlyPos="true" lane="116171834#7_0" pos="31.43" length="4.96"/>
        <access friendlyPos="true" lane="-317683529#1_0" pos="31.43" length="20.44"/>
        <access friendlyPos="true" lane="416587115#0_0" pos="0.00" length="22.86"/>
        <access friendlyPos="true" lane="-116171834#8_0" pos="10.79" length="26.23"/>
        <access friendlyPos="true" lane="116171834#8_0" pos="0.00" length="26.69"/>
        <access friendlyPos="true" lane="317683529#1_0" pos="12.42" length="25.24"/>
        <access friendlyPos="true" lane="317683529#0_0" pos="9.95" length="36.00"/>
        <access friendlyPos="true" lane="-317683529#0_0" pos="0.00" length="34.71"/>
        <access friendlyPos="true" lane="416587114#0_0" pos="0.00" length="51.01"/>
    </trainStop>
    <trainStop id="263108169#25:8.10" lane="263108169#25_0" startPos="0.00" endPos="68.10" friendlyPos="true" name="Richtershorn (Berlin)">
        <access friendlyPos="true" lane="24032488#2_0" pos="0.00" length="13.08"/>
        <access friendlyPos="true" lane="-10671504#1_0" pos="38.34" length="11.72"/>
        <access friendlyPos="true" lane="-24032488#2_0" pos="89.83" length="18.45"/>
        <access friendlyPos="true" lane="10671504#1_0" pos="5.44" length="16.52"/>
        <access friendlyPos="true" lane="-10671504#0_0" pos="0.00" length="25.32"/>
        <access friendlyPos="true" lane="176187635#2_0" pos="413.33" length="27.82"/>
        <access friendlyPos="true" lane="317244747_0" pos="0.00" length="65.55"/>
        <access friendlyPos="true" lane="-317244747_0" pos="43.19" length="70.21"/>
        <access friendlyPos="true" lane="-10671504#2_0" pos="9.58" length="72.59"/>
        <access friendlyPos="true" lane="10671504#2_0" pos="0.00" length="73.52"/>
    </trainStop>
    <trainStop id="263108169#27:115.56" lane="263108169#27_0" startPos="55.56" endPos="175.56" friendlyPos="true" name="Bammelecke (Berlin)">
        <access friendlyPos="true" lane="10671506#3_0" pos="112.37" length="43.24"/>
        <access friendlyPos="true" lane="-693953491_0" pos="75.08" length="98.08"/>
        <access friendlyPos="true" lane="693953490#1_0" pos="0.20" length="100.01"/>
        <access friendlyPos="true" lane="693953491_0" pos="0.00" length="102.81"/>
        <access friendlyPos="true" lane="693953490#0_0" pos="3.57" length="101.91"/>
        <access friendlyPos="true" lane="-64282776_0" pos="0.00" length="103.85"/>
        <access friendlyPos="true" lane="10671506#4_0" pos="0.00" length="111.13"/>
        <access friendlyPos="true" lane="64282776_0" pos="180.72" length="108.50"/>
    </trainStop>
    <trainStop id="263108169#31:129.70" lane="263108169#31_0" startPos="69.70" endPos="189.70" friendlyPos="true" name="Strandbad Grünau (Berlin)">
        <access friendlyPos="true" lane="-8418405#3_0" pos="0.00" length="7.28"/>
        <access friendlyPos="true" lane="-8418405#4_0" pos="24.22" length="6.96"/>
        <access friendlyPos="true" lane="-670181877_0" pos="0.00" length="10.89"/>
        <access friendlyPos="true" lane="670181877_0" pos="38.27" length="11.13"/>
        <access friendlyPos="true" lane="8418405#3_0" pos="7.74" length="9.18"/>
        <access friendlyPos="true" lane="8418405#4_0" pos="0.00" length="8.93"/>
        <access friendlyPos="true" lane="416587110#0_0" pos="0.00" length="22.96"/>
        <access friendlyPos="true" lane="-8418405#2_0" pos="0.00" length="26.34"/>
        <access friendlyPos="true" lane="8418405#2_0" pos="104.32" length="26.94"/>
        <access friendlyPos="true" lane="180438651_0" pos="60.75" length="45.34"/>
    </trainStop>
    <trainStop id="263108169#34:49.25" lane="263108169#34_0" startPos="0.00" endPos="109.25" friendlyPos="true" name="Regattastr./Sportpromenade (Berlin)">
        <access friendlyPos="true" lane="151627030#3_0" pos="44.92" length="1.28"/>
        <access friendlyPos="true" lane="-151627030#3_0" pos="0.24" length="3.53"/>
        <access friendlyPos="true" lane="-151627030#4_0" pos="243.05" length="8.68"/>
        <access friendlyPos="true" lane="151627030#4_0" pos="0.00" length="8.06"/>
        <access friendlyPos="true" lane="416587113#0_0" pos="0.00" length="9.15"/>
        <access friendlyPos="true" lane="-702592792#1_0" pos="0.00" length="74.76"/>
        <access friendlyPos="true" lane="-151627030#2_0" pos="0.00" length="81.49"/>
        <access friendlyPos="true" lane="151627030#2_0" pos="100.45" length="81.40"/>
        <access friendlyPos="true" lane="702592792#1_0" pos="62.50" length="79.35"/>
        <access friendlyPos="true" lane="151627040#6_0" pos="113.19" length="109.43"/>
    </trainStop>
    <trainStop id="263108169#38:31.14" lane="263108169#38_0" startPos="0.00" endPos="91.14" friendlyPos="true" name="Regattatribünen (Berlin)">
        <access friendlyPos="true" lane="180392324#4_0" pos="27.20" length="6.94"/>
        <access friendlyPos="true" lane="-180392324#4_0" pos="17.79" length="11.74"/>
        <access friendlyPos="true" lane="-151627030#15_0" pos="19.05" length="18.90"/>
        <access friendlyPos="true" lane="151627030#15_0" pos="28.27" length="23.72"/>
        <access friendlyPos="true" lane="-4912480#4_0" pos="72.56" length="40.74"/>
        <access friendlyPos="true" lane="4912480#4_0" pos="0.00" length="45.15"/>
        <access friendlyPos="true" lane="318951470_0" pos="0.00" length="50.33"/>
        <access friendlyPos="true" lane="-379044639_0" pos="6.29" length="75.75"/>
        <access friendlyPos="true" lane="301687321_0" pos="0.00" length="67.84"/>
        <access friendlyPos="true" lane="-151627029#17_0" pos="0.00" length="77.18"/>
    </trainStop>
    <trainStop id="263108169#47:29.31" lane="263108169#47_0" startPos="0.00" endPos="89.31" friendlyPos="true" name="S Grünau (Berlin) [Adlergestell]">
        <access friendlyPos="true" lane="442574982#4_0" pos="46.78" length="4.69"/>
        <access friendlyPos="true" lane="442574982#2_0" pos="25.44" length="12.81"/>
        <access friendlyPos="true" lane="131490037#2_0" pos="25.29" length="16.16"/>
        <access friendlyPos="true" lane="-131490037#2_0" pos="82.74" length="19.17"/>
        <access friendlyPos="true" lane="328362698#1_0" pos="17.13" length="22.66"/>
        <access friendlyPos="true" lane="328362694_0" pos="0.00" length="32.12"/>
        <access friendlyPos="true" lane="-658716829_0" pos="13.92" length="32.26"/>
        <access friendlyPos="true" lane="-328362694_0" pos="33.76" length="39.23"/>
        <access friendlyPos="true" lane="16343847#5_0" pos="0.00" length="43.22"/>
        <access friendlyPos="true" lane="442574982#1_0" pos="0.00" length="43.22"/>
    </trainStop>
    <trainStop id="205681252#2:315.44" lane="205681252#2_0" startPos="255.44" endPos="375.44" friendlyPos="true" name="Wassersportallee (Berlin)">
        <access friendlyPos="true" lane="-52153733#1_0" pos="6.75" length="0.78"/>
        <access friendlyPos="true" lane="52153733#1_0" pos="47.54" length="5.59"/>
        <access friendlyPos="true" lane="-17272871_0" pos="0.00" length="22.83"/>
        <access friendlyPos="true" lane="-52153733#2_0" pos="72.90" length="31.64"/>
        <access friendlyPos="true" lane="17272871_0" pos="189.33" length="27.00"/>
        <access friendlyPos="true" lane="52153733#2_0" pos="0.00" length="32.18"/>
        <access friendlyPos="true" lane="-561573547_0" pos="48.46" length="76.99"/>
        <access friendlyPos="true" lane="528662942_0" pos="30.71" length="85.70"/>
        <access friendlyPos="true" lane="561573547_0" pos="0.00" length="81.69"/>
        <access friendlyPos="true" lane="-52153733#0_0" pos="0.00" length="85.53"/>
    </trainStop>
    <trainStop id="461452916:293.64" lane="461452916_0" startPos="233.64" endPos="353.64" friendlyPos="true" name="Regattastr./Schule (Berlin)">
    </trainStop>
    <trainStop id="461452916:819.86" lane="461452916_0" startPos="759.86" endPos="879.86" friendlyPos="true" name="Friedrich-Wolf-Str. (Berlin)">
    </trainStop>
    <trainStop id="461452916:1205.90" lane="461452916_0" startPos="1145.90" endPos="1265.90" friendlyPos="true" name="Betonwerk (Berlin)">
    </trainStop>
    <route id="62_257252" edges="171419641 319292807">