<?xml version="1.0" encoding="UTF-8"?>

<!-- generated on 2022-03-04 10:29:08 by Eclipse SUMO netedit Version v1_12_0+1137-e9106068858
-->

<additional xmlns:xsi="http://www.w3.org/2001/XMLSchema-instance" xsi:noNamespaceSchemaLocation="http://sumo.dlr.de/xsd/additional_file.xsd">
    <!-- Detectors -->
    <e3Detector id="E3_0" pos="7.50,3.00" freq="100.00" file="fileA.txt">
        <detEntry lane="gneE0_0" pos="10.00"/>
        <detExit lane="gneE0_0" pos="15.00"/>
    </e3Detector>
    <e3Detector id="E3_1" pos="17.50,3.00" freq="100.00" file="fileB.txt">
        <detEntry lane="gneE0_0" pos="20.00" friendlyPos="1"/>
        <detExit lane="gneE0_0" pos="25.00"/>
    </e3Detector>
</additional>
