<?xml version="1.0" encoding="UTF-8"?>

<!-- generated on 2022-06-29 09:31:22 by Eclipse SUMO netedit Version v1_13_0+1291-82ac0ee5f81
-->

<routes xmlns:xsi="http://www.w3.org/2001/XMLSchema-instance" xsi:noNamespaceSchemaLocation="http://sumo.dlr.de/xsd/routes_file.xsd">
    <!-- Vehicles, persons and containers (sorted by depart) -->
    <trip id="t_0" depart="0.00" color="139,131,120" fromTaz="taz_green" toTaz="taz_red"/>
    <trip id="t_1" depart="0.00" color="cyan" fromTaz="taz_green" toTaz="taz_red"/>
    <trip id="t_2" depart="0.00" color="12,13,14" fromTaz="taz_green" toTaz="taz_red"/>
</routes>
