<?xml version="1.0" encoding="UTF-8"?>

<!-- generated on Wed May 22 12:12:10 2013 by SUMO netconvert Version dev-SVN-rUNKNOWN
<?xml version="1.0" encoding="UTF-8"?>

<configuration xmlns:xsi="http://www.w3.org/2001/XMLSchema-instance" xsi:noNamespaceSchemaLocation="http://sumo.sf.net/xsd/netconvertConfiguration.xsd">

    <input>
        <node-files value="input_nodes.nod.xml"/>
        <edge-files value="input_edges.edg.xml"/>
    </input>

    <output>
        <output-file value="net.net.xml"/>
    </output>

    <edge_removal>
        <keep-edges.explicit value="1fi,1si,1o,2fi,2si,2o,4fi,4si,4o"/>
    </edge_removal>

    <processing>
        <no-internal-links value="true"/>
    </processing>

    <report>
        <verbose value="true"/>
    </report>

</configuration>
-->

<net version="0.13" xmlns:xsi="http://www.w3.org/2001/XMLSchema-instance" xsi:noNamespaceSchemaLocation="http://sumo.sf.net/xsd/net_file.xsd">

    <location netOffset="500.00,0.00" convBoundary="0.00,0.00,1000.00,500.00" origBoundary="-500.00,-500.00,500.00,500.00" projParameter="!"/>

    <edge id="1fi" from="1" to="m1" priority="2">
        <lane id="1fi_0" index="0" speed="11.11" length="250.00" shape="0.00,-4.95 248.50,-4.95"/>
        <lane id="1fi_1" index="1" speed="11.11" length="250.00" shape="0.00,-1.65 248.50,-1.65"/>
    </edge>
    <edge id="1o" from="0" to="1" priority="1">
        <lane id="1o_0" index="0" speed="11.11" length="500.00" shape="488.65,1.65 0.00,1.65"/>
    </edge>
    <edge id="1si" from="m1" to="0" priority="3">
        <lane id="1si_0" index="0" speed="13.89" length="250.00" shape="251.50,-8.25 488.65,-8.25"/>
        <lane id="1si_1" index="1" speed="13.89" length="250.00" shape="251.50,-4.95 488.65,-4.95"/>
        <lane id="1si_2" index="2" speed="13.89" length="250.00" shape="251.50,-1.65 488.65,-1.65"/>
    </edge>
    <edge id="2fi" from="2" to="m2" priority="2">
        <lane id="2fi_0" index="0" speed="11.11" length="250.00" shape="1000.00,4.95 751.50,4.95"/>
        <lane id="2fi_1" index="1" speed="11.11" length="250.00" shape="1000.00,1.65 751.50,1.65"/>
    </edge>
    <edge id="2o" from="0" to="2" priority="1">
        <lane id="2o_0" index="0" speed="11.11" length="500.00" shape="504.75,-1.65 1000.00,-1.65"/>
    </edge>
    <edge id="2si" from="m2" to="0" priority="3">
        <lane id="2si_0" index="0" speed="13.89" length="250.00" shape="748.50,8.25 504.75,8.25"/>
        <lane id="2si_1" index="1" speed="13.89" length="250.00" shape="748.50,4.95 504.75,4.95"/>
        <lane id="2si_2" index="2" speed="13.89" length="250.00" shape="748.50,1.65 504.75,1.65"/>
    </edge>
    <edge id="4fi" from="4" to="m4" priority="2">
        <lane id="4fi_0" index="0" speed="11.11" length="250.00" shape="495.05,500.00 495.05,251.50"/>
        <lane id="4fi_1" index="1" speed="11.11" length="250.00" shape="498.35,500.00 498.35,251.50"/>
    </edge>
    <edge id="4o" from="0" to="4" priority="1">
        <lane id="4o_0" index="0" speed="11.11" length="500.00" shape="501.65,11.35 501.65,500.00"/>
    </edge>
    <edge id="4si" from="m4" to="0" priority="3">
        <lane id="4si_0" index="0" speed="13.89" length="250.00" shape="491.75,248.50 491.75,11.35"/>
        <lane id="4si_1" index="1" speed="13.89" length="250.00" shape="495.05,248.50 495.05,11.35"/>
        <lane id="4si_2" index="2" speed="13.89" length="250.00" shape="498.35,248.50 498.35,11.35"/>
    </edge>

    <junction id="0" type="priority" x="500.00" y="0.00" incLanes="4si_0 4si_1 4si_2 2si_0 2si_1 2si_2 1si_0 1si_1 1si_2" intLanes="" shape="490.15,11.35 503.25,11.35 504.75,9.85 504.75,-3.25 488.65,-9.85 488.65,3.25">
        <request index="0" response="000010000" foes="100010000"/>
        <request index="1" response="011010000" foes="011110000"/>
        <request index="2" response="010001000" foes="010001000"/>
        <request index="3" response="000000000" foes="010000100"/>
        <request index="4" response="000000000" foes="110000011"/>
        <request index="5" response="001000010" foes="001000010"/>
        <request index="6" response="000000000" foes="000100010"/>
        <request index="7" response="000011000" foes="000011110"/>
        <request index="8" response="000010001" foes="000010001"/>
    </junction>
    <junction id="1" type="priority" x="0.00" y="0.00" incLanes="1o_0" intLanes="" shape="-0.00,-0.05 -0.00,-6.55 0.00,3.25 0.00,0.05">
        <request index="0" response="0" foes="0"/>
    </junction>
    <junction id="2" type="priority" x="1000.00" y="0.00" incLanes="2o_0" intLanes="" shape="1000.00,0.05 1000.00,6.55 1000.00,-3.25 1000.00,-0.05">
        <request index="0" response="0" foes="0"/>
    </junction>
    <junction id="4" type="priority" x="500.00" y="500.00" incLanes="4o_0" intLanes="" shape="499.95,500.00 493.45,500.00 503.25,500.00 500.05,500.00">
        <request index="0" response="0" foes="0"/>
    </junction>
    <junction id="m1" type="priority" x="250.00" y="0.00" incLanes="1fi_0 1fi_1" intLanes="" shape="251.50,-0.05 251.50,-9.85 248.50,-6.55 248.50,-0.05">
        <request index="0" response="000" foes="000"/>
        <request index="1" response="000" foes="000"/>
        <request index="2" response="000" foes="000"/>
    </junction>
    <junction id="m2" type="priority" x="750.00" y="0.00" incLanes="2fi_0 2fi_1" intLanes="" shape="751.50,6.55 751.50,0.05 748.50,0.05 748.50,9.85">
        <request index="0" response="000" foes="000"/>
        <request index="1" response="000" foes="000"/>
        <request index="2" response="000" foes="000"/>
    </junction>
    <junction id="m4" type="priority" x="500.00" y="250.00" incLanes="4fi_0 4fi_1" intLanes="" shape="493.45,251.50 499.95,251.50 499.95,248.50 490.15,248.50">
        <request index="0" response="000" foes="000"/>
        <request index="1" response="000" foes="000"/>
        <request index="2" response="000" foes="000"/>
    </junction>

    <connection from="1fi" to="1si" fromLane="0" toLane="0" dir="s" state="M"/>
    <connection from="1fi" to="1si" fromLane="0" toLane="1" dir="s" state="M"/>
    <connection from="1fi" to="1si" fromLane="1" toLane="2" dir="s" state="M"/>
    <connection from="1o" to="1fi" fromLane="0" toLane="1" dir="t" state="M"/>
    <connection from="1si" to="2o" fromLane="0" toLane="0" dir="s" state="M"/>
    <connection from="1si" to="4o" fromLane="1" toLane="0" dir="l" state="m"/>
    <connection from="1si" to="1o" fromLane="2" toLane="0" dir="t" state="m"/>
    <connection from="2fi" to="2si" fromLane="0" toLane="0" dir="s" state="M"/>
    <connection from="2fi" to="2si" fromLane="0" toLane="1" dir="s" state="M"/>
    <connection from="2fi" to="2si" fromLane="1" toLane="2" dir="s" state="M"/>
    <connection from="2o" to="2fi" fromLane="0" toLane="1" dir="t" state="M"/>
    <connection from="2si" to="4o" fromLane="0" toLane="0" dir="r" state="M"/>
    <connection from="2si" to="1o" fromLane="1" toLane="0" dir="s" state="M"/>
    <connection from="2si" to="2o" fromLane="2" toLane="0" dir="t" state="m"/>
    <connection from="4fi" to="4si" fromLane="0" toLane="0" dir="s" state="M"/>
    <connection from="4fi" to="4si" fromLane="0" toLane="1" dir="s" state="M"/>
    <connection from="4fi" to="4si" fromLane="1" toLane="2" dir="s" state="M"/>
    <connection from="4o" to="4fi" fromLane="0" toLane="1" dir="t" state="M"/>
    <connection from="4si" to="1o" fromLane="0" toLane="0" dir="r" state="m"/>
    <connection from="4si" to="2o" fromLane="1" toLane="0" dir="l" state="m"/>
    <connection from="4si" to="4o" fromLane="2" toLane="0" dir="t" state="m"/>

</net>
