<?xml version="1.0"?>

<!-- generated on 07/18/08 14:38:05 by SUMO netconvert Version 0.9.7
<configuration>

   <input>
      <xml-node-files>input_nodes.nod.xml</xml-node-files>
      <xml-edge-files>input_edges.edg.xml</xml-edge-files>
   </input>

   <output>
      <output-file>net.net.xml</output-file>
   </output>

   <edge_removal>
      <keep-edges>1fi,1si,1o,2fi,2si,2o,4fi,4si,4o</keep-edges>
   </edge_removal>

</configuration>
-->

<net>

   <net-offset>500.000000,500.000000</net-offset>
   <conv-boundary>0.000000,0.000000,1000.000000,1000.000000</conv-boundary>
   <orig-boundary>-500.000000,-500.000000,500.000000,500.000000</orig-boundary>
   <orig-proj>!</orig-proj>

   <edges no="9">1fi 1o 1si 2fi 2o 2si 4fi 4o 4si</edges>
   <node_count>7</node_count>


   <edge id="1fi" from="1" to="m1" priority="2" type="" function="normal">
      <lanes>
         <lane id="1fi_0" depart="1" vclasses="" maxspeed="11.11" length="248.50">0.00,495.05 248.50,495.05</lane>
         <lane id="1fi_1" depart="0" vclasses="" maxspeed="11.11" length="248.50">0.00,498.35 248.50,498.35</lane>
      </lanes>
      <cedge id="1si">1fi_0 1fi_1</cedge>
   </edge>

   <edge id="1o" from="0" to="1" priority="1" type="" function="normal">
      <lanes>
         <lane id="1o_0" depart="1" vclasses="" maxspeed="11.11" length="488.65">488.65,501.65 0.00,501.65</lane>
      </lanes>
      <cedge id="1fi">1o_0</cedge>
   </edge>

   <edge id="1si" from="m1" to="0" priority="3" type="" function="normal">
      <lanes>
         <lane id="1si_0" depart="1" vclasses="" maxspeed="13.89" length="237.15">251.50,491.75 488.65,491.75</lane>
         <lane id="1si_1" depart="0" vclasses="" maxspeed="13.89" length="237.15">251.50,495.05 488.65,495.05</lane>
         <lane id="1si_2" depart="0" vclasses="" maxspeed="13.89" length="237.15">251.50,498.35 488.65,498.35</lane>
      </lanes>
      <cedge id="2o">1si_0</cedge>
      <cedge id="4o">1si_1</cedge>
      <cedge id="1o">1si_2</cedge>
   </edge>

   <edge id="2fi" from="2" to="m2" priority="2" type="" function="normal">
      <lanes>
         <lane id="2fi_0" depart="1" vclasses="" maxspeed="11.11" length="248.50">1000.00,504.95 751.50,504.95</lane>
         <lane id="2fi_1" depart="0" vclasses="" maxspeed="11.11" length="248.50">1000.00,501.65 751.50,501.65</lane>
      </lanes>
      <cedge id="2si">2fi_0 2fi_1</cedge>
   </edge>

   <edge id="2o" from="0" to="2" priority="1" type="" function="normal">
      <lanes>
         <lane id="2o_0" depart="1" vclasses="" maxspeed="11.11" length="495.25">504.75,498.35 1000.00,498.35</lane>
      </lanes>
      <cedge id="2fi">2o_0</cedge>
   </edge>

   <edge id="2si" from="m2" to="0" priority="3" type="" function="normal">
      <lanes>
         <lane id="2si_0" depart="1" vclasses="" maxspeed="13.89" length="243.75">748.50,508.25 504.75,508.25</lane>
         <lane id="2si_1" depart="0" vclasses="" maxspeed="13.89" length="243.75">748.50,504.95 504.75,504.95</lane>
         <lane id="2si_2" depart="0" vclasses="" maxspeed="13.89" length="243.75">748.50,501.65 504.75,501.65</lane>
      </lanes>
      <cedge id="4o">2si_0</cedge>
      <cedge id="1o">2si_1</cedge>
      <cedge id="2o">2si_2</cedge>
   </edge>

   <edge id="4fi" from="4" to="m4" priority="2" type="" function="normal">
      <lanes>
         <lane id="4fi_0" depart="1" vclasses="" maxspeed="11.11" length="248.50">495.05,1000.00 495.05,751.50</lane>
         <lane id="4fi_1" depart="0" vclasses="" maxspeed="11.11" length="248.50">498.35,1000.00 498.35,751.50</lane>
      </lanes>
      <cedge id="4si">4fi_0 4fi_1</cedge>
   </edge>

   <edge id="4o" from="0" to="4" priority="1" type="" function="normal">
      <lanes>
         <lane id="4o_0" depart="1" vclasses="" maxspeed="11.11" length="488.65">501.65,511.35 501.65,1000.00</lane>
      </lanes>
      <cedge id="4fi">4o_0</cedge>
   </edge>

   <edge id="4si" from="m4" to="0" priority="3" type="" function="normal">
      <lanes>
         <lane id="4si_0" depart="1" vclasses="" maxspeed="13.89" length="237.15">491.75,748.50 491.75,511.35</lane>
         <lane id="4si_1" depart="0" vclasses="" maxspeed="13.89" length="237.15">495.05,748.50 495.05,511.35</lane>
         <lane id="4si_2" depart="0" vclasses="" maxspeed="13.89" length="237.15">498.35,748.50 498.35,511.35</lane>
      </lanes>
      <cedge id="1o">4si_0</cedge>
      <cedge id="2o">4si_1</cedge>
      <cedge id="4o">4si_2</cedge>
   </edge>


   <row-logic>
      <key>0</key>
      <requestsize>9</requestsize>
      <lanenumber>9</lanenumber>
      <logic>
         <logicitem request="0" response="000010000" foes="100010000"/>
         <logicitem request="1" response="011010000" foes="011110000"/>
         <logicitem request="2" response="010001000" foes="010001000"/>
         <logicitem request="3" response="000000000" foes="010000100"/>
         <logicitem request="4" response="000000000" foes="110000011"/>
         <logicitem request="5" response="001000010" foes="001000010"/>
         <logicitem request="6" response="000000000" foes="000100010"/>
         <logicitem request="7" response="000011000" foes="000011110"/>
         <logicitem request="8" response="000010001" foes="000010001"/>
      </logic>
   </row-logic>

   <row-logic>
      <key>1</key>
      <requestsize>2</requestsize>
      <lanenumber>1</lanenumber>
      <logic>
         <logicitem request="0" response="00" foes="00"/>
         <logicitem request="1" response="00" foes="00"/>
      </logic>
   </row-logic>

   <row-logic>
      <key>2</key>
      <requestsize>2</requestsize>
      <lanenumber>1</lanenumber>
      <logic>
         <logicitem request="0" response="00" foes="00"/>
         <logicitem request="1" response="00" foes="00"/>
      </logic>
   </row-logic>

   <row-logic>
      <key>4</key>
      <requestsize>2</requestsize>
      <lanenumber>1</lanenumber>
      <logic>
         <logicitem request="0" response="00" foes="00"/>
         <logicitem request="1" response="00" foes="00"/>
      </logic>
   </row-logic>

   <row-logic>
      <key>m1</key>
      <requestsize>3</requestsize>
      <lanenumber>2</lanenumber>
      <logic>
         <logicitem request="0" response="000" foes="000"/>
         <logicitem request="1" response="000" foes="000"/>
         <logicitem request="2" response="000" foes="000"/>
      </logic>
   </row-logic>

   <row-logic>
      <key>m2</key>
      <requestsize>3</requestsize>
      <lanenumber>2</lanenumber>
      <logic>
         <logicitem request="0" response="000" foes="000"/>
         <logicitem request="1" response="000" foes="000"/>
         <logicitem request="2" response="000" foes="000"/>
      </logic>
   </row-logic>

   <row-logic>
      <key>m4</key>
      <requestsize>3</requestsize>
      <lanenumber>2</lanenumber>
      <logic>
         <logicitem request="0" response="000" foes="000"/>
         <logicitem request="1" response="000" foes="000"/>
         <logicitem request="2" response="000" foes="000"/>
      </logic>
   </row-logic>


   <tl-logic type="static">
      <key>0</key>
      <subkey>0</subkey>
      <phaseno>8</phaseno>
      <offset>0</offset>
      <phase duration="31" phase="000001111" brake="111110100" yellow="000000000"/>
      <phase duration="4" phase="000000100" brake="111111111" yellow="000001011"/>
      <phase duration="6" phase="000000100" brake="111111011" yellow="000000000"/>
      <phase duration="4" phase="000000000" brake="111111111" yellow="000000100"/>
      <phase duration="31" phase="111111000" brake="110100111" yellow="000000000"/>
      <phase duration="4" phase="110100000" brake="111111111" yellow="001011000"/>
      <phase duration="6" phase="110100000" brake="001011111" yellow="000000000"/>
      <phase duration="4" phase="000000000" brake="111111111" yellow="110100000"/>
   </tl-logic>


   <junction id="0" type="priority" x="500.00" y="500.00">
      <inclanes>4si_0 4si_1 4si_2 2si_0 2si_1 2si_2 1si_0 1si_1 1si_2</inclanes>
      <shape>490.15,511.35 503.25,511.35 504.75,509.85 504.75,496.75 488.65,490.15 488.65,503.25</shape>
   </junction>

   <junction id="1" type="priority" x="0.00" y="500.00">
      <inclanes>1o_0</inclanes>
      <shape>-0.00,499.95 -0.00,493.45 0.00,503.25 0.00,500.05</shape>
   </junction>

   <junction id="2" type="priority" x="1000.00" y="500.00">
      <inclanes>2o_0</inclanes>
      <shape>1000.00,500.05 1000.00,506.55 1000.00,496.75 1000.00,499.95</shape>
   </junction>

   <junction id="4" type="priority" x="500.00" y="1000.00">
      <inclanes>4o_0</inclanes>
      <shape>499.95,1000.00 493.45,1000.00 503.25,1000.00 500.05,1000.00</shape>
   </junction>

   <junction id="m1" type="priority" x="250.00" y="500.00">
      <inclanes>1fi_0 1fi_1</inclanes>
      <shape>251.50,499.95 251.50,490.15 248.50,493.45 248.50,499.95</shape>
   </junction>

   <junction id="m2" type="priority" x="750.00" y="500.00">
      <inclanes>2fi_0 2fi_1</inclanes>
      <shape>751.50,506.55 751.50,500.05 748.50,500.05 748.50,509.85</shape>
   </junction>

   <junction id="m4" type="priority" x="500.00" y="750.00">
      <inclanes>4fi_0 4fi_1</inclanes>
      <shape>493.45,751.50 499.95,751.50 499.95,748.50 490.15,748.50</shape>
   </junction>


   <succ edge="1fi" lane="1fi_0" junction="m1">
      <succlane lane="1si_0" yield="0" dir="s" state="M"/>
      <succlane lane="1si_1" yield="0" dir="s" state="M"/>
   </succ>

   <succ edge="1fi" lane="1fi_1" junction="m1">
      <succlane lane="1si_2" yield="0" dir="s" state="M"/>
   </succ>

   <succ edge="1o" lane="1o_0" junction="1">
      <succlane lane="1fi_0" yield="0" dir="t" state="M"/>
      <succlane lane="1fi_1" yield="0" dir="t" state="M"/>
   </succ>

   <succ edge="1si" lane="1si_0" junction="0">
      <succlane lane="2o_0" tl="0" linkno="6" yield="1" dir="s" state="t"/>
   </succ>

   <succ edge="1si" lane="1si_1" junction="0">
      <succlane lane="4o_0" tl="0" linkno="7" yield="1" dir="l" state="t" int_end="x"/>
   </succ>

   <succ edge="1si" lane="1si_2" junction="0">
      <succlane lane="1o_0" tl="0" linkno="8" yield="1" dir="t" state="t" int_end="x"/>
   </succ>

   <succ edge="2fi" lane="2fi_0" junction="m2">
      <succlane lane="2si_0" yield="0" dir="s" state="M"/>
      <succlane lane="2si_1" yield="0" dir="s" state="M"/>
   </succ>

   <succ edge="2fi" lane="2fi_1" junction="m2">
      <succlane lane="2si_2" yield="0" dir="s" state="M"/>
   </succ>

   <succ edge="2o" lane="2o_0" junction="2">
      <succlane lane="2fi_0" yield="0" dir="t" state="M"/>
      <succlane lane="2fi_1" yield="0" dir="t" state="M"/>
   </succ>

   <succ edge="2si" lane="2si_0" junction="0">
      <succlane lane="4o_0" tl="0" linkno="3" yield="1" dir="r" state="t"/>
   </succ>

   <succ edge="2si" lane="2si_1" junction="0">
      <succlane lane="1o_0" tl="0" linkno="4" yield="1" dir="s" state="t"/>
   </succ>

   <succ edge="2si" lane="2si_2" junction="0">
      <succlane lane="2o_0" tl="0" linkno="5" yield="1" dir="t" state="t" int_end="x"/>
   </succ>

   <succ edge="4fi" lane="4fi_0" junction="m4">
      <succlane lane="4si_0" yield="0" dir="s" state="M"/>
      <succlane lane="4si_1" yield="0" dir="s" state="M"/>
   </succ>

   <succ edge="4fi" lane="4fi_1" junction="m4">
      <succlane lane="4si_2" yield="0" dir="s" state="M"/>
   </succ>

   <succ edge="4o" lane="4o_0" junction="4">
      <succlane lane="4fi_0" yield="0" dir="t" state="M"/>
      <succlane lane="4fi_1" yield="0" dir="t" state="M"/>
   </succ>

   <succ edge="4si" lane="4si_0" junction="0">
      <succlane lane="1o_0" tl="0" linkno="0" yield="1" dir="r" state="t"/>
   </succ>

   <succ edge="4si" lane="4si_1" junction="0">
      <succlane lane="2o_0" tl="0" linkno="1" yield="1" dir="l" state="t" int_end="x"/>
   </succ>

   <succ edge="4si" lane="4si_2" junction="0">
      <succlane lane="4o_0" tl="0" linkno="2" yield="1" dir="t" state="t" int_end="x"/>
   </succ>


</net>
