<?xml version="1.0" encoding="UTF-8"?>

<!-- generated on 2022-04-29 14:51:11 by Eclipse SUMO netedit Version v1_12_0+2369-7d34edf5670
-->

<routes xmlns:xsi="http://www.w3.org/2001/XMLSchema-instance" xsi:noNamespaceSchemaLocation="http://sumo.dlr.de/xsd/routes_file.xsd">
    <!-- Vehicles, persons and containers (sorted by depart) -->
    <flow id="f_0" begin="0.00" departLane="random" arrivalLane="0" from="378048179#1" to="624411668#0" end="16.00" period="1"/>
</routes>
