<routes>
    <vType id="DEFAULT_VEHTYPE"/>

    <route id="r0" edges="VODUGES_beg VODUGES_end"/>
    <route id="r1" edges="-VODUGES_end -VODUGES_beg"/>
    <route id="r3" edges="VODUGES_beg CN"/>

    <vehicle id="stopped"  route="r0" departPos="40" depart="0">
        <stop lane="VODUGES_end_0" endPos="8" duration="100"/>
    </vehicle>
    <vehicle id="stopped2"  route="r0" departPos="40" depart="2">
        <stop lane="VODUGES_beg_0" endPos="45" duration="100"/>
    </vehicle>
    <vehicle id="overtaking" route="r3" departPos="0"  depart="2"/>

    <vehicle id="oncoming1" route="r1" departPos="100"  depart="3"/>
    <vehicle id="oncoming2" route="r1" departPos="20"  depart="3"/>
    <vehicle id="oncoming3" route="r1" departPos="0"  depart="3"/>

</routes>
