<?xml version="1.0" encoding="UTF-8"?>

<!-- generated on 2026-03-06 12:19:21.216947 by Eclipse SUMO countEdgeUsage.py v1_26_0+0483-f141f398917
<configuration>
    <output-file value="out.rou.xml"/>
    <routefiles value="routes.rou.xml"/>
</configuration>
-->

<data xmlns:xsi="http://www.w3.org/2001/XMLSchema-instance" xsi:noNamespaceSchemaLocation="http://sumo.dlr.de/xsd/datamode_file.xsd">
    <interval begin="0" end="1000000" id="routeStats">
        <edge id="a" departed="1" arrived="0" delta="-1"/>
        <edge id="c" departed="1" arrived="0" delta="-1"/>
        <edge id="d" departed="0" arrived="1" delta="1"/>
        <edge id="g" departed="0" arrived="1" delta="1"/>
        <edge id="h" departed="1" arrived="0" delta="-1"/>
        <edge id="j" departed="0" arrived="1" delta="1"/>
    </interval>
</data>
