<?xml version="1.0"?>

<!-- generated on 05/08/09 17:50:19 by SUMO duarouter Version dev-SVN-r7129
<configuration>

   <input>
      <net-file>input_net.net.xml</net-file>
      <trip-defs>input_trips.trips.xml</trip-defs>
   </input>

   <output>
      <output-file>routes.rou.xml</output-file>
   </output>

   <time>
      <end>20</end>
   </time>

</configuration>
-->

<routes>
   <vehicle id="0" type="0" depart="0.00">
      <route edges="beg middle end rend"/>
   </vehicle>
   <vehicle id="1" type="0" depart="10.00">
      <route edges="beg middle end rend"/>
   </vehicle>
</routes>
