<?xml version="1.0" encoding="UTF-8"?>

<!-- generated on 2022-12-12 16:09:53 by Eclipse SUMO sumo Version v1_15_0+0950-54c0256
This data file and the accompanying materials
are made available under the terms of the Eclipse Public License v2.0
which accompanies this distribution, and is available at
http://www.eclipse.org/legal/epl-v20.html
This file may also be made available under the following Secondary
Licenses when the conditions for such availability set forth in the Eclipse
Public License 2.0 are satisfied: GNU General Public License, version 2
or later which is available at
https://www.gnu.org/licenses/old-licenses/gpl-2.0-standalone.html
SPDX-License-Identifier: EPL-2.0 OR GPL-2.0-or-later
<configuration xmlns:xsi="http://www.w3.org/2001/XMLSchema-instance" xsi:noNamespaceSchemaLocation="http://sumo.dlr.de/xsd/sumoConfiguration.xsd">

    <input>
        <net-file value="net.net.xml"/>
        <route-files value="input_routes.rou.xml"/>
    </input>

    <output>
        <write-license value="true"/>
        <lanechange-output value="lanechanges.xml"/>
        <lanechange-output.started value="true"/>
        <lanechange-output.ended value="true"/>
    </output>

    <time>
        <step-length value="0.2"/>
    </time>

    <processing>
        <lateral-resolution value="0.2"/>
        <default.speeddev value="0"/>
    </processing>

    <report>
        <xml-validation value="never"/>
        <no-step-log value="true"/>
    </report>

</configuration>
-->

<lanechanges>
    <changeStarted id="ego" type="DEFAULT_VEHTYPE" time="15.00" from="E0_0" to="E0_0" dir="0" speed="27.78" pos="436.70" reason="strategic|urgent" leaderGap="None" leaderSecureGap="None" leaderSpeed="None" followerGap="None" followerSecureGap="None" followerSpeed="None" origLeaderGap="None" origLeaderSecureGap="None" origLeaderSpeed="None" latGap="None" maneuverDistance="2.50"/>
    <changeStarted id="ego" type="DEFAULT_VEHTYPE" time="15.40" from="E0_0" to="E0_0" dir="0" speed="27.78" pos="447.81" reason="strategic|urgent" leaderGap="None" leaderSecureGap="None" leaderSpeed="None" followerGap="None" followerSecureGap="None" followerSpeed="None" origLeaderGap="None" origLeaderSecureGap="None" origLeaderSpeed="None" latGap="None" maneuverDistance="2.46"/>
    <changeStarted id="ego" type="DEFAULT_VEHTYPE" time="15.80" from="E0_0" to="E0_0" dir="0" speed="27.78" pos="458.92" reason="strategic|urgent" leaderGap="None" leaderSecureGap="None" leaderSpeed="None" followerGap="None" followerSecureGap="None" followerSpeed="None" origLeaderGap="None" origLeaderSecureGap="None" origLeaderSpeed="None" latGap="None" maneuverDistance="2.42"/>
    <changeStarted id="ego" type="DEFAULT_VEHTYPE" time="16.20" from="E0_0" to="E0_0" dir="0" speed="27.78" pos="470.04" reason="strategic|urgent" leaderGap="None" leaderSecureGap="None" leaderSpeed="None" followerGap="None" followerSecureGap="None" followerSpeed="None" origLeaderGap="None" origLeaderSecureGap="None" origLeaderSpeed="None" latGap="None" maneuverDistance="2.38"/>
    <changeStarted id="ego" type="DEFAULT_VEHTYPE" time="16.60" from="E0_0" to="E0_0" dir="0" speed="27.78" pos="481.15" reason="strategic|urgent" leaderGap="None" leaderSecureGap="None" leaderSpeed="None" followerGap="None" followerSecureGap="None" followerSpeed="None" origLeaderGap="None" origLeaderSecureGap="None" origLeaderSpeed="None" latGap="None" maneuverDistance="2.34"/>
    <changeStarted id="ego" type="DEFAULT_VEHTYPE" time="17.00" from="E0_0" to="E0_0" dir="0" speed="27.78" pos="492.26" reason="strategic|urgent" leaderGap="None" leaderSecureGap="None" leaderSpeed="None" followerGap="None" followerSecureGap="None" followerSpeed="None" origLeaderGap="None" origLeaderSecureGap="None" origLeaderSpeed="None" latGap="None" maneuverDistance="2.30"/>
    <changeStarted id="ego" type="DEFAULT_VEHTYPE" time="17.40" from="E0_0" to="E0_0" dir="0" speed="27.78" pos="503.37" reason="strategic|urgent" leaderGap="None" leaderSecureGap="None" leaderSpeed="None" followerGap="None" followerSecureGap="None" followerSpeed="None" origLeaderGap="None" origLeaderSecureGap="None" origLeaderSpeed="None" latGap="None" maneuverDistance="2.26"/>
    <changeStarted id="ego" type="DEFAULT_VEHTYPE" time="17.80" from="E0_0" to="E0_0" dir="0" speed="27.78" pos="514.48" reason="strategic|urgent" leaderGap="None" leaderSecureGap="None" leaderSpeed="None" followerGap="None" followerSecureGap="None" followerSpeed="None" origLeaderGap="None" origLeaderSecureGap="None" origLeaderSpeed="None" latGap="None" maneuverDistance="2.22"/>
    <changeStarted id="ego" type="DEFAULT_VEHTYPE" time="18.20" from="E0_0" to="E0_0" dir="0" speed="27.78" pos="525.60" reason="strategic|urgent" leaderGap="None" leaderSecureGap="None" leaderSpeed="None" followerGap="None" followerSecureGap="None" followerSpeed="None" origLeaderGap="None" origLeaderSecureGap="None" origLeaderSpeed="None" latGap="None" maneuverDistance="2.18"/>
    <changeStarted id="ego" type="DEFAULT_VEHTYPE" time="18.60" from="E0_0" to="E0_0" dir="0" speed="27.78" pos="536.71" reason="strategic|urgent" leaderGap="None" leaderSecureGap="None" leaderSpeed="None" followerGap="None" followerSecureGap="None" followerSpeed="None" origLeaderGap="None" origLeaderSecureGap="None" origLeaderSpeed="None" latGap="None" maneuverDistance="2.14"/>
    <changeStarted id="ego" type="DEFAULT_VEHTYPE" time="19.00" from="E0_0" to="E0_0" dir="0" speed="27.78" pos="547.82" reason="strategic|urgent" leaderGap="None" leaderSecureGap="None" leaderSpeed="None" followerGap="None" followerSecureGap="None" followerSpeed="None" origLeaderGap="None" origLeaderSecureGap="None" origLeaderSpeed="None" latGap="None" maneuverDistance="2.10"/>
    <changeStarted id="ego" type="DEFAULT_VEHTYPE" time="19.40" from="E0_0" to="E0_0" dir="0" speed="27.78" pos="558.93" reason="strategic|urgent" leaderGap="None" leaderSecureGap="None" leaderSpeed="None" followerGap="None" followerSecureGap="None" followerSpeed="None" origLeaderGap="None" origLeaderSecureGap="None" origLeaderSpeed="None" latGap="None" maneuverDistance="2.06"/>
    <changeStarted id="ego" type="DEFAULT_VEHTYPE" time="19.80" from="E0_0" to="E0_0" dir="0" speed="27.78" pos="570.04" reason="strategic|urgent" leaderGap="None" leaderSecureGap="None" leaderSpeed="None" followerGap="None" followerSecureGap="None" followerSpeed="None" origLeaderGap="None" origLeaderSecureGap="None" origLeaderSpeed="None" latGap="None" maneuverDistance="2.02"/>
    <changeStarted id="ego" type="DEFAULT_VEHTYPE" time="20.20" from="E0_0" to="E0_0" dir="0" speed="27.78" pos="581.16" reason="strategic|urgent" leaderGap="None" leaderSecureGap="None" leaderSpeed="None" followerGap="None" followerSecureGap="None" followerSpeed="None" origLeaderGap="None" origLeaderSecureGap="None" origLeaderSpeed="None" latGap="None" maneuverDistance="1.98"/>
    <changeStarted id="ego" type="DEFAULT_VEHTYPE" time="20.60" from="E0_0" to="E0_0" dir="0" speed="27.78" pos="592.27" reason="strategic|urgent" leaderGap="None" leaderSecureGap="None" leaderSpeed="None" followerGap="None" followerSecureGap="None" followerSpeed="None" origLeaderGap="None" origLeaderSecureGap="None" origLeaderSpeed="None" latGap="None" maneuverDistance="1.94"/>
    <changeStarted id="ego" type="DEFAULT_VEHTYPE" time="21.00" from="E0_0" to="E0_0" dir="0" speed="27.78" pos="603.38" reason="strategic|urgent" leaderGap="None" leaderSecureGap="None" leaderSpeed="None" followerGap="None" followerSecureGap="None" followerSpeed="None" origLeaderGap="None" origLeaderSecureGap="None" origLeaderSpeed="None" latGap="None" maneuverDistance="1.90"/>
    <changeStarted id="ego" type="DEFAULT_VEHTYPE" time="21.40" from="E0_0" to="E0_0" dir="0" speed="27.78" pos="614.49" reason="strategic|urgent" leaderGap="None" leaderSecureGap="None" leaderSpeed="None" followerGap="None" followerSecureGap="None" followerSpeed="None" origLeaderGap="None" origLeaderSecureGap="None" origLeaderSpeed="None" latGap="None" maneuverDistance="1.86"/>
    <changeStarted id="ego" type="DEFAULT_VEHTYPE" time="21.80" from="E0_0" to="E0_1" dir="1" speed="27.78" pos="625.60" reason="strategic|urgent" leaderGap="None" leaderSecureGap="None" leaderSpeed="None" followerGap="11.77" followerSecureGap="0.00" followerSpeed="27.26" origLeaderGap="None" origLeaderSecureGap="None" origLeaderSpeed="None" latGap="None" maneuverDistance="1.82"/>
    <changeStarted id="ego" type="DEFAULT_VEHTYPE" time="22.20" from="E0_0" to="E0_1" dir="1" speed="27.78" pos="636.72" reason="strategic|urgent" leaderGap="None" leaderSecureGap="None" leaderSpeed="None" followerGap="11.88" followerSecureGap="0.00" followerSpeed="27.26" origLeaderGap="None" origLeaderSecureGap="None" origLeaderSpeed="None" latGap="None" maneuverDistance="1.78"/>
    <changeStarted id="ego" type="DEFAULT_VEHTYPE" time="22.60" from="E0_0" to="E0_1" dir="1" speed="27.78" pos="647.83" reason="strategic|urgent" leaderGap="None" leaderSecureGap="None" leaderSpeed="None" followerGap="11.98" followerSecureGap="0.00" followerSpeed="27.26" origLeaderGap="None" origLeaderSecureGap="None" origLeaderSpeed="None" latGap="None" maneuverDistance="1.74"/>
    <changeStarted id="ego" type="DEFAULT_VEHTYPE" time="23.00" from="E0_0" to="E0_1" dir="1" speed="27.78" pos="658.94" reason="strategic|urgent" leaderGap="None" leaderSecureGap="None" leaderSpeed="None" followerGap="12.08" followerSecureGap="0.00" followerSpeed="27.26" origLeaderGap="None" origLeaderSecureGap="None" origLeaderSpeed="None" latGap="None" maneuverDistance="1.70"/>
    <changeStarted id="ego" type="DEFAULT_VEHTYPE" time="23.40" from="E0_0" to="E0_1" dir="1" speed="27.78" pos="670.05" reason="strategic|urgent" leaderGap="None" leaderSecureGap="None" leaderSpeed="None" followerGap="12.19" followerSecureGap="0.00" followerSpeed="27.26" origLeaderGap="None" origLeaderSecureGap="None" origLeaderSpeed="None" latGap="None" maneuverDistance="1.66"/>
    <changeStarted id="ego" type="DEFAULT_VEHTYPE" time="23.80" from="E0_0" to="E0_1" dir="1" speed="27.78" pos="681.16" reason="strategic|urgent" leaderGap="None" leaderSecureGap="None" leaderSpeed="None" followerGap="12.29" followerSecureGap="0.00" followerSpeed="27.26" origLeaderGap="None" origLeaderSecureGap="None" origLeaderSpeed="None" latGap="None" maneuverDistance="1.62"/>
    <changeStarted id="ego" type="DEFAULT_VEHTYPE" time="24.20" from="E0_0" to="E0_1" dir="1" speed="27.78" pos="692.28" reason="strategic|urgent" leaderGap="None" leaderSecureGap="None" leaderSpeed="None" followerGap="12.40" followerSecureGap="0.00" followerSpeed="27.26" origLeaderGap="None" origLeaderSecureGap="None" origLeaderSpeed="None" latGap="None" maneuverDistance="1.58"/>
    <changeStarted id="ego" type="DEFAULT_VEHTYPE" time="24.60" from="E0_0" to="E0_1" dir="1" speed="27.78" pos="703.39" reason="strategic|urgent" leaderGap="None" leaderSecureGap="None" leaderSpeed="None" followerGap="12.50" followerSecureGap="0.00" followerSpeed="27.26" origLeaderGap="None" origLeaderSecureGap="None" origLeaderSpeed="None" latGap="None" maneuverDistance="1.54"/>
    <changeStarted id="ego" type="DEFAULT_VEHTYPE" time="25.00" from="E0_0" to="E0_1" dir="1" speed="27.78" pos="714.50" reason="strategic|urgent" leaderGap="None" leaderSecureGap="None" leaderSpeed="None" followerGap="12.60" followerSecureGap="0.00" followerSpeed="27.26" origLeaderGap="None" origLeaderSecureGap="None" origLeaderSpeed="None" latGap="None" maneuverDistance="1.50"/>
    <changeStarted id="ego" type="DEFAULT_VEHTYPE" time="25.40" from="E0_0" to="E0_1" dir="1" speed="27.78" pos="725.61" reason="strategic|urgent" leaderGap="None" leaderSecureGap="None" leaderSpeed="None" followerGap="12.71" followerSecureGap="0.00" followerSpeed="27.26" origLeaderGap="None" origLeaderSecureGap="None" origLeaderSpeed="None" latGap="None" maneuverDistance="1.46"/>
    <changeStarted id="ego" type="DEFAULT_VEHTYPE" time="25.80" from="E0_0" to="E0_1" dir="1" speed="27.78" pos="736.72" reason="strategic|urgent" leaderGap="None" leaderSecureGap="None" leaderSpeed="None" followerGap="12.81" followerSecureGap="0.00" followerSpeed="27.26" origLeaderGap="None" origLeaderSecureGap="None" origLeaderSpeed="None" latGap="None" maneuverDistance="1.42"/>
    <changeStarted id="ego" type="DEFAULT_VEHTYPE" time="26.20" from="E0_0" to="E0_1" dir="1" speed="27.78" pos="747.84" reason="strategic|urgent" leaderGap="None" leaderSecureGap="None" leaderSpeed="None" followerGap="12.92" followerSecureGap="0.00" followerSpeed="27.26" origLeaderGap="None" origLeaderSecureGap="None" origLeaderSpeed="None" latGap="None" maneuverDistance="1.38"/>
    <changeStarted id="ego" type="DEFAULT_VEHTYPE" time="26.60" from="E0_0" to="E0_1" dir="1" speed="27.78" pos="758.95" reason="strategic|urgent" leaderGap="None" leaderSecureGap="None" leaderSpeed="None" followerGap="13.02" followerSecureGap="0.00" followerSpeed="27.26" origLeaderGap="None" origLeaderSecureGap="None" origLeaderSpeed="None" latGap="None" maneuverDistance="1.34"/>
    <changeStarted id="ego" type="DEFAULT_VEHTYPE" time="27.00" from="E0_0" to="E0_1" dir="1" speed="27.78" pos="770.06" reason="strategic|urgent" leaderGap="None" leaderSecureGap="None" leaderSpeed="None" followerGap="13.12" followerSecureGap="0.00" followerSpeed="27.26" origLeaderGap="None" origLeaderSecureGap="None" origLeaderSpeed="None" latGap="None" maneuverDistance="1.30"/>
    <changeStarted id="ego" type="DEFAULT_VEHTYPE" time="27.40" from="E0_0" to="E0_1" dir="1" speed="27.78" pos="781.17" reason="strategic|urgent" leaderGap="None" leaderSecureGap="None" leaderSpeed="None" followerGap="13.23" followerSecureGap="0.00" followerSpeed="27.26" origLeaderGap="None" origLeaderSecureGap="None" origLeaderSpeed="None" latGap="None" maneuverDistance="1.26"/>
    <changeStarted id="ego" type="DEFAULT_VEHTYPE" time="27.80" from="E0_0" to="E0_1" dir="1" speed="27.78" pos="792.28" reason="strategic|urgent" leaderGap="None" leaderSecureGap="None" leaderSpeed="None" followerGap="13.33" followerSecureGap="0.00" followerSpeed="27.26" origLeaderGap="None" origLeaderSecureGap="None" origLeaderSpeed="None" latGap="None" maneuverDistance="1.22"/>
    <change id="ego" type="DEFAULT_VEHTYPE" time="28.40" from="E0_0" to="E0_1" dir="1" speed="27.78" pos="808.95" reason="strategic|urgent" leaderGap="None" leaderSecureGap="None" leaderSpeed="None" followerGap="14.13" followerSecureGap="11.34" followerSpeed="26.33" origLeaderGap="None" origLeaderSecureGap="None" origLeaderSpeed="None" latGap="None"/>
    <changeEnded id="ego" type="DEFAULT_VEHTYPE" time="30.40" from="E0_1" to="E0_1" dir="0" speed="27.78" pos="864.51" reason="strategic|sublane" leaderGap="None" leaderSecureGap="None" leaderSpeed="None" followerGap="16.77" followerSecureGap="14.02" followerSpeed="26.57" origLeaderGap="None" origLeaderSecureGap="None" origLeaderSpeed="None" latGap="None"/>
</lanechanges>
