<?xml version="1.0" encoding="UTF-8"?>

<!-- generated on Mon Feb 17 15:30:44 2020 by Eclipse SUMO netconvert Version v1_5_0+0130-ceb0a01
This data file and the accompanying materials
are made available under the terms of the Eclipse Public License v2.0
which accompanies this distribution, and is available at
http://www.eclipse.org/legal/epl-v20.html
SPDX-License-Identifier: EPL-2.0
<configuration xmlns:xsi="http://www.w3.org/2001/XMLSchema-instance" xsi:noNamespaceSchemaLocation="http://sumo.dlr.de/xsd/netconvertConfiguration.xsd">

    <input>
        <node-files value="input_nodes.nod.xml"/>
        <edge-files value="input_edges.edg.xml"/>
    </input>

    <output>
        <write-license value="true"/>
    </output>

    <processing>
        <speed-in-kmh value="true"/>
    </processing>

    <junctions>
        <no-turnarounds value="true"/>
    </junctions>

    <report>
        <xml-validation value="never"/>
        <aggregate-warnings value="5"/>
    </report>

</configuration>
-->

<net version="1.6" junctionCornerDetail="5" limitTurnSpeed="5.50" xmlns:xsi="http://www.w3.org/2001/XMLSchema-instance" xsi:noNamespaceSchemaLocation="http://sumo.dlr.de/xsd/net_file.xsd">

    <location netOffset="0.00,50.00" convBoundary="0.00,0.00,50.00,100.00" origBoundary="-50.00,-50.00,50.00,50.00" projParameter="!"/>

    <edge id=":0_0" function="internal">
        <lane id=":0_0_0" index="0" speed="7.64" length="14.40" shape="-1.60,57.20 -1.60,42.80"/>
    </edge>
    <edge id=":0_1" function="internal">
        <lane id=":0_1_0" index="0" speed="8.00" length="14.19" shape="-1.60,57.20 -1.05,53.35 0.60,50.60 3.35,48.95 7.20,48.40"/>
    </edge>
    <edge id=":0_2" function="internal">
        <lane id=":0_2_0" index="0" speed="6.51" length="9.03" shape="7.20,51.60 4.75,51.95 3.00,53.00 1.95,54.75 1.60,57.20"/>
    </edge>
    <edge id=":0_3" function="internal">
        <lane id=":0_3_0" index="0" speed="7.64" length="4.12" shape="7.20,51.60 3.35,51.05 3.15,50.93"/>
    </edge>
    <edge id=":0_6" function="internal">
        <lane id=":0_6_0" index="0" speed="7.64" length="10.08" shape="3.15,50.93 0.60,49.40 -1.05,46.65 -1.60,42.80"/>
    </edge>
    <edge id=":0_4" function="internal">
        <lane id=":0_4_0" index="0" speed="6.51" length="9.03" shape="1.60,42.80 1.95,45.25 3.00,47.00 4.75,48.05 7.20,48.40"/>
    </edge>
    <edge id=":0_5" function="internal">
        <lane id=":0_5_0" index="0" speed="7.64" length="14.40" shape="1.60,42.80 1.60,57.20"/>
    </edge>

    <edge id="2i" from="2" to="0" priority="-1">
        <lane id="2i_0" index="0" speed="9.73" length="42.80" shape="50.00,51.60 7.20,51.60"/>
    </edge>
    <edge id="2o" from="0" to="2" priority="-1">
        <lane id="2o_0" index="0" speed="9.73" length="42.80" shape="7.20,48.40 50.00,48.40"/>
    </edge>
    <edge id="3i" from="3" to="0" priority="-1">
        <lane id="3i_0" index="0" speed="5.56" length="42.80" shape="1.60,0.00 1.60,42.80"/>
    </edge>
    <edge id="3o" from="0" to="3" priority="-1">
        <lane id="3o_0" index="0" speed="5.56" length="42.80" shape="-1.60,42.80 -1.60,0.00"/>
    </edge>
    <edge id="4i" from="4" to="0" priority="-1">
        <lane id="4i_0" index="0" speed="9.73" length="42.80" shape="-1.60,100.00 -1.60,57.20"/>
    </edge>
    <edge id="4o" from="0" to="4" priority="-1">
        <lane id="4o_0" index="0" speed="9.73" length="42.80" shape="1.60,57.20 1.60,100.00"/>
    </edge>

    <junction id="0" type="priority" x="0.00" y="50.00" incLanes="4i_0 2i_0 3i_0" intLanes=":0_0_0 :0_1_0 :0_2_0 :0_6_0 :0_4_0 :0_5_0" shape="-3.20,57.20 3.20,57.20 3.64,54.98 4.20,54.20 4.98,53.64 5.98,53.31 7.20,53.20 7.20,46.80 4.98,46.36 4.20,45.80 3.64,45.02 3.31,44.02 3.20,42.80 -3.20,42.80">
        <request index="0" response="000000" foes="001000" cont="0"/>
        <request index="1" response="000000" foes="111000" cont="0"/>
        <request index="2" response="000000" foes="100000" cont="0"/>
        <request index="3" response="000011" foes="100011" cont="1"/>
        <request index="4" response="000010" foes="000010" cont="0"/>
        <request index="5" response="001110" foes="001110" cont="0"/>
    </junction>
    <junction id="2" type="dead_end" x="50.00" y="50.00" incLanes="2o_0" intLanes="" shape="50.00,50.00 50.00,46.80 50.00,50.00"/>
    <junction id="3" type="dead_end" x="0.00" y="0.00" incLanes="3o_0" intLanes="" shape="0.00,0.00 -3.20,0.00 0.00,0.00"/>
    <junction id="4" type="dead_end" x="0.00" y="100.00" incLanes="4o_0" intLanes="" shape="0.00,100.00 3.20,100.00 0.00,100.00"/>

    <junction id=":0_6_0" type="internal" x="3.15" y="50.93" incLanes=":0_3_0 4i_0" intLanes=":0_0_0 :0_1_0 :0_5_0"/>

    <connection from="2i" to="4o" fromLane="0" toLane="0" via=":0_2_0" dir="r" state="M"/>
    <connection from="2i" to="3o" fromLane="0" toLane="0" via=":0_3_0" dir="l" state="m"/>
    <connection from="3i" to="2o" fromLane="0" toLane="0" via=":0_4_0" dir="r" state="m"/>
    <connection from="3i" to="4o" fromLane="0" toLane="0" via=":0_5_0" dir="s" state="m"/>
    <connection from="4i" to="3o" fromLane="0" toLane="0" via=":0_0_0" dir="s" state="M"/>
    <connection from="4i" to="2o" fromLane="0" toLane="0" via=":0_1_0" dir="l" state="M"/>

    <connection from=":0_0" to="3o" fromLane="0" toLane="0" dir="s" state="M"/>
    <connection from=":0_1" to="2o" fromLane="0" toLane="0" dir="l" state="M"/>
    <connection from=":0_2" to="4o" fromLane="0" toLane="0" dir="r" state="M"/>
    <connection from=":0_3" to="3o" fromLane="0" toLane="0" via=":0_6_0" dir="l" state="m"/>
    <connection from=":0_6" to="3o" fromLane="0" toLane="0" dir="l" state="M"/>
    <connection from=":0_4" to="2o" fromLane="0" toLane="0" dir="r" state="M"/>
    <connection from=":0_5" to="4o" fromLane="0" toLane="0" dir="s" state="M"/>

</net>
