<?xml version="1.0" encoding="UTF-8"?>

<!-- generated on 08.05.2019 08:21:52 by Eclipse SUMO netedit Version v1_2_0+0242-00a18e6a42
<configuration xmlns:xsi="http://www.w3.org/2001/XMLSchema-instance" xsi:noNamespaceSchemaLocation="http://sumo.dlr.de/xsd/netconvertConfiguration.xsd">

    <input>
        <sumo-net-file value="C:/Users/SUMO-Test/.texttest/tmp/netedit.gui.08May082111.2956/netedit.gui/basic/load_and_save\input_net.net.xml"/>
    </input>

    <output>
        <output-file value="C:/Users/SUMO-Test/.texttest/tmp/netedit.gui.08May082111.2956/netedit.gui/basic/load_and_save\net.net.xml"/>
    </output>

    <processing>
        <geometry.max-grade.fix value="false"/>
        <offset.disable-normalization value="true"/>
        <lefthand value="false"/>
    </processing>

    <junctions>
        <no-internal-links value="true"/>
        <no-turnarounds value="true"/>
        <junctions.corner-detail value="5"/>
        <junctions.limit-turn-speed value="5.5"/>
        <rectangular-lane-cut value="false"/>
    </junctions>

    <pedestrian>
        <walkingareas value="false"/>
    </pedestrian>

    <netedit>
        <additional-files value="C:/Users/SUMO-Test/.texttest/tmp/netedit.gui.08May082111.2956/netedit.gui/basic/load_and_save\additionals.xml"/>
        <additionals-output value="C:/Users/SUMO-Test/.texttest/tmp/netedit.gui.08May082111.2956/netedit.gui/basic/load_and_save\additionals.xml"/>
        <route-files value="C:/Users/SUMO-Test/.texttest/tmp/netedit.gui.08May082111.2956/netedit.gui/basic/load_and_save\routes.xml"/>
        <demandelements-output value="C:/Users/SUMO-Test/.texttest/tmp/netedit.gui.08May082111.2956/netedit.gui/basic/load_and_save\routes.xml"/>
    </netedit>

    <visualisation>
        <gui-settings-file value="C:/Users/SUMO-Test/.texttest/tmp/netedit.gui.08May082111.2956/netedit.gui/basic/load_and_save\gui-settings.xml"/>
        <window-size value="700,500"/>
        <window-pos value="50,50"/>
        <gui-testing value="true"/>
        <gui-testing-debug value="true"/>
    </visualisation>

    <report>
        <no-warnings value="true"/>
        <error-log value="C:/Users/SUMO-Test/.texttest/tmp/netedit.gui.08May082111.2956/netedit.gui/basic/load_and_save\log.txt"/>
    </report>

</configuration>
-->

<net version="1.6" junctionCornerDetail="5" limitTurnSpeed="5.50" xmlns:xsi="http://www.w3.org/2001/XMLSchema-instance" xsi:noNamespaceSchemaLocation="http://sumo.dlr.de/xsd/net_file.xsd">

    <location netOffset="50.00,50.00" convBoundary="0.00,0.00,100.00,100.00" origBoundary="-50.00,-50.00,50.00,50.00" projParameter="!"/>

    <edge id="1" from="Center" to="A" priority="-1">
        <lane id="1_0" index="0" allow="pedestrian" speed="13.90" length="50.00" shape="42.00,38.90 42.00,0.00"/>
        <lane id="1_1" index="1" disallow="pedestrian rail_fast" speed="13.90" length="50.00" shape="45.20,38.90 45.20,0.00"/>
        <lane id="1_2" index="2" disallow="pedestrian rail_fast" speed="13.90" length="50.00" shape="48.40,38.90 48.40,0.00"/>
    </edge>
    <edge id="2" from="Center" to="B" priority="-1">
        <lane id="2_0" index="0" allow="pedestrian" speed="13.90" length="50.00" shape="58.00,61.10 58.00,100.00"/>
        <lane id="2_1" index="1" disallow="pedestrian rail_fast" speed="13.90" length="50.00" shape="54.80,61.10 54.80,100.00"/>
        <lane id="2_2" index="2" disallow="pedestrian rail_fast" speed="13.90" length="50.00" shape="51.60,61.10 51.60,100.00"/>
    </edge>
    <edge id="3" from="Center" to="C" priority="-1">
        <lane id="3_0" index="0" allow="pedestrian" speed="13.90" length="50.00" shape="38.90,58.00 0.00,58.00"/>
        <lane id="3_1" index="1" disallow="pedestrian rail_fast" speed="13.90" length="50.00" shape="38.90,54.80 0.00,54.80"/>
        <lane id="3_2" index="2" disallow="pedestrian rail_fast" speed="13.90" length="50.00" shape="38.90,51.60 0.00,51.60"/>
    </edge>
    <edge id="4" from="Center" to="D" priority="-1">
        <lane id="4_0" index="0" allow="pedestrian" speed="13.90" length="50.00" shape="61.10,42.00 100.00,42.00"/>
        <lane id="4_1" index="1" disallow="pedestrian rail_fast" speed="13.90" length="50.00" shape="61.10,45.20 100.00,45.20"/>
        <lane id="4_2" index="2" disallow="pedestrian rail_fast" speed="13.90" length="50.00" shape="61.10,48.40 100.00,48.40"/>
    </edge>
    <edge id="5" from="A" to="Center" priority="-1">
        <lane id="5_0" index="0" allow="pedestrian" speed="13.90" length="50.00" shape="58.00,0.00 58.00,38.90"/>
        <lane id="5_1" index="1" disallow="pedestrian rail_fast" speed="13.90" length="50.00" shape="54.80,0.00 54.80,38.90"/>
        <lane id="5_2" index="2" disallow="pedestrian rail_fast" speed="13.90" length="50.00" shape="51.60,0.00 51.60,38.90"/>
    </edge>
    <edge id="6" from="B" to="Center" priority="-1">
        <lane id="6_0" index="0" allow="pedestrian" speed="13.90" length="50.00" shape="42.00,100.00 42.00,61.10"/>
        <lane id="6_1" index="1" disallow="pedestrian rail_fast" speed="13.90" length="50.00" shape="45.20,100.00 45.20,61.10"/>
        <lane id="6_2" index="2" disallow="pedestrian rail_fast" speed="13.90" length="50.00" shape="48.40,100.00 48.40,61.10"/>
    </edge>
    <edge id="7" from="C" to="Center" priority="-1">
        <lane id="7_0" index="0" allow="pedestrian" speed="13.90" length="50.00" shape="0.00,42.00 38.90,42.00"/>
        <lane id="7_1" index="1" disallow="pedestrian rail_fast" speed="13.90" length="50.00" shape="0.00,45.20 38.90,45.20"/>
        <lane id="7_2" index="2" disallow="pedestrian rail_fast" speed="13.90" length="50.00" shape="0.00,48.40 38.90,48.40"/>
    </edge>
    <edge id="8" from="D" to="Center" priority="-1">
        <lane id="8_0" index="0" allow="pedestrian" speed="13.90" length="50.00" shape="100.00,58.00 61.10,58.00"/>
        <lane id="8_1" index="1" disallow="pedestrian rail_fast" speed="13.90" length="50.00" shape="100.00,54.80 61.10,54.80"/>
        <lane id="8_2" index="2" disallow="pedestrian rail_fast" speed="13.90" length="50.00" shape="100.00,51.60 61.10,51.60"/>
    </edge>

    <junction id="A" type="dead_end" x="50.00" y="0.00" incLanes="1_0 1_1 1_2" intLanes="" shape="50.00,0.00 40.40,0.00 50.00,0.00"/>
    <junction id="B" type="dead_end" x="50.00" y="100.00" incLanes="2_0 2_1 2_2" intLanes="" shape="50.00,100.00 59.60,100.00 50.00,100.00"/>
    <junction id="C" type="dead_end" x="0.00" y="50.00" incLanes="3_0 3_1 3_2" intLanes="" shape="0.00,50.00 0.00,59.60 0.00,50.00"/>
    <junction id="Center" type="priority" x="50.00" y="50.00" incLanes="6_0 6_1 6_2 8_0 8_1 8_2 5_0 5_1 5_2 7_0 7_1 7_2" intLanes="" shape="40.40,61.10 59.60,61.10 59.77,60.27 59.98,59.97 60.27,59.77 60.64,59.64 61.10,59.60 61.10,40.40 60.27,40.23 59.97,40.02 59.77,39.73 59.64,39.36 59.60,38.90 40.40,38.90 40.23,39.73 40.02,40.03 39.73,40.23 39.36,40.36 38.90,40.40 38.90,59.60 39.73,59.77 40.03,59.98 40.23,60.27 40.36,60.64">
        <request index="0"  response="0000000000000000" foes="0000000001100000"/>
        <request index="1"  response="0000000000000000" foes="1111100011100000"/>
        <request index="2"  response="0000000000000000" foes="1111100011100000"/>
        <request index="3"  response="0000011000000000" foes="1110011011100000"/>
        <request index="4"  response="0000011000000000" foes="0000011000000000"/>
        <request index="5"  response="0000111000001111" foes="1000111000001111"/>
        <request index="6"  response="0000111000001111" foes="1000111000001111"/>
        <request index="7"  response="0110111000001110" foes="0110111000001110"/>
        <request index="8"  response="0000000000000000" foes="0110000000000000"/>
        <request index="9"  response="0000000000000000" foes="1110000011111000"/>
        <request index="10" response="0000000000000000" foes="1110000011111000"/>
        <request index="11" response="0000000000000110" foes="1110000011100110"/>
        <request index="12" response="0000000000000110" foes="0000000000000110"/>
        <request index="13" response="0000111100001110" foes="0000111110001110"/>
        <request index="14" response="0000111100001110" foes="0000111110001110"/>
        <request index="15" response="0000111001101110" foes="0000111001101110"/>
    </junction>
    <junction id="D" type="dead_end" x="100.00" y="50.00" incLanes="4_0 4_1 4_2" intLanes="" shape="100.00,50.00 100.00,40.40 100.00,50.00"/>

    <connection from="5" to="4" fromLane="1" toLane="1" dir="r" state="M"/>
    <connection from="5" to="2" fromLane="1" toLane="1" dir="s" state="M"/>
    <connection from="5" to="2" fromLane="2" toLane="2" dir="s" state="M"/>
    <connection from="5" to="3" fromLane="2" toLane="2" dir="l" state="m"/>
    <connection from="6" to="3" fromLane="1" toLane="1" dir="r" state="M"/>
    <connection from="6" to="1" fromLane="1" toLane="1" dir="s" state="M"/>
    <connection from="6" to="1" fromLane="2" toLane="2" dir="s" state="M"/>
    <connection from="6" to="4" fromLane="2" toLane="2" dir="l" state="m"/>
    <connection from="7" to="1" fromLane="1" toLane="1" dir="r" state="m"/>
    <connection from="7" to="4" fromLane="1" toLane="1" dir="s" state="m"/>
    <connection from="7" to="4" fromLane="2" toLane="2" dir="s" state="m"/>
    <connection from="7" to="2" fromLane="2" toLane="2" dir="l" state="m"/>
    <connection from="8" to="2" fromLane="1" toLane="1" dir="r" state="m"/>
    <connection from="8" to="3" fromLane="1" toLane="1" dir="s" state="m"/>
    <connection from="8" to="3" fromLane="2" toLane="2" dir="s" state="m"/>
    <connection from="8" to="1" fromLane="2" toLane="2" dir="l" state="m"/>

</net>
