<?xml version="1.0" encoding="UTF-8"?>

<!-- generated on Fri Nov 27 14:41:36 2015 by SUMO netconvert Version dev-SVN-r19444I
<?xml version="1.0" encoding="UTF-8"?>

<configuration xmlns:xsi="http://www.w3.org/2001/XMLSchema-instance" xsi:noNamespaceSchemaLocation="http://sumo.dlr.de/xsd/netconvertConfiguration.xsd">

    <input>
        <sumo-net-file value="input_net.net.xml"/>
    </input>

    <output>
        <output-file value="net.net.xml"/>
        <plain-output-prefix value="plain"/>
    </output>

    <processing>
        <no-turnarounds value="true"/>
        <offset.disable-normalization value="true"/>
        <lefthand value="false"/>
        <junctions.corner-detail value="0"/>
    </processing>

    <report>
        <xml-validation value="never"/>
    </report>

</configuration>
-->

<connections version="0.25" xmlns:xsi="http://www.w3.org/2001/XMLSchema-instance" xsi:noNamespaceSchemaLocation="http://sumo.dlr.de/xsd/connections_file.xsd">
    <connection from="WC" to="CE" fromLane="0" toLane="0"/>
    <connection from="WC" to="CN" fromLane="0" toLane="0"/>

</connections>
