<?xml version="1.0" encoding="UTF-8"?>

<!-- generated on Wed Apr 20 15:44:32 2016 by SUMO netconvert Version dev-SVN-r20491
<?xml version="1.0" encoding="UTF-8"?>

<configuration xmlns:xsi="http://www.w3.org/2001/XMLSchema-instance" xsi:noNamespaceSchemaLocation="http://sumo.dlr.de/xsd/netconvertConfiguration.xsd">

    <input>
        <type-files value="/scr1/sharps/data/typemap/osmNetconvert.typ.xml"/>
        <osm-files value="osm.xml"/>
    </input>

    <output>
        <output-file value="ignore.net.xml"/>
        <plain-output-prefix value="plain"/>
    </output>

    <projection>
        <proj.utm value="true"/>
    </projection>

    <report>
        <xml-validation value="never"/>
    </report>

</configuration>
-->

<edges version="0.27" xmlns:xsi="http://www.w3.org/2001/XMLSchema-instance" xsi:noNamespaceSchemaLocation="http://sumo.dlr.de/xsd/edges_file.xsd">
    <edge id="10860201" from="1" to="2" priority="7" type="highway.secondary" numLanes="1" speed="27.78" spreadType="center" disallow="tram rail_urban rail rail_electric ship"/>
</edges>
