<?xml version="1.0" encoding="UTF-8"?>

<!-- generated on 2023-07-21 16:11:36 by Eclipse SUMO netedit Version v1_18_0+0449-f16c790925c
-->

<routes xmlns:xsi="http://www.w3.org/2001/XMLSchema-instance" xsi:noNamespaceSchemaLocation="http://sumo.dlr.de/xsd/routes_file.xsd">
    <!-- Routes -->
    <route id="route_0" edges="Edge0 Edge1 Edge2" color="yellow">
        <stop trainStop="trainStopA" speed="10.00"/>
    </route>
</routes>
