<?xml version="1.0" encoding="UTF-8"?>

<!-- generated on 08.08.2019 08:49:15 by Eclipse SUMO netedit Version v1_2_0+1475-19ad2e6581
<configuration xmlns:xsi="http://www.w3.org/2001/XMLSchema-instance" xsi:noNamespaceSchemaLocation="http://sumo.dlr.de/xsd/netconvertConfiguration.xsd">

    <input>
        <sumo-net-file value="C:/Users/SUMO-Test/.texttest/tmp/netedit.gui.08Aug084648.6736/netedit.gui/additionalElements/lanecalibrator/inspect_selection/output\input_net.net.xml"/>
    </input>

    <output>
        <output-file value="C:/Users/SUMO-Test/.texttest/tmp/netedit.gui.08Aug084648.6736/netedit.gui/additionalElements/lanecalibrator/inspect_selection/output\net.net.xml"/>
    </output>

    <processing>
        <geometry.max-grade.fix value="false"/>
        <offset.disable-normalization value="true"/>
        <lefthand value="false"/>
    </processing>

    <junctions>
        <no-turnarounds value="true"/>
        <junctions.corner-detail value="5"/>
        <junctions.limit-turn-speed value="5.5"/>
        <rectangular-lane-cut value="false"/>
    </junctions>

    <pedestrian>
        <walkingareas value="false"/>
    </pedestrian>

    <netedit>
        <additional-files value="C:/Users/SUMO-Test/.texttest/tmp/netedit.gui.08Aug084648.6736/netedit.gui/additionalElements/lanecalibrator/inspect_selection/output\additionals.xml"/>
        <additionals-output value="C:/Users/SUMO-Test/.texttest/tmp/netedit.gui.08Aug084648.6736/netedit.gui/additionalElements/lanecalibrator/inspect_selection/output\additionals.xml"/>
        <route-files value="C:/Users/SUMO-Test/.texttest/tmp/netedit.gui.08Aug084648.6736/netedit.gui/additionalElements/lanecalibrator/inspect_selection/output\routes.xml"/>
        <demandelements-output value="C:/Users/SUMO-Test/.texttest/tmp/netedit.gui.08Aug084648.6736/netedit.gui/additionalElements/lanecalibrator/inspect_selection/output\routes.xml"/>
    </netedit>

    <visualisation>
        <gui-settings-file value="C:/Users/SUMO-Test/.texttest/tmp/netedit.gui.08Aug084648.6736/netedit.gui/additionalElements/lanecalibrator/inspect_selection/output\gui-settings.xml"/>
        <window-size value="700,500"/>
        <window-pos value="50,50"/>
        <gui-testing value="true"/>
        <gui-testing-debug value="true"/>
    </visualisation>

    <report>
        <no-warnings value="true"/>
        <error-log value="C:/Users/SUMO-Test/.texttest/tmp/netedit.gui.08Aug084648.6736/netedit.gui/additionalElements/lanecalibrator/inspect_selection/output\log.txt"/>
    </report>

</configuration>
-->

<additional xmlns:xsi="http://www.w3.org/2001/XMLSchema-instance" xsi:noNamespaceSchemaLocation="http://sumo.dlr.de/xsd/additional_file.xsd">
    <routeProbe id="RouteProbeA" edge="gneE0" freq="3600" file="RouteProbeA.xml" begin="0.00"/>
    <routeProbe id="RouteProbeB" edge="gneE0" freq="3600" file="RouteProbeB.xml" begin="0.00"/>
    <routeProbe id="customRouteProbeName" edge="gneE0" freq="3600" file="RouteProbeB.xml" begin="0.00"/>
    <calibrator id="calibratorA" lane="gneE2_0" pos="20.00" freq="30.00" name="NameA" routeProbe="RouteProbeA" output="myOwnFilename">
        <param key="KeyA1" value="valueA1"/>
        <param key="KeyA2" value="valueA3"/>
        <param key="KeyA3" value="valueA2"/>
    </calibrator>
    <calibrator id="calibratorB" lane="gneE3_0" pos="30.00" freq="40.00" name="NameB" routeProbe="RouteProbeB" output="myOwnFilename">
        <param key="KeyB1" value="valueB1"/>
        <param key="KeyB2" value="valueB3"/>
        <param key="KeyB3" value="valueB2"/>
    </calibrator>
</additional>
