<?xml version="1.0" encoding="UTF-8"?>

<!-- generated on Fri Jun 29 09:49:00 2018 by Eclipse SUMO netconvert Version e1c39f4
<configuration xmlns:xsi="http://www.w3.org/2001/XMLSchema-instance" xsi:noNamespaceSchemaLocation="http://sumo.dlr.de/xsd/netconvertConfiguration.xsd">

    <input>
        <sumo-net-file value="net.net.xml"/>
    </input>

    <output>
        <output-file value="net.net.xml"/>
    </output>

    <processing>
        <no-turnarounds value="true"/>
        <offset.disable-normalization value="true"/>
        <lefthand value="false"/>
        <junctions.corner-detail value="0"/>
        <rectangular-lane-cut value="false"/>
        <walkingareas value="false"/>
    </processing>

</configuration>
-->

<net version="0.27" xmlns:xsi="http://www.w3.org/2001/XMLSchema-instance" xsi:noNamespaceSchemaLocation="http://sumo.dlr.de/xsd/net_file.xsd">

    <location netOffset="-690367.75,-5335427.20" convBoundary="0.00,0.00,409.35,220.39" origBoundary="-10000000000.00,-10000000000.00,10000000000.00,10000000000.00" projParameter="!"/>

    <edge id=":C_0" function="internal">
        <lane id=":C_0_0" index="0" allow="bicycle" speed="13.89" length="15.29" width="1.50" shape="211.41,111.64 205.48,111.71 201.24,112.41 198.67,113.76 197.79,115.73"/>
    </edge>
    <edge id=":C_1" function="internal">
        <lane id=":C_1_0" index="0" allow="bicycle" speed="13.89" length="37.07" width="2.00" shape="211.41,111.64 174.35,110.70"/>
    </edge>
    <edge id=":C_2" function="internal">
        <lane id=":C_2_0" index="0" allow="bicycle" speed="13.89" length="30.00" width="1.50" shape="211.41,111.64 200.79,113.20 192.30,113.30 189.09,113.20 188.62,106.89 188.58,105.65"/>
    </edge>
    <edge id=":C_3" function="internal">
        <lane id=":C_3_0" index="0" disallow="bicycle" speed="13.89" length="13.26" width="3.00" shape="211.59,106.62 204.64,106.97 199.65,108.59 198.89,109.32"/>
    </edge>
    <edge id=":C_4" function="internal">
        <lane id=":C_4_0" index="0" disallow="bicycle" speed="13.89" length="37.15" width="3.50" shape="211.59,106.62 174.45,105.55"/>
    </edge>
    <edge id=":C_5" function="internal">
        <lane id=":C_5_0" index="0" speed="13.89" length="10.96" width="3.00" shape="211.71,103.37 204.18,102.46 201.00,101.34"/>
    </edge>
    <edge id=":C_24" function="internal">
        <lane id=":C_24_0" index="0" speed="13.89" length="16.20" width="1.50" shape="188.58,105.65 188.37,99.22 188.51,89.46"/>
    </edge>
    <edge id=":C_25" function="internal">
        <lane id=":C_25_0" index="0" speed="13.89" length="7.47" width="3.00" shape="198.89,109.32 196.61,111.50 195.54,115.69"/>
    </edge>
    <edge id=":C_26" function="internal">
        <lane id=":C_26_0" index="0" speed="13.89" length="16.84" width="3.00" shape="201.00,101.34 197.38,100.06 192.51,95.86 190.76,89.53"/>
    </edge>
    <edge id=":C_6" function="internal">
        <lane id=":C_6_0" index="0" allow="bicycle" speed="13.89" length="16.00" width="2.00" shape="197.92,89.73 198.75,91.75 201.38,93.27 205.81,94.28 212.02,94.79"/>
    </edge>
    <edge id=":C_7" function="internal">
        <lane id=":C_7_0" index="0" disallow="bicycle" speed="13.89" length="19.98" width="3.50" shape="197.29,89.71 198.10,93.99 200.80,97.11 205.38,99.10 211.83,99.94"/>
    </edge>
    <edge id=":C_8" function="internal">
        <lane id=":C_8_0" index="0" allow="bicycle" speed="13.89" length="26.00" width="1.50" shape="198.17,89.73 197.79,115.73"/>
    </edge>
    <edge id=":C_9" function="internal">
        <lane id=":C_9_0" index="0" allow="bicycle" speed="13.89" length="10.46" width="2.00" shape="196.67,89.69 194.47,97.22 192.86,99.29"/>
    </edge>
    <edge id=":C_10" function="internal">
        <lane id=":C_10_0" index="0" disallow="bicycle" speed="13.89" length="26.11" width="3.00" shape="194.04,89.62 195.54,115.69"/>
    </edge>
    <edge id=":C_11" function="internal">
        <lane id=":C_11_0" index="0" disallow="bicycle" speed="13.89" length="7.06" width="3.50" shape="194.04,89.62 192.69,96.55"/>
    </edge>
    <edge id=":C_27" function="internal">
        <lane id=":C_27_0" index="0" speed="13.89" length="22.54" width="2.00" shape="192.86,99.29 189.16,104.02 182.01,108.91 174.35,110.70"/>
    </edge>
    <edge id=":C_28" function="internal">
        <lane id=":C_28_0" index="0" speed="13.89" length="21.64" width="3.50" shape="192.69,96.55 192.66,96.74 188.93,101.77 182.86,104.70 174.45,105.55"/>
    </edge>
    <edge id=":C_12" function="internal">
        <lane id=":C_12_0" index="0" allow="bicycle" speed="13.89" length="15.46" width="1.50" shape="174.70,93.69 180.69,93.54 184.99,92.78 187.60,91.43 188.51,89.46"/>
    </edge>
    <edge id=":C_13" function="internal">
        <lane id=":C_13_0" index="0" allow="bicycle" speed="13.89" length="37.34" width="2.00" shape="174.70,93.69 212.02,94.79"/>
    </edge>
    <edge id=":C_14" function="internal">
        <lane id=":C_14_0" index="0" allow="bicycle" speed="13.89" length="24.00" width="1.50" shape="174.70,93.69 185.31,92.72 191.74,92.44 197.29,92.05 197.45,93.39"/>
    </edge>
    <edge id=":C_15" function="internal">
        <lane id=":C_15_0" index="0" speed="13.89" length="13.05" width="3.00" shape="174.60,98.71 181.57,98.27 186.59,96.59 187.15,96.06"/>
    </edge>
    <edge id=":C_16" function="internal">
        <lane id=":C_16_0" index="0" disallow="bicycle" speed="13.89" length="37.26" width="3.50" shape="174.60,98.71 211.83,99.94"/>
    </edge>
    <edge id=":C_17" function="internal">
        <lane id=":C_17_0" index="0" disallow="bicycle" speed="13.89" length="11.63" width="3.00" shape="174.53,101.96 182.06,102.80 185.89,104.13"/>
    </edge>
    <edge id=":C_29" function="internal">
        <lane id=":C_29_0" index="0" speed="13.89" length="22.41" width="1.50" shape="197.45,93.39 198.24,100.05 198.41,106.77 197.79,115.73"/>
    </edge>
    <edge id=":C_30" function="internal">
        <lane id=":C_30_0" index="0" speed="13.89" length="7.75" width="3.00" shape="187.15,96.06 189.65,93.68 190.76,89.53"/>
    </edge>
    <edge id=":C_31" function="internal">
        <lane id=":C_31_0" index="0" speed="13.89" length="16.17" width="3.00" shape="185.89,104.13 188.86,105.16 193.75,109.36 195.54,115.69"/>
    </edge>
    <edge id=":C_18" function="internal">
        <lane id=":C_18_0" index="0" allow="bicycle" speed="13.89" length="15.97" width="2.00" shape="188.48,115.55 187.63,113.54 184.99,112.06 180.56,111.11 174.35,110.70"/>
    </edge>
    <edge id=":C_19" function="internal">
        <lane id=":C_19_0" index="0" disallow="bicycle" speed="13.89" length="19.98" width="3.50" shape="189.11,115.56 188.26,111.30 185.53,108.21 180.93,106.29 174.45,105.55"/>
    </edge>
    <edge id=":C_20" function="internal">
        <lane id=":C_20_0" index="0" allow="bicycle" speed="13.89" length="26.08" width="1.50" shape="188.23,115.55 188.51,89.46"/>
    </edge>
    <edge id=":C_21" function="internal">
        <lane id=":C_21_0" index="0" allow="bicycle" speed="13.89" length="10.40" width="2.00" shape="189.73,115.57 191.89,108.06 193.48,106.03"/>
    </edge>
    <edge id=":C_22" function="internal">
        <lane id=":C_22_0" index="0" speed="13.89" length="26.15" width="3.00" shape="192.36,115.63 190.76,89.53"/>
    </edge>
    <edge id=":C_23" function="internal">
        <lane id=":C_23_0" index="0" disallow="bicycle" speed="13.89" length="6.99" width="3.50" shape="192.36,115.63 193.64,108.76"/>
    </edge>
    <edge id=":C_32" function="internal">
        <lane id=":C_32_0" index="0" speed="13.89" length="22.49" width="2.00" shape="193.48,106.03 197.20,101.30 204.35,96.48 212.02,94.79"/>
    </edge>
    <edge id=":C_33" function="internal">
        <lane id=":C_33_0" index="0" speed="13.89" length="21.59" width="3.50" shape="193.64,108.76 193.69,108.50 197.38,103.51 203.42,100.66 211.83,99.94"/>
    </edge>

    <edge id="EW1" from="gneJ8" to="C" priority="1" shape="409.35,109.02 212.44,101.77">
        <lane id="EW1_0" index="0" allow="bicycle" speed="13.89" length="197.71" width="2.00" shape="408.99,118.91 211.41,111.64"/>
        <lane id="EW1_1" index="1" disallow="all" speed="13.89" length="197.71" width="2.40" shape="409.07,116.71 211.49,109.44"/>
        <lane id="EW1_2" index="2" disallow="bicycle" speed="13.89" length="197.71" width="3.25" shape="409.17,113.89 211.59,106.62"/>
        <lane id="EW1_3" index="3" disallow="bicycle" speed="13.89" length="197.71" width="3.25" shape="409.29,110.64 211.71,103.37"/>
    </edge>
    <edge id="EW2" from="C" to="gneJ19" priority="1" shape="174.49,103.80 13.23,100.45">
        <lane id="EW2_0" index="0" allow="bicycle" speed="13.89" length="161.29" width="2.00" shape="174.35,110.70 13.09,107.35"/>
        <lane id="EW2_1" index="1" disallow="all" speed="13.89" length="161.29" width="2.40" shape="174.39,108.50 13.13,105.15"/>
        <lane id="EW2_2" index="2" disallow="bicycle" speed="13.89" length="161.29" width="3.50" shape="174.45,105.55 13.19,102.20"/>
    </edge>
    <edge id="NS1" from="gneJ6" to="C" priority="1" shape="192.25,211.77 193.97,116.42">
        <lane id="NS1_0" index="0" speed="13.89" length="96.13" width="3.25" shape="187.38,211.68 189.11,115.56"/>
        <lane id="NS1_1" index="1" speed="13.89" length="96.13" width="3.25" shape="190.63,211.74 192.36,115.63"/>
    </edge>
    <edge id="NS2" from="C" to="gneJ15" priority="1" shape="192.26,89.57 194.37,14.53">
        <lane id="NS2_0" index="0" allow="bicycle" speed="13.89" length="75.07" width="1.50" shape="188.51,89.46 190.62,14.42"/>
        <lane id="NS2_1" index="1" speed="13.89" length="75.07" width="3.00" shape="190.76,89.53 192.87,14.49"/>
    </edge>
    <edge id="SN1" from="gneJ16" to="C" priority="1" shape="194.81,0.00 192.39,90.70">
        <lane id="SN1_0" index="0" speed="13.89" length="89.61" width="3.25" shape="199.68,0.13 197.29,89.71"/>
        <lane id="SN1_1" index="1" speed="13.89" length="89.61" width="3.25" shape="196.43,0.04 194.04,89.62"/>
    </edge>
    <edge id="SN2" from="C" to="gneJ5" priority="1" shape="194.04,115.66 191.99,220.39">
        <lane id="SN2_0" index="0" allow="bicycle" speed="13.89" length="104.75" width="1.50" shape="197.79,115.73 195.74,220.46"/>
        <lane id="SN2_1" index="1" disallow="bicycle" speed="13.89" length="104.75" width="3.00" shape="195.54,115.69 193.49,220.42"/>
    </edge>
    <edge id="WE1" from="gneJ12" to="C" priority="1" shape="0.00,99.76 174.09,103.58">
        <lane id="WE1_0" index="0" allow="bicycle" speed="13.89" length="174.53" width="2.00" shape="0.22,89.86 174.70,93.69"/>
        <lane id="WE1_1" index="1" disallow="all" speed="13.89" length="174.53" width="2.40" shape="0.17,92.06 174.65,95.89"/>
        <lane id="WE1_2" index="2" speed="13.89" length="174.53" width="3.25" shape="0.11,94.89 174.60,98.71"/>
        <lane id="WE1_3" index="3" speed="13.89" length="174.53" width="3.25" shape="0.04,98.14 174.53,101.96"/>
    </edge>
    <edge id="WE2" from="C" to="gneJ23" priority="1" shape="211.77,101.69 379.17,107.77">
        <lane id="WE2_0" index="0" allow="bicycle" speed="13.89" length="167.51" width="2.00" shape="212.02,94.79 379.42,100.87"/>
        <lane id="WE2_1" index="1" disallow="all" speed="13.89" length="167.51" width="2.40" shape="211.94,96.99 379.34,103.07"/>
        <lane id="WE2_2" index="2" disallow="bicycle" speed="13.89" length="167.51" width="3.50" shape="211.83,99.94 379.23,106.02"/>
    </edge>

    <tlLogic id="_gneJ24_gneJ25_gneJ26_gneJ27_gneJ28_gneJ29_gneJ30_gneJ31" type="static" programID="0" offset="0">
        <phase duration="38" state="GGggGgrrrrrrGGggGgrrrrrr"/>
        <phase duration="3"  state="yyyyygrrrrrryyyyygrrrrrr"/>
        <phase duration="6"  state="rrrrrGrrrrrrrrrrrGrrrrrr"/>
        <phase duration="3"  state="rrrrryrrrrrrrrrrryrrrrrr"/>
        <phase duration="37" state="rrrrrrGGGgGgrrrrrrGGGgGg"/>
        <phase duration="3"  state="rrrrrryyyyyyrrrrrryyyyyy"/>
    </tlLogic>

    <junction id="C" type="traffic_light" x="193.18" y="102.90" incLanes="EW1_0 EW1_1 EW1_2 EW1_3 SN1_0 SN1_1 WE1_0 WE1_1 WE1_2 WE1_3 NS1_0 NS1_1" intLanes=":C_0_0 :C_1_0 :C_24_0 :C_25_0 :C_4_0 :C_26_0 :C_6_0 :C_7_0 :C_8_0 :C_27_0 :C_10_0 :C_28_0 :C_12_0 :C_13_0 :C_29_0 :C_30_0 :C_16_0 :C_31_0 :C_18_0 :C_19_0 :C_20_0 :C_32_0 :C_22_0 :C_33_0" shape="211.37,112.64 212.06,93.80 198.92,89.76 187.76,89.44 174.72,92.69 174.33,111.70 187.48,115.53 198.54,115.75">
        <request index="0"  response="000000000000000000000000" foes="000000000100000100000000" cont="0"/>
        <request index="1"  response="101000000000001000000000" foes="111111100100011100001000" cont="0"/>
        <request index="2"  response="101000111111101000010000" foes="111100111111111100011000" cont="1"/>
        <request index="3"  response="000000000000000000000110" foes="000000100100010100000110" cont="1"/>
        <request index="4"  response="101000000000101000000000" foes="111110100100111100000100" cont="0"/>
        <request index="5"  response="101000011110101000000000" foes="111000011110111100000000" cont="1"/>
        <request index="6"  response="000000000010000000000000" foes="001000000010000000000000" cont="0"/>
        <request index="7"  response="000000010010000000000000" foes="101000010010000000000000" cont="0"/>
        <request index="8"  response="000000010110000000111111" foes="101000010110000000111111" cont="0"/>
        <request index="9"  response="010111110110010000110110" foes="010111110110010000110110" cont="1"/>
        <request index="10" response="000000110110000000111110" foes="101000110110001000111110" cont="0"/>
        <request index="11" response="010110110110000000110100" foes="010110110110000000110100" cont="1"/>
        <request index="12" response="000000000000000000000000" foes="000100000000000000000100" cont="0"/>
        <request index="13" response="001000000000101000000000" foes="011100001000111111100100" cont="0"/>
        <request index="14" response="101000010000101000011011" foes="111100011000111100111111" cont="1"/>
        <request index="15" response="000000000110000000000000" foes="010100000110000000100100" cont="1"/>
        <request index="16" response="101000000000101000000000" foes="111100000100111110100100" cont="0"/>
        <request index="17" response="101000000000101000011010" foes="111100000000111000011110" cont="1"/>
        <request index="18" response="000000000000000000000010" foes="000000000000001000000010" cont="0"/>
        <request index="19" response="000000000000000000010010" foes="000000000000101000010010" cont="0"/>
        <request index="20" response="000000111111000000010110" foes="000000111111101000010110" cont="0"/>
        <request index="21" response="010000110110010111110110" foes="010000110110010111110110" cont="1"/>
        <request index="22" response="000000111110000000110110" foes="001000111110101000110110" cont="0"/>
        <request index="23" response="000000110100010110110110" foes="000000110100010110110110" cont="1"/>
    </junction>
    <junction id="gneJ12" type="dead_end" x="0.00" y="99.76" incLanes="" intLanes="" shape="-0.00,99.76 0.24,88.86"/>
    <junction id="gneJ15" type="dead_end" x="194.37" y="14.53" incLanes="NS2_0 NS2_1" intLanes="" shape="189.87,14.40 194.37,14.53"/>
    <junction id="gneJ16" type="dead_end" x="194.81" y="0.00" incLanes="" intLanes="" shape="194.81,0.00 201.31,0.17"/>
    <junction id="gneJ19" type="dead_end" x="13.23" y="100.45" incLanes="EW2_0 EW2_1 EW2_2" intLanes="" shape="13.07,108.35 13.23,100.45"/>
    <junction id="gneJ23" type="dead_end" x="379.17" y="107.77" incLanes="WE2_0 WE2_1 WE2_2" intLanes="" shape="379.46,99.88 379.17,107.77"/>
    <junction id="gneJ5" type="dead_end" x="191.99" y="220.39" incLanes="SN2_0 SN2_1" intLanes="" shape="196.49,220.48 191.99,220.39"/>
    <junction id="gneJ6" type="dead_end" x="192.25" y="211.77" incLanes="" intLanes="" shape="192.25,211.77 185.75,211.65"/>
    <junction id="gneJ8" type="dead_end" x="409.35" y="109.02" incLanes="" intLanes="" shape="409.35,109.02 408.95,119.91"/>

    <junction id=":C_24_0" type="internal" x="188.58" y="105.65" incLanes=":C_2_0 :C_14_0 :C_17_0 WE1_0 WE1_2" intLanes=":C_29_0 :C_31_0 :C_4_0 :C_8_0 :C_9_0 :C_10_0 :C_11_0 :C_12_0 :C_13_0 :C_14_0 :C_15_0 :C_16_0 :C_17_0 :C_20_0 :C_21_0 :C_22_0 :C_23_0"/>
    <junction id=":C_25_0" type="internal" x="198.89" y="109.32" incLanes=":C_3_0 EW1_0" intLanes=":C_1_0 :C_2_0 :C_8_0 :C_10_0 :C_14_0 :C_17_0"/>
    <junction id=":C_26_0" type="internal" x="201.00" y="101.34" incLanes=":C_5_0 :C_14_0 WE1_0 WE1_2" intLanes=":C_29_0 :C_8_0 :C_9_0 :C_10_0 :C_11_0 :C_12_0 :C_13_0 :C_14_0 :C_15_0 :C_16_0 :C_20_0 :C_21_0 :C_22_0 :C_23_0"/>
    <junction id=":C_27_0" type="internal" x="192.86" y="99.29" incLanes=":C_9_0 NS1_0 NS1_1" intLanes=":C_1_0 :C_2_0 :C_4_0 :C_5_0 :C_10_0 :C_13_0 :C_14_0 :C_16_0 :C_17_0 :C_18_0 :C_19_0 :C_20_0 :C_22_0"/>
    <junction id=":C_28_0" type="internal" x="192.69" y="96.55" incLanes=":C_11_0 NS1_0 NS1_1" intLanes=":C_1_0 :C_2_0 :C_4_0 :C_5_0 :C_13_0 :C_14_0 :C_16_0 :C_17_0 :C_18_0 :C_19_0 :C_20_0 :C_22_0"/>
    <junction id=":C_29_0" type="internal" x="197.45" y="93.39" incLanes=":C_14_0 EW1_0 EW1_2" intLanes=":C_0_0 :C_1_0 :C_2_0 :C_3_0 :C_4_0 :C_5_0 :C_8_0 :C_9_0 :C_10_0 :C_11_0 :C_16_0 :C_20_0 :C_21_0 :C_22_0 :C_23_0"/>
    <junction id=":C_30_0" type="internal" x="187.15" y="96.06" incLanes=":C_15_0 WE1_0" intLanes=":C_2_0 :C_5_0 :C_13_0 :C_14_0 :C_20_0 :C_22_0"/>
    <junction id=":C_31_0" type="internal" x="185.89" y="104.13" incLanes=":C_17_0 EW1_0 EW1_2" intLanes=":C_0_0 :C_1_0 :C_2_0 :C_3_0 :C_4_0 :C_8_0 :C_9_0 :C_10_0 :C_11_0 :C_20_0 :C_21_0 :C_22_0 :C_23_0"/>
    <junction id=":C_32_0" type="internal" x="193.48" y="106.03" incLanes=":C_21_0 SN1_0 SN1_1" intLanes=":C_1_0 :C_2_0 :C_4_0 :C_5_0 :C_6_0 :C_7_0 :C_8_0 :C_10_0 :C_13_0 :C_14_0 :C_16_0 :C_17_0 :C_22_0"/>
    <junction id=":C_33_0" type="internal" x="193.64" y="108.76" incLanes=":C_23_0 SN1_0 SN1_1" intLanes=":C_1_0 :C_2_0 :C_4_0 :C_5_0 :C_6_0 :C_7_0 :C_8_0 :C_10_0 :C_13_0 :C_14_0 :C_16_0 :C_17_0"/>

    <connection from="EW1" to="SN2" fromLane="0" toLane="0" via=":C_0_0" tl="_gneJ24_gneJ25_gneJ26_gneJ27_gneJ28_gneJ29_gneJ30_gneJ31" linkIndex="0" dir="r" state="O"/>
    <connection from="EW1" to="EW2" fromLane="0" toLane="0" via=":C_1_0" tl="_gneJ24_gneJ25_gneJ26_gneJ27_gneJ28_gneJ29_gneJ30_gneJ31" linkIndex="1" dir="s" state="O"/>
    <connection from="EW1" to="NS2" fromLane="0" toLane="0" contPos="30.00" shape="211.41,111.64 200.79,113.20 192.30,113.30 189.09,113.20 188.62,106.89 188.37,99.22 188.51,89.46" via=":C_2_0" tl="_gneJ24_gneJ25_gneJ26_gneJ27_gneJ28_gneJ29_gneJ30_gneJ31" linkIndex="2" dir="l" state="o"/>
    <connection from="EW1" to="SN2" fromLane="2" toLane="1" via=":C_3_0" tl="_gneJ24_gneJ25_gneJ26_gneJ27_gneJ28_gneJ29_gneJ30_gneJ31" linkIndex="3" dir="r" state="o"/>
    <connection from="EW1" to="EW2" fromLane="2" toLane="2" via=":C_4_0" tl="_gneJ24_gneJ25_gneJ26_gneJ27_gneJ28_gneJ29_gneJ30_gneJ31" linkIndex="4" dir="s" state="O"/>
    <connection from="EW1" to="NS2" fromLane="3" toLane="1" via=":C_5_0" tl="_gneJ24_gneJ25_gneJ26_gneJ27_gneJ28_gneJ29_gneJ30_gneJ31" linkIndex="5" dir="l" state="o"/>
    <connection from="NS1" to="EW2" fromLane="0" toLane="0" via=":C_18_0" tl="_gneJ24_gneJ25_gneJ26_gneJ27_gneJ28_gneJ29_gneJ30_gneJ31" linkIndex="18" dir="r" state="o"/>
    <connection from="NS1" to="EW2" fromLane="0" toLane="2" via=":C_19_0" tl="_gneJ24_gneJ25_gneJ26_gneJ27_gneJ28_gneJ29_gneJ30_gneJ31" linkIndex="19" dir="r" state="o"/>
    <connection from="NS1" to="NS2" fromLane="0" toLane="0" via=":C_20_0" tl="_gneJ24_gneJ25_gneJ26_gneJ27_gneJ28_gneJ29_gneJ30_gneJ31" linkIndex="20" dir="s" state="o"/>
    <connection from="NS1" to="WE2" fromLane="0" toLane="0" via=":C_21_0" tl="_gneJ24_gneJ25_gneJ26_gneJ27_gneJ28_gneJ29_gneJ30_gneJ31" linkIndex="21" dir="l" state="o"/>
    <connection from="NS1" to="NS2" fromLane="1" toLane="1" via=":C_22_0" tl="_gneJ24_gneJ25_gneJ26_gneJ27_gneJ28_gneJ29_gneJ30_gneJ31" linkIndex="22" dir="s" state="o"/>
    <connection from="NS1" to="WE2" fromLane="1" toLane="2" via=":C_23_0" tl="_gneJ24_gneJ25_gneJ26_gneJ27_gneJ28_gneJ29_gneJ30_gneJ31" linkIndex="23" dir="l" state="o"/>
    <connection from="SN1" to="WE2" fromLane="0" toLane="0" via=":C_6_0" tl="_gneJ24_gneJ25_gneJ26_gneJ27_gneJ28_gneJ29_gneJ30_gneJ31" linkIndex="6" dir="r" state="o"/>
    <connection from="SN1" to="WE2" fromLane="0" toLane="2" via=":C_7_0" tl="_gneJ24_gneJ25_gneJ26_gneJ27_gneJ28_gneJ29_gneJ30_gneJ31" linkIndex="7" dir="r" state="o"/>
    <connection from="SN1" to="SN2" fromLane="0" toLane="0" via=":C_8_0" tl="_gneJ24_gneJ25_gneJ26_gneJ27_gneJ28_gneJ29_gneJ30_gneJ31" linkIndex="8" dir="s" state="o"/>
    <connection from="SN1" to="EW2" fromLane="0" toLane="0" via=":C_9_0" tl="_gneJ24_gneJ25_gneJ26_gneJ27_gneJ28_gneJ29_gneJ30_gneJ31" linkIndex="9" dir="l" state="o"/>
    <connection from="SN1" to="SN2" fromLane="1" toLane="1" via=":C_10_0" tl="_gneJ24_gneJ25_gneJ26_gneJ27_gneJ28_gneJ29_gneJ30_gneJ31" linkIndex="10" dir="s" state="o"/>
    <connection from="SN1" to="EW2" fromLane="1" toLane="2" via=":C_11_0" tl="_gneJ24_gneJ25_gneJ26_gneJ27_gneJ28_gneJ29_gneJ30_gneJ31" linkIndex="11" dir="l" state="o"/>
    <connection from="WE1" to="NS2" fromLane="0" toLane="0" via=":C_12_0" tl="_gneJ24_gneJ25_gneJ26_gneJ27_gneJ28_gneJ29_gneJ30_gneJ31" linkIndex="12" dir="r" state="O"/>
    <connection from="WE1" to="WE2" fromLane="0" toLane="0" via=":C_13_0" tl="_gneJ24_gneJ25_gneJ26_gneJ27_gneJ28_gneJ29_gneJ30_gneJ31" linkIndex="13" dir="s" state="O"/>
    <connection from="WE1" to="SN2" fromLane="0" toLane="0" contPos="24.00" shape="174.70,93.69 185.31,92.72 191.74,92.44 197.29,92.05 198.24,100.05 198.41,106.77 197.79,115.73" via=":C_14_0" tl="_gneJ24_gneJ25_gneJ26_gneJ27_gneJ28_gneJ29_gneJ30_gneJ31" linkIndex="14" dir="l" state="o"/>
    <connection from="WE1" to="NS2" fromLane="2" toLane="1" via=":C_15_0" tl="_gneJ24_gneJ25_gneJ26_gneJ27_gneJ28_gneJ29_gneJ30_gneJ31" linkIndex="15" dir="r" state="o"/>
    <connection from="WE1" to="WE2" fromLane="2" toLane="2" via=":C_16_0" tl="_gneJ24_gneJ25_gneJ26_gneJ27_gneJ28_gneJ29_gneJ30_gneJ31" linkIndex="16" dir="s" state="O"/>
    <connection from="WE1" to="SN2" fromLane="3" toLane="1" via=":C_17_0" tl="_gneJ24_gneJ25_gneJ26_gneJ27_gneJ28_gneJ29_gneJ30_gneJ31" linkIndex="17" dir="l" state="o"/>

    <connection from=":C_0" to="SN2" fromLane="0" toLane="0" dir="r" state="M"/>
    <connection from=":C_1" to="EW2" fromLane="0" toLane="0" dir="s" state="M"/>
    <connection from=":C_2" to="NS2" fromLane="0" toLane="0" via=":C_24_0" dir="l" state="m"/>
    <connection from=":C_24" to="NS2" fromLane="0" toLane="0" dir="l" state="M"/>
    <connection from=":C_3" to="SN2" fromLane="0" toLane="1" via=":C_25_0" dir="r" state="m"/>
    <connection from=":C_25" to="SN2" fromLane="0" toLane="1" dir="r" state="M"/>
    <connection from=":C_4" to="EW2" fromLane="0" toLane="2" dir="s" state="M"/>
    <connection from=":C_5" to="NS2" fromLane="0" toLane="1" via=":C_26_0" dir="l" state="m"/>
    <connection from=":C_26" to="NS2" fromLane="0" toLane="1" dir="l" state="M"/>
    <connection from=":C_6" to="WE2" fromLane="0" toLane="0" dir="r" state="M"/>
    <connection from=":C_7" to="WE2" fromLane="0" toLane="2" dir="r" state="M"/>
    <connection from=":C_8" to="SN2" fromLane="0" toLane="0" dir="s" state="M"/>
    <connection from=":C_9" to="EW2" fromLane="0" toLane="0" via=":C_27_0" dir="l" state="m"/>
    <connection from=":C_27" to="EW2" fromLane="0" toLane="0" dir="l" state="M"/>
    <connection from=":C_10" to="SN2" fromLane="0" toLane="1" dir="s" state="M"/>
    <connection from=":C_11" to="EW2" fromLane="0" toLane="2" via=":C_28_0" dir="l" state="m"/>
    <connection from=":C_28" to="EW2" fromLane="0" toLane="2" dir="l" state="M"/>
    <connection from=":C_12" to="NS2" fromLane="0" toLane="0" dir="r" state="M"/>
    <connection from=":C_13" to="WE2" fromLane="0" toLane="0" dir="s" state="M"/>
    <connection from=":C_14" to="SN2" fromLane="0" toLane="0" via=":C_29_0" dir="l" state="m"/>
    <connection from=":C_29" to="SN2" fromLane="0" toLane="0" dir="l" state="M"/>
    <connection from=":C_15" to="NS2" fromLane="0" toLane="1" via=":C_30_0" dir="r" state="m"/>
    <connection from=":C_30" to="NS2" fromLane="0" toLane="1" dir="r" state="M"/>
    <connection from=":C_16" to="WE2" fromLane="0" toLane="2" dir="s" state="M"/>
    <connection from=":C_17" to="SN2" fromLane="0" toLane="1" via=":C_31_0" dir="l" state="m"/>
    <connection from=":C_31" to="SN2" fromLane="0" toLane="1" dir="l" state="M"/>
    <connection from=":C_18" to="EW2" fromLane="0" toLane="0" dir="r" state="M"/>
    <connection from=":C_19" to="EW2" fromLane="0" toLane="2" dir="r" state="M"/>
    <connection from=":C_20" to="NS2" fromLane="0" toLane="0" dir="s" state="M"/>
    <connection from=":C_21" to="WE2" fromLane="0" toLane="0" via=":C_32_0" dir="l" state="m"/>
    <connection from=":C_32" to="WE2" fromLane="0" toLane="0" dir="l" state="M"/>
    <connection from=":C_22" to="NS2" fromLane="0" toLane="1" dir="s" state="M"/>
    <connection from=":C_23" to="WE2" fromLane="0" toLane="2" via=":C_33_0" dir="l" state="m"/>
    <connection from=":C_33" to="WE2" fromLane="0" toLane="2" dir="l" state="M"/>

</net>
