<?xml version="1.0" encoding="UTF-8"?>

<!-- generated on Thu Sep  6 09:32:38 2018 by Eclipse SUMO netconvert Version v1_0_0+0032-77a1026
-->

<configuration xmlns:xsi="http://www.w3.org/2001/XMLSchema-instance" xsi:noNamespaceSchemaLocation="http://sumo.dlr.de/xsd/netconvertConfiguration.xsd">

    <input>
        <node-files value="../../../../tools/tls/input_nodes.nod.xml"/>
        <edge-files value="../../../../tools/tls/input_edges.edg.xml"/>
    </input>

    <output>
        <output-file value="net.net.xml"/>
    </output>

    <processing>
        <speed-in-kmh value="true"/>
    </processing>

</configuration>
