<?xml version="1.0"?>

<!-- generated on 08/27/10 18:26:48 by SUMO sumo Version dev-SVN-r8989
<configuration>

    <input>
        <net-file value="net.net.xml"/>
        <route-files value="input_routes.rou.xml"/>
        <additional-files value="input_additional.add.xml,input_additional2.add.xml"/>
    </input>

    <time>
        <begin value="0"/>
        <end value="1000"/>
    </time>

    <report>
        <no-duration-log value="true"/>
        <no-step-log value="true"/>
    </report>

    <mesoscopic>
        <mesosim value="true"/>
    </mesoscopic>

</configuration>
-->

<netstats>
    <interval begin="0.00" end="25.00" id="dump_25">
        <edge id="beg" sampledSeconds="283.65" traveltime="26.11" density="22.76" occupancy="11.38" waitingTime="0.00" speed="19.10" departed="25" arrived="0" entered="0" left="5" laneChangedFrom="0" laneChangedTo="0"/>
        <edge id="middle" sampledSeconds="16.35" traveltime="71.25" density="0.66" occupancy="0.33" waitingTime="0.00" speed="13.90" departed="0" arrived="0" entered="5" left="0" laneChangedFrom="0" laneChangedTo="0"/>
    </interval>
    <interval begin="25.00" end="50.00" id="dump_25">
        <edge id="beg" sampledSeconds="599.29" traveltime="44.29" density="48.08" occupancy="24.04" waitingTime="0.00" speed="11.26" departed="19" arrived="0" entered="0" left="13" laneChangedFrom="0" laneChangedTo="0"/>
        <edge id="middle" sampledSeconds="295.71" traveltime="71.25" density="11.94" occupancy="5.97" waitingTime="0.00" speed="13.90" departed="0" arrived="0" entered="13" left="0" laneChangedFrom="0" laneChangedTo="0"/>
    </interval>
    <interval begin="50.00" end="75.00" id="dump_25">
        <edge id="beg" sampledSeconds="646.49" traveltime="51.24" density="51.87" occupancy="25.93" waitingTime="0.00" speed="9.73" departed="13" arrived="0" entered="0" left="13" laneChangedFrom="0" laneChangedTo="0"/>
        <edge id="middle" sampledSeconds="609.51" traveltime="71.25" density="24.61" occupancy="12.31" waitingTime="0.00" speed="13.90" departed="0" arrived="0" entered="13" left="0" laneChangedFrom="0" laneChangedTo="0"/>
    </interval>
    <interval begin="75.00" end="100.00" id="dump_25">
        <edge id="beg" sampledSeconds="646.76" traveltime="51.70" density="51.89" occupancy="25.95" waitingTime="0.00" speed="9.64" departed="12" arrived="0" entered="0" left="12" laneChangedFrom="0" laneChangedTo="0"/>
        <edge id="end" sampledSeconds="39.36" traveltime="17.93" density="3.16" occupancy="1.58" waitingTime="0.00" speed="27.81" departed="0" arrived="0" entered="8" left="0" laneChangedFrom="0" laneChangedTo="0"/>
        <edge id="middle" sampledSeconds="882.88" traveltime="71.25" density="35.65" occupancy="17.83" waitingTime="0.00" speed="13.90" departed="0" arrived="0" entered="12" left="8" laneChangedFrom="0" laneChangedTo="0"/>
    </interval>
    <interval begin="100.00" end="125.00" id="dump_25">
        <edge id="beg" sampledSeconds="646.49" traveltime="51.76" density="51.87" occupancy="25.93" waitingTime="0.00" speed="9.63" departed="13" arrived="0" entered="0" left="13" laneChangedFrom="0" laneChangedTo="0"/>
        <edge id="end" sampledSeconds="131.21" traveltime="17.93" density="10.53" occupancy="5.26" waitingTime="0.00" speed="27.81" departed="0" arrived="0" entered="2" left="9" laneChangedFrom="0" laneChangedTo="0"/>
        <edge id="middle" sampledSeconds="1006.17" traveltime="312.47" density="40.63" occupancy="20.32" waitingTime="0.00" speed="3.17" departed="0" arrived="0" entered="13" left="2" laneChangedFrom="0" laneChangedTo="0"/>
        <edge id="rend" sampledSeconds="0.00" departed="0" arrived="9" entered="9" left="0" laneChangedFrom="0" laneChangedTo="0"/>
    </interval>
    <interval begin="125.00" end="150.00" id="dump_25">
        <edge id="beg" sampledSeconds="648.03" traveltime="52.04" density="51.99" occupancy="26.00" waitingTime="0.00" speed="9.58" departed="12" arrived="0" entered="0" left="11" laneChangedFrom="0" laneChangedTo="0"/>
        <edge id="end" sampledSeconds="45.42" traveltime="17.93" density="3.64" occupancy="1.82" waitingTime="0.00" speed="27.81" departed="0" arrived="0" entered="3" left="2" laneChangedFrom="0" laneChangedTo="0"/>
        <edge id="middle" sampledSeconds="1252.94" traveltime="370.47" density="50.60" occupancy="25.30" waitingTime="0.00" speed="2.67" departed="0" arrived="0" entered="11" left="3" laneChangedFrom="0" laneChangedTo="0"/>
        <edge id="rend" sampledSeconds="0.00" departed="0" arrived="2" entered="2" left="0" laneChangedFrom="0" laneChangedTo="0"/>
    </interval>
    <interval begin="150.00" end="175.00" id="dump_25">
        <edge id="beg" sampledSeconds="775.21" traveltime="73.53" density="62.20" occupancy="31.10" waitingTime="0.00" speed="6.78" departed="7" arrived="0" entered="0" left="2" laneChangedFrom="0" laneChangedTo="0"/>
        <edge id="end" sampledSeconds="44.59" traveltime="17.93" density="3.58" occupancy="1.79" waitingTime="0.00" speed="27.81" departed="0" arrived="0" entered="2" left="3" laneChangedFrom="0" laneChangedTo="0"/>
        <edge id="middle" sampledSeconds="1346.75" traveltime="439.41" density="54.39" occupancy="27.19" waitingTime="0.00" speed="2.25" departed="0" arrived="0" entered="2" left="2" laneChangedFrom="0" laneChangedTo="0"/>
        <edge id="rend" sampledSeconds="0.00" departed="0" arrived="3" entered="3" left="0" laneChangedFrom="0" laneChangedTo="0"/>
    </interval>
    <interval begin="175.00" end="200.00" id="dump_25">
        <edge id="beg" sampledSeconds="800.00" traveltime="80.46" density="64.19" occupancy="32.09" waitingTime="0.00" speed="6.20" departed="0" arrived="0" entered="0" left="0" laneChangedFrom="0" laneChangedTo="0"/>
        <edge id="end" sampledSeconds="45.77" traveltime="17.93" density="3.67" occupancy="1.84" waitingTime="0.00" speed="27.81" departed="0" arrived="0" entered="3" left="2" laneChangedFrom="0" laneChangedTo="0"/>
        <edge id="middle" sampledSeconds="1305.91" traveltime="444.06" density="52.74" occupancy="26.37" waitingTime="0.00" speed="2.23" departed="0" arrived="0" entered="0" left="3" laneChangedFrom="0" laneChangedTo="0"/>
        <edge id="rend" sampledSeconds="0.00" departed="0" arrived="2" entered="2" left="0" laneChangedFrom="0" laneChangedTo="0"/>
    </interval>
    <interval begin="200.00" end="225.00" id="dump_25">
        <edge id="beg" sampledSeconds="779.11" traveltime="362.16" density="62.51" occupancy="31.25" waitingTime="0.00" speed="1.38" departed="0" arrived="0" entered="0" left="1" laneChangedFrom="0" laneChangedTo="0"/>
        <edge id="end" sampledSeconds="214.00" traveltime="17.93" density="17.17" occupancy="8.58" waitingTime="0.00" speed="27.81" departed="0" arrived="0" entered="17" left="7" laneChangedFrom="0" laneChangedTo="0"/>
        <edge id="middle" sampledSeconds="1083.46" traveltime="73.00" density="43.75" occupancy="21.88" waitingTime="23.98" speed="13.57" departed="0" arrived="0" entered="1" left="17" laneChangedFrom="0" laneChangedTo="0"/>
        <edge id="rend" sampledSeconds="0.00" departed="0" arrived="7" entered="7" left="0" laneChangedFrom="0" laneChangedTo="0"/>
    </interval>
    <interval begin="225.00" end="250.00" id="dump_25">
        <edge id="beg" sampledSeconds="666.05" traveltime="629.32" density="53.44" occupancy="26.72" waitingTime="0.00" speed="0.79" departed="0" arrived="0" entered="0" left="10" laneChangedFrom="0" laneChangedTo="0"/>
        <edge id="end" sampledSeconds="320.31" traveltime="17.93" density="25.70" occupancy="12.85" waitingTime="0.00" speed="27.81" departed="0" arrived="0" entered="18" left="17" laneChangedFrom="0" laneChangedTo="0"/>
        <edge id="middle" sampledSeconds="750.02" traveltime="44.72" density="30.29" occupancy="15.14" waitingTime="0.00" speed="22.15" departed="0" arrived="0" entered="10" left="18" laneChangedFrom="0" laneChangedTo="0"/>
        <edge id="rend" sampledSeconds="0.00" departed="0" arrived="17" entered="17" left="0" laneChangedFrom="0" laneChangedTo="0"/>
    </interval>
    <interval begin="250.00" end="275.00" id="dump_25">
        <edge id="beg" sampledSeconds="352.43" traveltime="297.98" density="28.28" occupancy="14.14" waitingTime="0.00" speed="1.67" departed="0" arrived="0" entered="0" left="12" laneChangedFrom="0" laneChangedTo="0"/>
        <edge id="end" sampledSeconds="320.14" traveltime="17.93" density="25.69" occupancy="12.84" waitingTime="0.00" speed="27.81" departed="0" arrived="0" entered="18" left="18" laneChangedFrom="0" laneChangedTo="0"/>
        <edge id="middle" sampledSeconds="617.24" traveltime="39.33" density="24.93" occupancy="12.46" waitingTime="0.00" speed="25.18" departed="0" arrived="0" entered="12" left="18" laneChangedFrom="0" laneChangedTo="0"/>
        <edge id="rend" sampledSeconds="0.00" departed="0" arrived="18" entered="18" left="0" laneChangedFrom="0" laneChangedTo="0"/>
    </interval>
    <interval begin="275.00" end="300.00" id="dump_25">
        <edge id="beg" sampledSeconds="69.22" traveltime="41.81" density="5.55" occupancy="2.78" waitingTime="0.00" speed="11.93" departed="0" arrived="0" entered="0" left="9" laneChangedFrom="0" laneChangedTo="0"/>
        <edge id="end" sampledSeconds="320.14" traveltime="17.93" density="25.69" occupancy="12.84" waitingTime="0.00" speed="27.81" departed="0" arrived="0" entered="18" left="18" laneChangedFrom="0" laneChangedTo="0"/>
        <edge id="middle" sampledSeconds="454.05" traveltime="33.83" density="18.34" occupancy="9.17" waitingTime="0.00" speed="29.27" departed="0" arrived="0" entered="9" left="18" laneChangedFrom="0" laneChangedTo="0"/>
        <edge id="rend" sampledSeconds="0.00" departed="0" arrived="18" entered="18" left="0" laneChangedFrom="0" laneChangedTo="0"/>
    </interval>
    <interval begin="300.00" end="325.00" id="dump_25">
        <edge id="end" sampledSeconds="296.16" traveltime="17.93" density="23.76" occupancy="11.88" waitingTime="0.00" speed="27.81" departed="0" arrived="0" entered="12" left="18" laneChangedFrom="0" laneChangedTo="0"/>
        <edge id="middle" sampledSeconds="100.85" traveltime="43.07" density="4.07" occupancy="2.04" waitingTime="0.00" speed="23.00" departed="0" arrived="0" entered="0" left="12" laneChangedFrom="0" laneChangedTo="0"/>
        <edge id="rend" sampledSeconds="0.00" departed="0" arrived="18" entered="18" left="0" laneChangedFrom="0" laneChangedTo="0"/>
    </interval>
    <interval begin="325.00" end="350.00" id="dump_25">
        <edge id="end" sampledSeconds="33.84" traveltime="17.93" density="2.71" occupancy="1.36" waitingTime="0.00" speed="27.81" departed="0" arrived="0" entered="0" left="7" laneChangedFrom="0" laneChangedTo="0"/>
        <edge id="rend" sampledSeconds="0.00" departed="0" arrived="7" entered="7" left="0" laneChangedFrom="0" laneChangedTo="0"/>
    </interval>
    <interval begin="350.00" end="375.00" id="dump_25">
    </interval>
    <interval begin="375.00" end="400.00" id="dump_25">
    </interval>
    <interval begin="400.00" end="425.00" id="dump_25">
    </interval>
    <interval begin="425.00" end="450.00" id="dump_25">
    </interval>
    <interval begin="450.00" end="475.00" id="dump_25">
    </interval>
    <interval begin="475.00" end="500.00" id="dump_25">
    </interval>
    <interval begin="500.00" end="525.00" id="dump_25">
    </interval>
    <interval begin="525.00" end="550.00" id="dump_25">
    </interval>
    <interval begin="550.00" end="575.00" id="dump_25">
    </interval>
    <interval begin="575.00" end="600.00" id="dump_25">
    </interval>
    <interval begin="600.00" end="625.00" id="dump_25">
    </interval>
    <interval begin="625.00" end="650.00" id="dump_25">
    </interval>
    <interval begin="650.00" end="675.00" id="dump_25">
    </interval>
    <interval begin="675.00" end="700.00" id="dump_25">
    </interval>
    <interval begin="700.00" end="725.00" id="dump_25">
    </interval>
    <interval begin="725.00" end="750.00" id="dump_25">
    </interval>
    <interval begin="750.00" end="775.00" id="dump_25">
    </interval>
    <interval begin="775.00" end="800.00" id="dump_25">
    </interval>
    <interval begin="800.00" end="825.00" id="dump_25">
    </interval>
    <interval begin="825.00" end="850.00" id="dump_25">
    </interval>
    <interval begin="850.00" end="875.00" id="dump_25">
    </interval>
    <interval begin="875.00" end="900.00" id="dump_25">
    </interval>
    <interval begin="900.00" end="925.00" id="dump_25">
    </interval>
    <interval begin="925.00" end="950.00" id="dump_25">
    </interval>
    <interval begin="950.00" end="975.00" id="dump_25">
    </interval>
    <interval begin="975.00" end="1000.00" id="dump_25">
    </interval>
</netstats>
