# Generated on Fri Jan 27 09:14:24 2017 by SUMO netconvert Version dev-SVN-r22721
# Format matches Extraction version: V6.5 
# <?xml version="1.0" encoding="UTF-8"?>
# 
# <configuration xmlns:xsi="http://www.w3.org/2001/XMLSchema-instance" xsi:noNamespaceSchemaLocation="http://sumo.dlr.de/xsd/netconvertConfiguration.xsd">
# 
#     <input>
#         <dlr-navteq-prefix value="elmar"/>
#     </input>
# 
#     <output>
#         <dlr-navteq-output value="elmar_output"/>
#     </output>
# 
#     <projection>
#         <proj.scale value="5"/>
#         <proj.utm value="true"/>
#     </projection>
# 
#     <processing>
#         <no-internal-links value="true"/>
#         <numerical-ids value="true"/>
#     </processing>
# 
#     <report>
#         <xml-validation value="never"/>
#     </report>
# 
# </configuration>
# 
#
# NODE_ID	IS_BETWEEN_NODE	amount_of_geocoordinates	x1	y1	[x2 y2  ... xn  yn]
# [xmin_region] 1352236.31
# [xmax_region] 1352858.10
# [ymin_region] 5242777.79
# [ymax_region] 5242939.87
# [elements_multinode] 6
# [elements_normalnode] 11
# [xmin] 1352236.31
# [xmax] 1352858.10
# [ymin] 5242777.79
# [ymax] 5242939.87
572998531	0	1	1352852.00	5242921.00
61070104	0	1	1352401.00	5242856.00
61070105	0	1	1352387.00	5242934.00
61070136	0	1	1352672.00	5242889.00
618975398	0	1	1352859.00	5242913.00
618975401	0	1	1352677.00	5242880.00
618975402	0	1	1352403.00	5242848.00
659927395	0	1	1352235.00	5242839.00
659927397	0	1	1352234.00	5242847.00
878089062	0	1	1352413.00	5242780.00
878089063	0	1	1352681.00	5242795.00
-53519003	1	3	1352562.00	5242871.00	1352517.00	5242865.00	1352455.00	5242859.00
-77318512	1	1	1352828.00	5242916.00
-820948253	1	3	1352683.00	5242862.00	1352685.00	5242849.00	1352685.00	5242827.00
551731980	1	1	1352783.00	5242898.00
551731982	1	2	1352469.00	5242853.00	1352542.00	5242861.00
820948253	1	3	1352685.00	5242827.00	1352685.00	5242849.00	1352683.00	5242862.00
