<?xml version="1.0" encoding="UTF-8"?>

<!-- generated on 2023-02-08 14:57:05 by Eclipse SUMO netedit Version v1_16_0+0057-8e53bf7
<configuration xmlns:xsi="http://www.w3.org/2001/XMLSchema-instance" xsi:noNamespaceSchemaLocation="http://sumo.dlr.de/xsd/netconvertConfiguration.xsd">

    <input>
        <sumo-net-file value="/localdata2/debug/12581/net2.net.xml"/>
    </input>

    <output>
        <output-file value="/localdata2/debug/12581/net2.net.xml"/>
    </output>

    <processing>
        <geometry.min-radius.fix.railways value="false"/>
        <geometry.max-grade.fix value="false"/>
        <offset.disable-normalization value="true"/>
        <lefthand value="0"/>
    </processing>

    <junctions>
        <no-turnarounds value="true"/>
        <junctions.corner-detail value="5"/>
        <junctions.limit-turn-speed value="5.50"/>
        <rectangular-lane-cut value="0"/>
    </junctions>

    <pedestrian>
        <walkingareas value="0"/>
    </pedestrian>

</configuration>
-->

<net version="1.16" junctionCornerDetail="5" limitTurnSpeed="5.50" xmlns:xsi="http://www.w3.org/2001/XMLSchema-instance" xsi:noNamespaceSchemaLocation="http://sumo.dlr.de/xsd/net_file.xsd">

    <location netOffset="0.00,0.00" convBoundary="0.00,0.00,200.00,0.00" origBoundary="-10000000000.00,-10000000000.00,10000000000.00,10000000000.00" projParameter="!"/>

    <edge id=":J1_0" function="internal">
        <lane id=":J1_0_0" index="0" speed="13.89" length="40.04" shape="80.00,-4.80 120.00,-8.00"/>
        <lane id=":J1_0_1" index="1" speed="13.89" length="40.04" shape="80.00,-4.80 120.00,-4.80"/>
        <lane id=":J1_0_2" index="2" speed="13.89" length="40.04" shape="80.00,-1.60 120.00,-1.60"/>
    </edge>

    <edge id="E0" from="J0" to="J1" priority="-1">
        <lane id="E0_0" index="0" speed="13.89" length="80.00" shape="0.00,-4.80 80.00,-4.80"/>
        <lane id="E0_1" index="1" speed="13.89" length="80.00" shape="0.00,-1.60 80.00,-1.60"/>
    </edge>
    <edge id="E1" from="J1" to="J2" priority="-1">
        <lane id="E1_0" index="0" speed="13.89" length="80.00" shape="120.00,-8.00 200.00,-8.00"/>
        <lane id="E1_1" index="1" speed="13.89" length="80.00" shape="120.00,-4.80 200.00,-4.80"/>
        <lane id="E1_2" index="2" speed="13.89" length="80.00" shape="120.00,-1.60 200.00,-1.60"/>
    </edge>

    <junction id="J0" type="dead_end" x="0.00" y="0.00" incLanes="" intLanes="" shape="0.00,0.00 0.00,-6.40"/>
    <junction id="J1" type="priority" x="100.00" y="0.00" incLanes="E0_0 E0_1" intLanes=":J1_0_0 :J1_0_1 :J1_0_2" shape="120.00,0.00 120.00,-9.60 80.00,-6.40 80.00,0.00" radius="20.00">
        <request index="0" response="000" foes="000" cont="0"/>
        <request index="1" response="000" foes="000" cont="0"/>
        <request index="2" response="000" foes="000" cont="0"/>
    </junction>
    <junction id="J2" type="dead_end" x="200.00" y="0.00" incLanes="E1_0 E1_1 E1_2" intLanes="" shape="200.00,-9.60 200.00,0.00"/>

    <connection from="E0" to="E1" fromLane="0" toLane="0" via=":J1_0_0" dir="s" state="M"/>
    <connection from="E0" to="E1" fromLane="0" toLane="1" via=":J1_0_1" dir="s" state="M"/>
    <connection from="E0" to="E1" fromLane="1" toLane="2" via=":J1_0_2" dir="s" state="M"/>

    <connection from=":J1_0" to="E1" fromLane="0" toLane="0" dir="s" state="M"/>
    <connection from=":J1_0" to="E1" fromLane="1" toLane="1" dir="s" state="M"/>
    <connection from=":J1_0" to="E1" fromLane="2" toLane="2" dir="s" state="M"/>

</net>
