<routes xmlns:xsi="http://www.w3.org/2001/XMLSchema-instance" xsi:noNamespaceSchemaLocation="http://sumo.dlr.de/xsd/routes_file.xsd">
	<vType id="DEFAULT_VEHTYPE" sigma="0" vClass="passenger"/>

    <route id="r0" edges="beg1 beg2 middle end"/>
    <vehicle id="veh0" depart="0" route="r0"/>

</routes>
