<?xml version="1.0" encoding="UTF-8"?>

<!-- generated on 2022-10-17 08:23:38 by Eclipse SUMO netedit Version v1_14_1+1773-b11436548cc
-->

<routes xmlns:xsi="http://www.w3.org/2001/XMLSchema-instance" xsi:noNamespaceSchemaLocation="http://sumo.dlr.de/xsd/routes_file.xsd">
    <!-- Vehicles, persons and containers (sorted by depart) -->
    <container id="c_0" depart="0.00" color="139,131,120">
        <tranship from="gneE2" containerStop="containerStop" departPos="0.00"/>
    </container>
    <container id="c_1" depart="0.00" color="red">
        <tranship from="gneE2" containerStop="containerStop" departPos="0.00"/>
    </container>
</routes>
