<?xml version="1.0" encoding="UTF-8"?>

<!-- generated on Thu 14 Mar 2019 07:27:28 AM CET by Eclipse SUMO netedit Version v1_1_0+0435-678c69824b
<configuration xmlns:xsi="http://www.w3.org/2001/XMLSchema-instance" xsi:noNamespaceSchemaLocation="http://sumo.dlr.de/xsd/netconvertConfiguration.xsd">

    <input>
        <sumo-net-file value="net.net.xml"/>
    </input>

    <output>
        <output-file value="net.net.xml"/>
        <plain-output-prefix value="/home/kobo/dlr/debug/4378/input_plain"/>
    </output>

    <processing>
        <geometry.max-grade.fix value="false"/>
        <offset.disable-normalization value="true"/>
        <lefthand value="false"/>
    </processing>

    <junctions>
        <no-turnarounds value="true"/>
        <junctions.corner-detail value="5"/>
        <junctions.limit-turn-speed value="5.5"/>
        <rectangular-lane-cut value="false"/>
    </junctions>

    <pedestrian>
        <walkingareas value="false"/>
    </pedestrian>

</configuration>
-->

<edges version="1.1" xmlns:xsi="http://www.w3.org/2001/XMLSchema-instance" xsi:noNamespaceSchemaLocation="http://sumo.dlr.de/xsd/edges_file.xsd">
    <edge id="-gneE4" from="C2" to="S" priority="-1" numLanes="1" speed="13.89" allow="passenger"/>
    <edge id="-gneE5" from="C1" to="C2" priority="-1" numLanes="1" speed="13.89" allow="passenger"/>
    <edge id="-gneE6" from="N" to="C1" priority="-1" numLanes="1" speed="13.89" allow="passenger"/>
    <edge id="gneE0" from="W2" to="C2" priority="-1" numLanes="1" speed="27.78" spreadType="center" allow="rail"/>
    <edge id="gneE1" from="C2" to="E2" priority="-1" numLanes="1" speed="27.78" spreadType="center" allow="rail"/>
    <edge id="gneE2" from="W1" to="C1" priority="-1" numLanes="1" speed="27.78" spreadType="center" allow="rail"/>
    <edge id="gneE3" from="C1" to="E1" priority="-1" numLanes="1" speed="27.78" spreadType="center" allow="rail"/>
    <edge id="gneE4" from="S" to="C2" priority="-1" numLanes="1" speed="13.89" allow="passenger"/>
    <edge id="gneE5" from="C2" to="C1" priority="-1" numLanes="1" speed="13.89" allow="passenger"/>
    <edge id="gneE6" from="C1" to="N" priority="-1" numLanes="1" speed="13.89" allow="passenger"/>
</edges>
