<edges>
	<edge id="1" from="0" to="1" nolanes="3" speed="28."/>
</edges>
