<?xml version="1.0" encoding="UTF-8"?>

<!-- generated on 01.09.2020 16:02:34 by Eclipse SUMO netedit Version v1_6_0+1876-bc94b35301
<configuration xmlns:xsi="http://www.w3.org/2001/XMLSchema-instance" xsi:noNamespaceSchemaLocation="http://sumo.dlr.de/xsd/netconvertConfiguration.xsd">

    <input>
        <sumo-net-file value="C:\Users\alva_pa\.texttest\tmp\netedit.gui.2_from_01Sep153852.9776\netedit.gui\demandElements\stop\stopLane\create\expected\input_net.net.xml"/>
    </input>

    <output>
        <output-file value="C:\Users\alva_pa\.texttest\tmp\netedit.gui.2_from_01Sep153852.9776\netedit.gui\demandElements\stop\stopLane\create\expected\net.net.xml"/>
    </output>

    <processing>
        <geometry.min-radius.fix.railways value="false"/>
        <geometry.max-grade.fix value="false"/>
        <offset.disable-normalization value="true"/>
        <lefthand value="false"/>
    </processing>

    <junctions>
        <no-turnarounds value="true"/>
        <junctions.corner-detail value="5"/>
        <junctions.limit-turn-speed value="5.5"/>
        <rectangular-lane-cut value="false"/>
    </junctions>

    <pedestrian>
        <walkingareas value="false"/>
    </pedestrian>

    <netedit>
        <additional-files value="C:\Users\alva_pa\.texttest\tmp\netedit.gui.2_from_01Sep153852.9776\netedit.gui\demandElements\stop\stopLane\create\expected\additionals.xml"/>
        <additionals-output value="C:\Users\alva_pa\.texttest\tmp\netedit.gui.2_from_01Sep153852.9776\netedit.gui\demandElements\stop\stopLane\create\expected\additionals.xml"/>
        <route-files value="C:\Users\alva_pa\.texttest\tmp\netedit.gui.2_from_01Sep153852.9776\netedit.gui\demandElements\stop\stopLane\create\expected\routes.xml"/>
        <demandelements-output value="C:\Users\alva_pa\.texttest\tmp\netedit.gui.2_from_01Sep153852.9776\netedit.gui\demandElements\stop\stopLane\create\expected\routes.xml"/>
        <data-files value="C:\Users\alva_pa\.texttest\tmp\netedit.gui.2_from_01Sep153852.9776\netedit.gui\demandElements\stop\stopLane\create\expected\datas.xml"/>
        <dataelements-output value="C:\Users\alva_pa\.texttest\tmp\netedit.gui.2_from_01Sep153852.9776\netedit.gui\demandElements\stop\stopLane\create\expected\datas.xml"/>
    </netedit>

    <visualisation>
        <gui-settings-file value="C:\Users\alva_pa\.texttest\tmp\netedit.gui.2_from_01Sep153852.9776\netedit.gui\demandElements\stop\stopLane\create\expected\gui-settings.xml"/>
        <window-size value="700,500"/>
        <window-pos value="50,50"/>
        <gui-testing value="true"/>
        <gui-testing-debug value="true"/>
        <gui-testing-debug-gl value="true"/>
        <gui-testing.setting-output value="C:\Users\alva_pa\.texttest\tmp\netedit.gui.2_from_01Sep153852.9776\netedit.gui\demandElements\stop\stopLane\create\expected\guisettingsoutput.xml"/>
    </visualisation>

    <report>
        <no-warnings value="true"/>
        <aggregate-warnings value="5"/>
        <error-log value="C:\Users\alva_pa\.texttest\tmp\netedit.gui.2_from_01Sep153852.9776\netedit.gui\demandElements\stop\stopLane\create\expected\log.txt"/>
    </report>

</configuration>
-->

<routes xmlns:xsi="http://www.w3.org/2001/XMLSchema-instance" xsi:noNamespaceSchemaLocation="http://sumo.dlr.de/xsd/routes_file.xsd">
    <route edges="gneE0 gneE1" color="yellow" id="route_0"/>
    <flow id="routeFlow" begin="0.00" route="route_0" end="3600.00" number="1800">
        <stop lane="gneE1_0" startPos="12.00" endPos="22.00" duration="60.00" triggered="person"/>
        <stop lane="gneE1_0" startPos="12.00" endPos="22.00" duration="60.00" triggered="person" expected="ID1"/>
        <stop lane="gneE1_0" startPos="12.00" endPos="22.00" duration="60.00" triggered="person" expected="ID1 ID2 ID3"/>
    </flow>
</routes>
