<?xml version="1.0" encoding="UTF-8"?>

<!-- generated on 2024-11-29 08:49:49 by Eclipse SUMO netedit Version 1.21.0
-->

<additional xmlns:xsi="http://www.w3.org/2001/XMLSchema-instance" xsi:noNamespaceSchemaLocation="http://sumo.dlr.de/xsd/additional_file.xsd">
    <!-- StoppingPlaces -->
    <busStop id="bs_0" lane="E0_0" startPos="100.00" endPos="120.00"/>
    <busStop id="bs_1" lane="E0_0" startPos="140.00" endPos="160.00"/>
</additional>
