<?xml version="1.0" encoding="UTF-8"?>

<!-- generated on 2024-11-29 08:49:49 by Eclipse SUMO netedit Version 1.21.0
-->

<routes xmlns:xsi="http://www.w3.org/2001/XMLSchema-instance" xsi:noNamespaceSchemaLocation="http://sumo.dlr.de/xsd/routes_file.xsd">
    <!-- Vehicles, persons and containers (sorted by depart) -->
    <vType id="long" length="180"/>
    <route id="r0" edges="E1 E0"/>
    <vehicle id="blocker" type="long" depart="0" route="r0">
        <stop edge="E0" endPos="181" duration="400"/>
    </vehicle>
    <vehicle id="ego" depart="0" route="r0">
        <stop busStop="bs_0" duration="10"/>
    </vehicle>
</routes>
