<?xml version="1.0" encoding="UTF-8"?>

<!-- generated on 2024-09-02 10:05:06 by Eclipse SUMO netedit Version v1_20_0+1821-fef78581e33
<neteditConfiguration xmlns:xsi="http://www.w3.org/2001/XMLSchema-instance" xsi:noNamespaceSchemaLocation="http://sumo.dlr.de/xsd/neteditConfiguration.xsd">

    <input>
        <sumo-net-file value="D:\Netedit_dev\tests\netedit\network\junctions\merge\net.net.xml"/>
    </input>

    <processing>
        <geometry.min-radius.fix.railways value="false"/>
        <geometry.max-grade.fix value="false"/>
        <offset.disable-normalization value="true"/>
        <lefthand value="0"/>
    </processing>

    <junctions>
        <no-internal-links value="false"/>
        <no-turnarounds value="true"/>
        <junctions.corner-detail value="5"/>
        <junctions.limit-turn-speed value="5.50"/>
        <rectangular-lane-cut value="0"/>
    </junctions>

    <pedestrian>
        <walkingareas value="1"/>
    </pedestrian>

</neteditConfiguration>
-->

<tlLogics version="1.20" xmlns:xsi="http://www.w3.org/2001/XMLSchema-instance" xsi:noNamespaceSchemaLocation="http://sumo.dlr.de/xsd/tllogic_file.xsd">
    <tlLogic id="J0" type="static" programID="0" offset="0">
        <phase duration="37" state="GgrrgGrGr"/>
        <phase duration="5"  state="GgrrgGrrr"/>
        <phase duration="3"  state="yyrryyrrr"/>
        <phase duration="37" state="rrggrrGrG"/>
        <phase duration="5"  state="rrggrrrrr"/>
        <phase duration="3"  state="rryyrrrrr"/>
    </tlLogic>
    <tlLogic id="J4" type="static" programID="0" offset="0">
        <phase duration="37" state="grrG"/>
        <phase duration="5"  state="grrr"/>
        <phase duration="3"  state="yrrr"/>
        <phase duration="37" state="rgGr"/>
        <phase duration="5"  state="rgrr"/>
        <phase duration="3"  state="ryrr"/>
    </tlLogic>
    <tlLogic id="J5" type="static" programID="0" offset="0">
        <phase duration="37" state="grrG"/>
        <phase duration="5"  state="grrr"/>
        <phase duration="3"  state="yrrr"/>
        <phase duration="37" state="rgGr"/>
        <phase duration="5"  state="rgrr"/>
        <phase duration="3"  state="ryrr"/>
    </tlLogic>
    <tlLogic id="J6" type="static" programID="0" offset="0">
        <phase duration="37" state="grrG"/>
        <phase duration="5"  state="grrr"/>
        <phase duration="3"  state="yrrr"/>
        <phase duration="37" state="rgGr"/>
        <phase duration="5"  state="rgrr"/>
        <phase duration="3"  state="ryrr"/>
    </tlLogic>
    <tlLogic id="J7" type="static" programID="0" offset="0">
        <phase duration="37" state="grrG"/>
        <phase duration="5"  state="grrr"/>
        <phase duration="3"  state="yrrr"/>
        <phase duration="37" state="rgGr"/>
        <phase duration="5"  state="rgrr"/>
        <phase duration="3"  state="ryrr"/>
    </tlLogic>

    <connection from="-E0" to="E1" fromLane="1" toLane="1" tl="J0" linkIndex="0"/>
    <connection from="-E0" to="E2" fromLane="1" toLane="1" tl="J0" linkIndex="1"/>
    <connection from="-E1" to="E2" fromLane="1" toLane="1" tl="J0" linkIndex="4"/>
    <connection from="-E1" to="E0" fromLane="1" toLane="1" tl="J0" linkIndex="5"/>
    <connection from="-E2" to="E0" fromLane="1" toLane="1" tl="J0" linkIndex="2"/>
    <connection from="-E2" to="E1" fromLane="1" toLane="1" tl="J0" linkIndex="3"/>
    <connection from="-E3" to="-E6" fromLane="1" toLane="1" tl="J4" linkIndex="1"/>
    <connection from="-E4" to="-E3" fromLane="1" toLane="1" tl="J5" linkIndex="1"/>
    <connection from="-E5" to="-E4" fromLane="1" toLane="1" tl="J6" linkIndex="1"/>
    <connection from="-E6" to="-E5" fromLane="1" toLane="1" tl="J7" linkIndex="0"/>
    <connection from="E3" to="E4" fromLane="1" toLane="1" tl="J5" linkIndex="0"/>
    <connection from="E4" to="E5" fromLane="1" toLane="1" tl="J6" linkIndex="0"/>
    <connection from="E5" to="E6" fromLane="1" toLane="1" tl="J7" linkIndex="1"/>
    <connection from="E6" to="E3" fromLane="1" toLane="1" tl="J4" linkIndex="0"/>
</tlLogics>
