<?xml version="1.0" encoding="UTF-8"?>

<!-- generated on 18.06.2018 16:34:44 by Eclipse SUMO netedit Version b50f1d14b4
<configuration xmlns:xsi="http://www.w3.org/2001/XMLSchema-instance" xsi:noNamespaceSchemaLocation="http://sumo.dlr.de/xsd/netconvertConfiguration.xsd">

    <input>
        <sumo-additionals-file value="C:/Users/SUMO-Test/.texttest/tmp/netedit.gui.18Jun141137.3100/netedit.gui/selection/select_setoperators\input_additionals.add.xml"/>
        <sumo-shapes-file value="C:/Users/SUMO-Test/.texttest/tmp/netedit.gui.18Jun141137.3100/netedit.gui/selection/select_setoperators\input_shapes.add.xml"/>
        <sumo-net-file value="C:/Users/SUMO-Test/.texttest/tmp/netedit.gui.18Jun141137.3100/netedit.gui/selection/select_setoperators\input_net.net.xml"/>
    </input>

    <output>
        <additionals-output value="C:/Users/SUMO-Test/.texttest/tmp/netedit.gui.18Jun141137.3100/netedit.gui/selection/select_setoperators\additionals.xml"/>
        <shapes-output value="C:/Users/SUMO-Test/.texttest/tmp/netedit.gui.18Jun141137.3100/netedit.gui/selection/select_setoperators\shapes.xml"/>
        <output-file value="C:/Users/SUMO-Test/.texttest/tmp/netedit.gui.18Jun141137.3100/netedit.gui/selection/select_setoperators\net.net.xml"/>
    </output>

    <processing>
        <no-internal-links value="true"/>
        <no-turnarounds value="true"/>
        <offset.disable-normalization value="true"/>
        <lefthand value="false"/>
        <junctions.corner-detail value="0"/>
        <rectangular-lane-cut value="false"/>
        <walkingareas value="false"/>
    </processing>

    <visualisation>
        <gui-settings-file value="C:/Users/SUMO-Test/.texttest/tmp/netedit.gui.18Jun141137.3100/netedit.gui/selection/select_setoperators\gui-settings.xml"/>
        <window-size value="700,500"/>
        <window-pos value="50,50"/>
        <gui-testing value="true"/>
        <gui-testing-debug value="true"/>
    </visualisation>

    <report>
        <no-warnings value="true"/>
        <error-log value="C:/Users/SUMO-Test/.texttest/tmp/netedit.gui.18Jun141137.3100/netedit.gui/selection/select_setoperators\log.txt"/>
    </report>

</configuration>
-->

<additional xmlns:xsi="http://www.w3.org/2001/XMLSchema-instance" xsi:noNamespaceSchemaLocation="http://sumo.dlr.de/xsd/additional_file.xsd">
</additional>
