<routes xmlns:xsi="http://www.w3.org/2001/XMLSchema-instance" xsi:noNamespaceSchemaLocation="http://sumo.sf.net/xsd/routes_file.xsd">
   <vehicle id="0" depart="0" color="0,0,0">
       <!-- connections between beg and middle are missing -->
       <route edges="beg middle end rend"/>
   </vehicle>
</routes>
