<nodes>

<node id="0" x="0" y="0" type="traffic_light"/>
<node id="1" x="-1000" y="0" />
<node id="2" x="0" y="1000" />
<node id="3" x="1000" y="0" />
<node id="4" x="0" y="-1000" />
<node id="5" x="1050" y="0" />
<node id="6" x="0" y="-1050" />
<node id="7" x="-1050" y="0" />
<node id="8" x="0" y="1050" />

</nodes>