<?xml version="1.0" encoding="UTF-8"?>

<!-- generated on 2024-02-29 13:56:00 by Eclipse SUMO netconvert Version v1_19_0+1092-a49a04372af
This data file and the accompanying materials
are made available under the terms of the Eclipse Public License v2.0
which accompanies this distribution, and is available at
http://www.eclipse.org/legal/epl-v20.html
This file may also be made available under the following Secondary
Licenses when the conditions for such availability set forth in the Eclipse
Public License 2.0 are satisfied: GNU General Public License, version 2
or later which is available at
https://www.gnu.org/licenses/old-licenses/gpl-2.0-standalone.html
SPDX-License-Identifier: EPL-2.0 OR GPL-2.0-or-later
<configuration xmlns:xsi="http://www.w3.org/2001/XMLSchema-instance" xsi:noNamespaceSchemaLocation="http://sumo.dlr.de/xsd/netconvertConfiguration.xsd">

    <input>
        <node-files value="input_nodes.nod.xml"/>
        <edge-files value="input_edges.edg.xml"/>
    </input>

    <output>
        <write-license value="true"/>
        <output-file value="net.net.xml"/>
    </output>

    <processing>
        <offset.disable-normalization value="true"/>
    </processing>

    <report>
        <xml-validation value="never"/>
    </report>

</configuration>
-->

<net version="1.20" junctionCornerDetail="5" limitTurnSpeed="5.50" xmlns:xsi="http://www.w3.org/2001/XMLSchema-instance" xsi:noNamespaceSchemaLocation="http://sumo.dlr.de/xsd/net_file.xsd">

    <location netOffset="0.00,0.00" convBoundary="0.00,-8.48,100.00,10.00" origBoundary="0.00,-10.00,100.00,10.00" projParameter="!"/>

    <edge id=":1.50_0" function="internal">
        <lane id=":1.50_0_0" index="0" speed="28.00" length="8.00" shape="64.15,-3.03 71.73,-5.56"/>
    </edge>

    <edge id="1" from="0" to="1.50" priority="-1" spreadType="center" shape="20.00,10.00 67.43,-5.81">
        <lane id="1_0" index="0" speed="28.00" length="61.81" shape="4.49,13.48 63.13,-6.06"/>
        <lane id="1_1" index="1" speed="28.00" length="61.81" shape="5.51,16.52 64.15,-3.03"/>
    </edge>
    <edge id="1.50" from="1.50" to="1" priority="-1" spreadType="center" shape="67.94,-4.29 80.51,-8.48">
        <lane id="1.50_0" index="0" speed="28.00" length="25.06" shape="71.73,-5.56 95.51,-13.48"/>
    </edge>

    <junction id="0" type="dead_end" x="0.00" y="0.00" incLanes="" intLanes="" shape="6.01,18.04 3.99,11.96"/>
    <junction id="1" type="dead_end" x="100.00" y="0.00" incLanes="1.50_0" intLanes="" shape="95.00,-15.00 96.01,-11.96"/>
    <junction id="1.50" type="priority" x="67.43" y="-5.81" incLanes="1_0 1_1" intLanes=":1.50_0_0" shape="72.24,-4.04 71.23,-7.08 68.09,-6.90 65.77,-7.75 64.40,-7.92 62.63,-7.58 64.65,-1.51">
        <request index="0" response="0" foes="0" cont="0"/>
    </junction>

    <connection from="1" to="1.50" fromLane="1" toLane="0" via=":1.50_0_0" dir="s" state="M"/>

    <connection from=":1.50_0" to="1.50" fromLane="0" toLane="0" dir="s" state="M"/>

</net>
