<?xml version="1.0" encoding="UTF-8"?>
<edges version="1.6" xmlns:xsi="http://www.w3.org/2001/XMLSchema-instance" xsi:noNamespaceSchemaLocation="http://sumo.dlr.de/xsd/edgediff_file.xsd">
    <!-- Deleted Elements -->
    <delete id="-gneE0"/>
    <delete id="CE"/>
    <delete id="CS"/>
    <delete id="SC"/>
    <delete id="WC"/>
    <delete id="gneE0"/>
    <!-- Created Elements -->
    <!-- Changed Elements -->
</edges>
