<?xml version="1.0" encoding="UTF-8"?>

<!-- generated on 2022-02-11 08:56:33 by Eclipse SUMO netedit Version v1_12_0+0477-3b2e3ab6c51
-->

<additional xmlns:xsi="http://www.w3.org/2001/XMLSchema-instance" xsi:noNamespaceSchemaLocation="http://sumo.dlr.de/xsd/additional_file.xsd">
    <chargingStation id="chargingStationB" lane="gneE1_0" startPos="10.00" endPos="20.00"/>
</additional>
