<additional xmlns:xsi="http://www.w3.org/2001/XMLSchema-instance" xsi:noNamespaceSchemaLocation="http://sumo.dlr.de/xsd/additional_file.xsd">

    <!-- missing lines -->
    <trainStop id="trainStop_01" lane="EdgeCenter1_1" startPos="25" endPos="35"/>

    <!-- non valid format lines -->
    <trainStop id="trainStop_02" lane="EdgeCenter1_1" startPos="25" endPos="35" lines="line1, line2"/>

    <!-- valid format lines -->
    <trainStop id="trainStop_03" lane="EdgeCenter1_1" startPos="25" endPos="35" lines="lineA lineB"/>

</additional>
