<?xml version="1.0" encoding="UTF-8"?>

<!-- generated on 2024-09-27 17:09:44 by Eclipse SUMO netedit Version v1_20_0+2175-71f58796189
<neteditConfiguration xmlns:xsi="http://www.w3.org/2001/XMLSchema-instance" xsi:noNamespaceSchemaLocation="http://sumo.dlr.de/xsd/neteditConfiguration.xsd">

    <input>
        <sumo-net-file value="net.net.xml"/>
    </input>

    <output>
        <output-file value="net.net.xml"/>
        <output.street-names value="true"/>
    </output>

    <processing>
        <geometry.min-radius.fix.railways value="false"/>
        <geometry.max-grade.fix value="false"/>
        <offset.disable-normalization value="true"/>
        <lefthand value="0"/>
    </processing>

    <junctions>
        <no-turnarounds value="true"/>
        <junctions.corner-detail value="5"/>
        <junctions.limit-turn-speed value="5.50"/>
        <rectangular-lane-cut value="0"/>
    </junctions>

    <pedestrian>
        <walkingareas value="0"/>
    </pedestrian>

</neteditConfiguration>
-->

<net version="1.20" junctionCornerDetail="5" limitTurnSpeed="5.50" xmlns:xsi="http://www.w3.org/2001/XMLSchema-instance" xsi:noNamespaceSchemaLocation="http://sumo.dlr.de/xsd/net_file.xsd">

    <location netOffset="0.00,0.00" convBoundary="0.00,0.00,1300.00,100.00" origBoundary="-10000000000.00,-10000000000.00,10000000000.00,10000000000.00" projParameter="!"/>

    <edge id=":A_0" function="internal" bidi=":A_1">
        <lane id=":A_0_0" index="0" allow="rail" speed="13.89" length="0.10" shape="100.00,0.00 100.00,0.00"/>
    </edge>
    <edge id=":A_1" function="internal" bidi=":A_0">
        <lane id=":A_1_0" index="0" allow="rail" speed="13.89" length="0.10" shape="100.00,0.00 100.00,0.00"/>
    </edge>
    <edge id=":B_0" function="internal" bidi=":B_3">
        <lane id=":B_0_0" index="0" allow="rail" speed="13.89" length="7.19" shape="203.79,3.79 202.00,2.13 200.41,0.95 199.02,0.24 197.84,0.00"/>
    </edge>
    <edge id=":B_1" function="internal" bidi=":B_2">
        <lane id=":B_1_0" index="0" allow="rail" speed="13.89" length="7.53" shape="205.36,0.00 197.84,0.00"/>
    </edge>
    <edge id=":B_2" function="internal" bidi=":B_1">
        <lane id=":B_2_0" index="0" allow="rail" speed="13.89" length="7.53" shape="197.84,0.00 205.36,0.00"/>
    </edge>
    <edge id=":B_3" function="internal" bidi=":B_0">
        <lane id=":B_3_0" index="0" allow="rail" speed="13.89" length="7.19" shape="197.84,0.00 199.02,0.24 200.41,0.95 202.00,2.13 203.79,3.79"/>
    </edge>
    <edge id=":C_0" function="internal" bidi=":C_1">
        <lane id=":C_0_0" index="0" allow="rail" speed="13.89" length="0.10" shape="300.00,0.00 300.00,0.00"/>
    </edge>
    <edge id=":C_1" function="internal" bidi=":C_0">
        <lane id=":C_1_0" index="0" allow="rail" speed="13.89" length="0.10" shape="300.00,0.00 300.00,0.00"/>
    </edge>
    <edge id=":C2_0" function="internal" bidi=":C2_1">
        <lane id=":C2_0_0" index="0" allow="rail" speed="6.63" length="1.26" shape="300.66,100.00 300.34,99.97 300.05,99.88 299.78,99.74 299.53,99.53"/>
    </edge>
    <edge id=":C2_1" function="internal" bidi=":C2_0">
        <lane id=":C2_1_0" index="0" allow="rail" speed="6.63" length="1.26" shape="299.53,99.53 299.78,99.74 300.05,99.88 300.34,99.97 300.66,100.00"/>
    </edge>
    <edge id=":D_0" function="internal" bidi=":D_1">
        <lane id=":D_0_0" index="0" allow="rail" speed="13.89" length="0.10" shape="400.00,0.00 400.00,0.00"/>
    </edge>
    <edge id=":D_1" function="internal" bidi=":D_0">
        <lane id=":D_1_0" index="0" allow="rail" speed="13.89" length="0.10" shape="400.00,0.00 400.00,0.00"/>
    </edge>
    <edge id=":D2_0" function="internal" bidi=":D2_3">
        <lane id=":D2_0_0" index="0" allow="rail" speed="13.89" length="10.73" shape="408.89,100.00 398.15,100.00"/>
    </edge>
    <edge id=":D2_1" function="internal" bidi=":D2_2">
        <lane id=":D2_1_0" index="0" allow="rail" speed="13.89" length="10.75" shape="408.09,96.32 405.32,97.77 403.29,98.94 401.18,99.72 398.15,100.00"/>
    </edge>
    <edge id=":D2_2" function="internal" bidi=":D2_1">
        <lane id=":D2_2_0" index="0" allow="rail" speed="13.89" length="10.75" shape="398.15,100.00 401.18,99.72 403.29,98.94 405.32,97.77 408.09,96.32"/>
    </edge>
    <edge id=":D2_3" function="internal" bidi=":D2_0">
        <lane id=":D2_3_0" index="0" allow="rail" speed="13.89" length="10.73" shape="398.15,100.00 408.89,100.00"/>
    </edge>
    <edge id=":E_0" function="internal" bidi=":E_3">
        <lane id=":E_0_0" index="0" allow="rail" speed="13.89" length="8.66" shape="505.52,3.77 503.47,2.18 502.04,1.00 500.46,0.26 498.01,0.00"/>
    </edge>
    <edge id=":E_1" function="internal" bidi=":E_2">
        <lane id=":E_1_0" index="0" allow="rail" speed="13.89" length="8.68" shape="506.68,0.00 498.01,0.00"/>
    </edge>
    <edge id=":E_2" function="internal" bidi=":E_1">
        <lane id=":E_2_0" index="0" allow="rail" speed="13.89" length="8.68" shape="498.01,0.00 506.68,0.00"/>
    </edge>
    <edge id=":E_3" function="internal" bidi=":E_0">
        <lane id=":E_3_0" index="0" allow="rail" speed="13.89" length="8.66" shape="498.01,0.00 500.46,0.26 502.04,1.00 503.47,2.18 505.52,3.77"/>
    </edge>
    <edge id=":E2_0" function="internal" bidi=":E2_1">
        <lane id=":E2_0_0" index="0" allow="rail" speed="6.63" length="1.26" shape="500.47,99.53 500.22,99.74 499.95,99.88 499.66,99.97 499.34,100.00"/>
    </edge>
    <edge id=":E2_1" function="internal" bidi=":E2_0">
        <lane id=":E2_1_0" index="0" allow="rail" speed="6.63" length="1.26" shape="499.34,100.00 499.66,99.97 499.95,99.88 500.22,99.74 500.47,99.53"/>
    </edge>
    <edge id=":F_0" function="internal" bidi=":F_3">
        <lane id=":F_0_0" index="0" allow="rail" speed="13.89" length="7.19" shape="602.16,0.00 600.98,0.24 599.59,0.95 598.00,2.13 596.21,3.79"/>
    </edge>
    <edge id=":F_1" function="internal" bidi=":F_2">
        <lane id=":F_1_0" index="0" allow="rail" speed="13.89" length="7.53" shape="602.16,0.00 594.64,0.00"/>
    </edge>
    <edge id=":F_2" function="internal" bidi=":F_1">
        <lane id=":F_2_0" index="0" allow="rail" speed="13.89" length="7.53" shape="594.64,0.00 602.16,0.00"/>
    </edge>
    <edge id=":F_3" function="internal" bidi=":F_0">
        <lane id=":F_3_0" index="0" allow="rail" speed="13.89" length="7.19" shape="596.21,3.79 598.00,2.13 599.59,0.95 600.98,0.24 602.16,0.00"/>
    </edge>
    <edge id=":G_0" function="internal" bidi=":G_1">
        <lane id=":G_0_0" index="0" allow="rail" speed="13.89" length="0.10" shape="700.00,0.00 700.00,0.00"/>
    </edge>
    <edge id=":G_1" function="internal" bidi=":G_0">
        <lane id=":G_1_0" index="0" allow="rail" speed="13.89" length="0.10" shape="700.00,0.00 700.00,0.00"/>
    </edge>
    <edge id=":H_0" function="internal" bidi=":H_3">
        <lane id=":H_0_0" index="0" allow="rail" speed="13.89" length="7.40" shape="803.79,3.79 802.30,2.15 801.20,0.96 799.91,0.24 797.84,0.00"/>
    </edge>
    <edge id=":H_1" function="internal" bidi=":H_2">
        <lane id=":H_1_0" index="0" allow="rail" speed="13.89" length="7.53" shape="805.36,0.00 797.84,0.00"/>
    </edge>
    <edge id=":H_2" function="internal" bidi=":H_1">
        <lane id=":H_2_0" index="0" allow="rail" speed="13.89" length="7.53" shape="797.84,0.00 805.36,0.00"/>
    </edge>
    <edge id=":H_3" function="internal" bidi=":H_0">
        <lane id=":H_3_0" index="0" allow="rail" speed="13.89" length="7.40" shape="797.84,0.00 799.91,0.24 801.20,0.96 802.30,2.15 803.79,3.79"/>
    </edge>
    <edge id=":I_0" function="internal" bidi=":I_1">
        <lane id=":I_0_0" index="0" allow="rail" speed="13.89" length="0.10" shape="900.00,0.00 900.00,0.00"/>
    </edge>
    <edge id=":I_1" function="internal" bidi=":I_0">
        <lane id=":I_1_0" index="0" allow="rail" speed="13.89" length="0.10" shape="900.00,0.00 900.00,0.00"/>
    </edge>
    <edge id=":I2_0" function="internal" bidi=":I2_1">
        <lane id=":I2_0_0" index="0" allow="rail" speed="6.56" length="1.25" shape="900.66,100.00 899.53,99.53"/>
    </edge>
    <edge id=":I2_1" function="internal" bidi=":I2_0">
        <lane id=":I2_1_0" index="0" allow="rail" speed="6.69" length="1.25" shape="899.53,99.53 899.80,99.79 900.03,99.93 900.29,99.99 900.66,100.00"/>
    </edge>
    <edge id=":J_0" function="internal" bidi=":J_1">
        <lane id=":J_0_0" index="0" allow="rail" speed="13.89" length="0.10" shape="1000.00,0.00 1000.00,0.00"/>
    </edge>
    <edge id=":J_1" function="internal" bidi=":J_0">
        <lane id=":J_1_0" index="0" allow="rail" speed="13.89" length="0.10" shape="1000.00,0.00 1000.00,0.00"/>
    </edge>
    <edge id=":J2_0" function="internal" bidi=":J2_1">
        <lane id=":J2_0_0" index="0" allow="rail" speed="6.63" length="1.26" shape="1000.47,99.53 1000.22,99.74 999.95,99.88 999.66,99.97 999.34,100.00"/>
    </edge>
    <edge id=":J2_1" function="internal" bidi=":J2_0">
        <lane id=":J2_1_0" index="0" allow="rail" speed="6.63" length="1.26" shape="999.34,100.00 999.66,99.97 999.95,99.88 1000.22,99.74 1000.47,99.53"/>
    </edge>
    <edge id=":K_0" function="internal" bidi=":K_3">
        <lane id=":K_0_0" index="0" allow="rail" speed="13.89" length="7.19" shape="1102.16,0.00 1100.98,0.24 1099.59,0.95 1098.00,2.13 1096.21,3.79"/>
    </edge>
    <edge id=":K_1" function="internal" bidi=":K_2">
        <lane id=":K_1_0" index="0" allow="rail" speed="13.89" length="7.53" shape="1102.16,0.00 1094.64,0.00"/>
    </edge>
    <edge id=":K_2" function="internal" bidi=":K_1">
        <lane id=":K_2_0" index="0" allow="rail" speed="13.89" length="7.53" shape="1094.64,0.00 1102.16,0.00"/>
    </edge>
    <edge id=":K_3" function="internal" bidi=":K_0">
        <lane id=":K_3_0" index="0" allow="rail" speed="13.89" length="7.19" shape="1096.21,3.79 1098.00,2.13 1099.59,0.95 1100.98,0.24 1102.16,0.00"/>
    </edge>
    <edge id=":L_0" function="internal" bidi=":L_1">
        <lane id=":L_0_0" index="0" allow="rail" speed="13.89" length="0.10" shape="1200.00,0.00 1200.00,0.00"/>
    </edge>
    <edge id=":L_1" function="internal" bidi=":L_0">
        <lane id=":L_1_0" index="0" allow="rail" speed="13.89" length="0.10" shape="1200.00,0.00 1200.00,0.00"/>
    </edge>

    <edge id="-E11" from="E" to="D2" priority="-1" spreadType="center" shape="500.00,0.00 521.11,14.41 527.16,41.54 493.42,74.28 441.64,81.07 400.00,100.00" bidi="E11">
        <lane id="-E11_0" index="0" allow="rail" speed="13.89" length="182.77" shape="505.52,3.77 521.11,14.41 527.16,41.54 493.42,74.28 441.64,81.07 408.09,96.32"/>
    </edge>
    <edge id="-a" from="A" to="J0" priority="-1" spreadType="center" bidi="a">
        <lane id="-a_0" index="0" allow="rail" speed="13.89" length="100.00" shape="100.00,0.00 0.00,0.00"/>
    </edge>
    <edge id="-b" from="B" to="A" priority="-1" spreadType="center" bidi="b">
        <lane id="-b_0" index="0" allow="rail" speed="13.89" length="97.84" shape="197.84,0.00 100.00,0.00"/>
    </edge>
    <edge id="-c" from="C" to="B" priority="-1" spreadType="center" bidi="c">
        <lane id="-c_0" index="0" allow="rail" speed="13.89" length="94.64" shape="300.00,0.00 205.36,0.00"/>
    </edge>
    <edge id="-c2" from="C2" to="B" priority="-1" spreadType="center" bidi="c2">
        <lane id="-c2_0" index="0" allow="rail" speed="13.89" length="135.40" shape="299.53,99.53 203.79,3.79"/>
    </edge>
    <edge id="-d" from="D" to="C" priority="-1" spreadType="center" bidi="d">
        <lane id="-d_0" index="0" allow="rail" speed="13.89" length="100.00" shape="400.00,0.00 300.00,0.00"/>
    </edge>
    <edge id="-d2" from="D2" to="C2" priority="-1" spreadType="center" bidi="d2">
        <lane id="-d2_0" index="0" allow="rail" speed="13.89" length="97.49" shape="398.15,100.00 300.66,100.00"/>
    </edge>
    <edge id="-e" from="E" to="D" priority="-1" spreadType="center" bidi="e">
        <lane id="-e_0" index="0" allow="rail" speed="13.89" length="98.01" shape="498.01,0.00 400.00,0.00"/>
    </edge>
    <edge id="-e2" from="E2" to="D2" priority="-1" spreadType="center" bidi="e2">
        <lane id="-e2_0" index="0" allow="rail" speed="13.89" length="90.45" shape="499.34,100.00 408.89,100.00"/>
    </edge>
    <edge id="-f" from="F" to="E" priority="-1" spreadType="center" bidi="f">
        <lane id="-f_0" index="0" allow="rail" speed="13.89" length="87.96" shape="594.64,0.00 506.68,0.00"/>
    </edge>
    <edge id="-f2" from="F" to="E2" priority="-1" spreadType="center" bidi="f2">
        <lane id="-f2_0" index="0" allow="rail" speed="13.89" length="135.40" shape="596.21,3.79 500.47,99.53"/>
    </edge>
    <edge id="-g" from="G" to="F" priority="-1" spreadType="center" bidi="g">
        <lane id="-g_0" index="0" allow="rail" speed="13.89" length="97.84" shape="700.00,0.00 602.16,0.00"/>
    </edge>
    <edge id="-h" from="H" to="G" priority="-1" spreadType="center" bidi="h">
        <lane id="-h_0" index="0" allow="rail" speed="13.89" length="97.84" shape="797.84,0.00 700.00,0.00"/>
    </edge>
    <edge id="-i" from="I" to="H" priority="-1" spreadType="center" bidi="i">
        <lane id="-i_0" index="0" allow="rail" speed="13.89" length="94.64" shape="900.00,0.00 805.36,0.00"/>
    </edge>
    <edge id="-i2" from="I2" to="H" priority="-1" spreadType="center" bidi="i2">
        <lane id="-i2_0" index="0" allow="rail" speed="13.89" length="135.40" shape="899.53,99.53 803.79,3.79"/>
    </edge>
    <edge id="-j" from="J" to="I" priority="-1" spreadType="center" bidi="j">
        <lane id="-j_0" index="0" allow="rail" speed="13.89" length="100.00" shape="1000.00,0.00 900.00,0.00"/>
    </edge>
    <edge id="-j2" from="J2" to="I2" priority="-1" spreadType="center" bidi="j2">
        <lane id="-j2_0" index="0" allow="rail" speed="13.89" length="98.67" shape="999.34,100.00 900.66,100.00"/>
    </edge>
    <edge id="-k" from="K" to="J" priority="-1" spreadType="center" bidi="k">
        <lane id="-k_0" index="0" allow="rail" speed="13.89" length="94.64" shape="1094.64,0.00 1000.00,0.00"/>
    </edge>
    <edge id="-k2" from="K" to="J2" priority="-1" spreadType="center" bidi="k2">
        <lane id="-k2_0" index="0" allow="rail" speed="13.89" length="135.40" shape="1096.21,3.79 1000.47,99.53"/>
    </edge>
    <edge id="-l" from="L" to="K" priority="-1" spreadType="center" bidi="l">
        <lane id="-l_0" index="0" allow="rail" speed="13.89" length="97.84" shape="1200.00,0.00 1102.16,0.00"/>
    </edge>
    <edge id="-m" from="M" to="L" priority="-1" spreadType="center" bidi="m">
        <lane id="-m_0" index="0" allow="rail" speed="13.89" length="100.00" shape="1300.00,0.00 1200.00,0.00"/>
    </edge>
    <edge id="E11" from="D2" to="E" priority="-1" spreadType="center" shape="400.00,100.00 441.64,81.07 493.42,74.28 527.16,41.54 521.11,14.41 500.00,0.00" bidi="-E11">
        <lane id="E11_0" index="0" allow="rail" speed="13.89" length="182.77" shape="408.09,96.32 441.64,81.07 493.42,74.28 527.16,41.54 521.11,14.41 505.52,3.77"/>
    </edge>
    <edge id="a" from="J0" to="A" priority="-1" spreadType="center" bidi="-a">
        <lane id="a_0" index="0" allow="rail" speed="13.89" length="100.00" shape="0.00,0.00 100.00,0.00"/>
    </edge>
    <edge id="b" from="A" to="B" priority="-1" spreadType="center" bidi="-b">
        <lane id="b_0" index="0" allow="rail" speed="13.89" length="97.84" shape="100.00,0.00 197.84,0.00"/>
    </edge>
    <edge id="c" from="B" to="C" priority="-1" spreadType="center" bidi="-c">
        <lane id="c_0" index="0" allow="rail" speed="13.89" length="94.64" shape="205.36,0.00 300.00,0.00"/>
    </edge>
    <edge id="c2" from="B" to="C2" priority="-1" spreadType="center" bidi="-c2">
        <lane id="c2_0" index="0" allow="rail" speed="13.89" length="135.40" shape="203.79,3.79 299.53,99.53"/>
    </edge>
    <edge id="d" from="C" to="D" priority="-1" spreadType="center" bidi="-d">
        <lane id="d_0" index="0" allow="rail" speed="13.89" length="100.00" shape="300.00,0.00 400.00,0.00"/>
    </edge>
    <edge id="d2" from="C2" to="D2" priority="-1" spreadType="center" bidi="-d2">
        <lane id="d2_0" index="0" allow="rail" speed="13.89" length="97.49" shape="300.66,100.00 398.15,100.00"/>
    </edge>
    <edge id="e" from="D" to="E" priority="-1" spreadType="center" bidi="-e">
        <lane id="e_0" index="0" allow="rail" speed="13.89" length="98.01" shape="400.00,0.00 498.01,0.00"/>
    </edge>
    <edge id="e2" from="D2" to="E2" priority="-1" spreadType="center" bidi="-e2">
        <lane id="e2_0" index="0" allow="rail" speed="13.89" length="90.45" shape="408.89,100.00 499.34,100.00"/>
    </edge>
    <edge id="f" from="E" to="F" priority="-1" spreadType="center" bidi="-f">
        <lane id="f_0" index="0" allow="rail" speed="13.89" length="87.96" shape="506.68,0.00 594.64,0.00"/>
    </edge>
    <edge id="f2" from="E2" to="F" priority="-1" spreadType="center" bidi="-f2">
        <lane id="f2_0" index="0" allow="rail" speed="13.89" length="135.40" shape="500.47,99.53 596.21,3.79"/>
    </edge>
    <edge id="g" from="F" to="G" priority="-1" spreadType="center" bidi="-g">
        <lane id="g_0" index="0" allow="rail" speed="13.89" length="97.84" shape="602.16,0.00 700.00,0.00"/>
    </edge>
    <edge id="h" from="G" to="H" priority="-1" spreadType="center" bidi="-h">
        <lane id="h_0" index="0" allow="rail" speed="13.89" length="97.84" shape="700.00,0.00 797.84,0.00"/>
    </edge>
    <edge id="i" from="H" to="I" priority="-1" spreadType="center" bidi="-i">
        <lane id="i_0" index="0" allow="rail" speed="13.89" length="94.64" shape="805.36,0.00 900.00,0.00"/>
    </edge>
    <edge id="i2" from="H" to="I2" priority="-1" spreadType="center" bidi="-i2">
        <lane id="i2_0" index="0" allow="rail" speed="13.89" length="135.40" shape="803.79,3.79 899.53,99.53"/>
    </edge>
    <edge id="j" from="I" to="J" priority="-1" spreadType="center" bidi="-j">
        <lane id="j_0" index="0" allow="rail" speed="13.89" length="100.00" shape="900.00,0.00 1000.00,0.00"/>
    </edge>
    <edge id="j2" from="I2" to="J2" priority="-1" spreadType="center" bidi="-j2">
        <lane id="j2_0" index="0" allow="rail" speed="13.89" length="98.67" shape="900.66,100.00 999.34,100.00"/>
    </edge>
    <edge id="k" from="J" to="K" priority="-1" spreadType="center" bidi="-k">
        <lane id="k_0" index="0" allow="rail" speed="13.89" length="94.64" shape="1000.00,0.00 1094.64,0.00"/>
    </edge>
    <edge id="k2" from="J2" to="K" priority="-1" spreadType="center" bidi="-k2">
        <lane id="k2_0" index="0" allow="rail" speed="13.89" length="135.40" shape="1000.47,99.53 1096.21,3.79"/>
    </edge>
    <edge id="l" from="K" to="L" priority="-1" spreadType="center" bidi="-l">
        <lane id="l_0" index="0" allow="rail" speed="13.89" length="97.84" shape="1102.16,0.00 1200.00,0.00"/>
    </edge>
    <edge id="m" from="L" to="M" priority="-1" spreadType="center" bidi="-m">
        <lane id="m_0" index="0" allow="rail" speed="13.89" length="100.00" shape="1200.00,0.00 1300.00,0.00"/>
    </edge>

    <junction id="A" type="rail_signal" x="100.00" y="0.00" incLanes="-b_0 a_0" intLanes=":A_0_0 :A_1_0" shape="100.00,1.60 100.00,-1.60 100.00,1.60">
        <request index="0" response="00" foes="00" cont="0"/>
        <request index="1" response="00" foes="00" cont="0"/>
    </junction>
    <junction id="B" type="priority" x="200.00" y="0.00" incLanes="-c2_0 -c_0 b_0" intLanes=":B_0_0 :B_1_0 :B_2_0 :B_3_0" shape="202.66,4.92 204.92,2.66 204.50,2.07 204.50,1.87 204.65,1.72 204.93,1.63 205.36,1.60 205.36,-1.60 197.84,-1.60 197.84,1.60 199.93,2.00 200.57,2.49 201.14,3.14 201.79,3.96">
        <request index="0" response="0010" foes="0010" cont="0"/>
        <request index="1" response="0000" foes="1001" cont="0"/>
        <request index="2" response="0000" foes="0000" cont="0"/>
        <request index="3" response="0010" foes="0010" cont="0"/>
    </junction>
    <junction id="C" type="priority" x="300.00" y="0.00" incLanes="-d_0 c_0" intLanes=":C_0_0 :C_1_0" shape="300.00,1.60 300.00,-1.60 300.00,1.60">
        <request index="0" response="00" foes="00" cont="0"/>
        <request index="1" response="00" foes="00" cont="0"/>
    </junction>
    <junction id="C2" type="rail_signal" x="300.00" y="100.00" incLanes="-d2_0 c2_0" intLanes=":C2_0_0 :C2_1_0" shape="300.66,101.60 300.66,98.40 298.40,100.66 299.10,101.29 299.40,101.46 299.72,101.55 300.13,101.59">
        <request index="0" response="00" foes="00" cont="0"/>
        <request index="1" response="00" foes="00" cont="0"/>
    </junction>
    <junction id="D" type="rail_signal" x="400.00" y="0.00" incLanes="-e_0 d_0" intLanes=":D_0_0 :D_1_0" shape="400.00,1.60 400.00,-1.60 400.00,1.60">
        <request index="0" response="00" foes="00" cont="0"/>
        <request index="1" response="00" foes="00" cont="0"/>
    </junction>
    <junction id="D2" type="priority" x="400.00" y="100.00" incLanes="-e2_0 -E11_0 d2_0" intLanes=":D2_0_0 :D2_1_0 :D2_2_0 :D2_3_0" shape="408.89,101.60 408.89,98.40 408.75,97.78 407.43,94.87 405.52,95.84 402.96,97.40 401.76,97.94 400.25,98.28 398.15,98.40 398.15,101.60">
        <request index="0" response="0000" foes="0010" cont="0"/>
        <request index="1" response="1001" foes="1001" cont="0"/>
        <request index="2" response="0000" foes="0000" cont="0"/>
        <request index="3" response="0000" foes="0010" cont="0"/>
    </junction>
    <junction id="E" type="priority" x="500.00" y="0.00" incLanes="E11_0 -f_0 e_0" intLanes=":E_0_0 :E_1_0 :E_2_0 :E_3_0" shape="504.62,5.09 506.42,2.45 505.90,1.98 505.87,1.81 505.99,1.69 506.26,1.62 506.68,1.60 506.68,-1.60 498.01,-1.60 498.01,1.60 500.69,2.04 501.56,2.55 502.36,3.25 503.31,4.10">
        <request index="0" response="0010" foes="0010" cont="0"/>
        <request index="1" response="0000" foes="1001" cont="0"/>
        <request index="2" response="0000" foes="0000" cont="0"/>
        <request index="3" response="0010" foes="0010" cont="0"/>
    </junction>
    <junction id="E2" type="priority" x="500.00" y="100.00" incLanes="-f2_0 e2_0" intLanes=":E2_0_0 :E2_1_0" shape="501.60,100.66 499.34,98.40 499.34,101.60 500.28,101.55 500.60,101.46 500.90,101.29 501.22,101.03">
        <request index="0" response="00" foes="00" cont="0"/>
        <request index="1" response="00" foes="00" cont="0"/>
    </junction>
    <junction id="F" type="priority" x="600.00" y="0.00" incLanes="-g_0 f_0 f2_0" intLanes=":F_0_0 :F_1_0 :F_2_0 :F_3_0" shape="602.16,1.60 602.16,-1.60 594.64,-1.60 594.64,1.60 595.35,1.72 595.50,1.87 595.50,2.07 595.36,2.34 595.08,2.66 597.34,4.92 598.86,3.14 599.43,2.49 600.07,2.00 600.93,1.70">
        <request index="0" response="0000" foes="0000" cont="0"/>
        <request index="1" response="0000" foes="1000" cont="0"/>
        <request index="2" response="0000" foes="1000" cont="0"/>
        <request index="3" response="0110" foes="0110" cont="0"/>
    </junction>
    <junction id="G" type="priority" x="700.00" y="0.00" incLanes="-h_0 g_0" intLanes=":G_0_0 :G_1_0" shape="700.00,1.60 700.00,-1.60 700.00,1.60">
        <request index="0" response="00" foes="00" cont="0"/>
        <request index="1" response="00" foes="00" cont="0"/>
    </junction>
    <junction id="H" type="priority" x="800.00" y="0.00" incLanes="-i2_0 -i_0 h_0" intLanes=":H_0_0 :H_1_0 :H_2_0 :H_3_0" shape="802.66,4.92 804.92,2.66 804.50,2.07 804.50,1.87 804.65,1.72 804.93,1.63 805.36,1.60 805.36,-1.60 797.84,-1.60 797.84,1.60 799.04,1.97 799.79,2.43 800.65,3.08 801.60,3.91">
        <request index="0" response="0010" foes="0010" cont="0"/>
        <request index="1" response="0000" foes="1001" cont="0"/>
        <request index="2" response="0000" foes="0000" cont="0"/>
        <request index="3" response="0010" foes="0010" cont="0"/>
    </junction>
    <junction id="I" type="priority" x="900.00" y="0.00" incLanes="-j_0 i_0" intLanes=":I_0_0 :I_1_0" shape="900.00,1.60 900.00,-1.60 900.00,1.60">
        <request index="0" response="00" foes="00" cont="0"/>
        <request index="1" response="00" foes="00" cont="0"/>
    </junction>
    <junction id="I2" type="rail_signal" x="900.00" y="100.00" incLanes="-j2_0 i2_0" intLanes=":I2_0_0 :I2_1_0" shape="900.66,101.60 900.66,98.40 898.40,100.66 899.07,101.18 899.43,101.37 899.82,101.50 900.23,101.57">
        <request index="0" response="00" foes="00" cont="0"/>
        <request index="1" response="00" foes="00" cont="0"/>
    </junction>
    <junction id="J" type="rail_signal" x="1000.00" y="0.00" incLanes="-k_0 j_0" intLanes=":J_0_0 :J_1_0" shape="1000.00,1.60 1000.00,-1.60 1000.00,1.60">
        <request index="0" response="00" foes="00" cont="0"/>
        <request index="1" response="00" foes="00" cont="0"/>
    </junction>
    <junction id="J0" type="dead_end" x="0.00" y="0.00" incLanes="-a_0" intLanes="" shape="0.00,1.60 0.00,-1.60 0.00,1.60 0.00,-1.60"/>
    <junction id="J2" type="priority" x="1000.00" y="100.00" incLanes="-k2_0 j2_0" intLanes=":J2_0_0 :J2_1_0" shape="1001.60,100.66 999.34,98.40 999.34,101.60 1000.18,101.50 1000.57,101.37 1000.93,101.18 1001.28,100.95">
        <request index="0" response="00" foes="00" cont="0"/>
        <request index="1" response="00" foes="00" cont="0"/>
    </junction>
    <junction id="K" type="priority" x="1100.00" y="0.00" incLanes="-l_0 k_0 k2_0" intLanes=":K_0_0 :K_1_0 :K_2_0 :K_3_0" shape="1102.16,1.60 1102.16,-1.60 1094.64,-1.60 1094.64,1.60 1095.35,1.72 1095.50,1.87 1095.50,2.07 1095.36,2.34 1095.08,2.66 1097.34,4.92 1099.35,3.08 1100.21,2.43 1100.96,1.97 1101.61,1.69">
        <request index="0" response="0000" foes="0000" cont="0"/>
        <request index="1" response="0000" foes="1000" cont="0"/>
        <request index="2" response="0000" foes="1000" cont="0"/>
        <request index="3" response="0110" foes="0110" cont="0"/>
    </junction>
    <junction id="L" type="priority" x="1200.00" y="0.00" incLanes="-m_0 l_0" intLanes=":L_0_0 :L_1_0" shape="1200.00,1.60 1200.00,-1.60 1200.00,1.60">
        <request index="0" response="00" foes="00" cont="0"/>
        <request index="1" response="00" foes="00" cont="0"/>
    </junction>
    <junction id="M" type="dead_end" x="1300.00" y="0.00" incLanes="m_0" intLanes="" shape="1300.00,-1.60 1300.00,1.60 1300.00,-1.60 1300.00,1.60"/>

    <connection from="-E11" to="-d2" fromLane="0" toLane="0" via=":D2_1_0" dir="s" state="M"/>
    <connection from="-b" to="-a" fromLane="0" toLane="0" uncontrolled="1" via=":A_0_0" dir="s" state="M"/>
    <connection from="-c" to="-b" fromLane="0" toLane="0" via=":B_1_0" dir="s" state="M"/>
    <connection from="-c2" to="-b" fromLane="0" toLane="0" via=":B_0_0" dir="r" state="M"/>
    <connection from="-d" to="-c" fromLane="0" toLane="0" via=":C_0_0" dir="s" state="M"/>
    <connection from="-d2" to="-c2" fromLane="0" toLane="0" via=":C2_0_0" tl="C2" linkIndex="0" dir="l" state="O"/>
    <connection from="-e" to="-d" fromLane="0" toLane="0" uncontrolled="1" via=":D_0_0" dir="s" state="M"/>
    <connection from="-e2" to="-d2" fromLane="0" toLane="0" via=":D2_0_0" dir="s" state="M"/>
    <connection from="-f" to="-e" fromLane="0" toLane="0" via=":E_1_0" dir="s" state="M"/>
    <connection from="-f2" to="-e2" fromLane="0" toLane="0" via=":E2_0_0" dir="l" state="M"/>
    <connection from="-g" to="-f2" fromLane="0" toLane="0" via=":F_0_0" dir="r" state="M"/>
    <connection from="-g" to="-f" fromLane="0" toLane="0" via=":F_1_0" dir="s" state="M"/>
    <connection from="-h" to="-g" fromLane="0" toLane="0" via=":G_0_0" dir="s" state="M"/>
    <connection from="-i" to="-h" fromLane="0" toLane="0" via=":H_1_0" dir="s" state="M"/>
    <connection from="-i2" to="-h" fromLane="0" toLane="0" via=":H_0_0" dir="r" state="M"/>
    <connection from="-j" to="-i" fromLane="0" toLane="0" via=":I_0_0" dir="s" state="M"/>
    <connection from="-j2" to="-i2" fromLane="0" toLane="0" via=":I2_0_0" tl="I2" linkIndex="0" dir="l" state="O"/>
    <connection from="-k" to="-j" fromLane="0" toLane="0" uncontrolled="1" via=":J_0_0" dir="s" state="M"/>
    <connection from="-k2" to="-j2" fromLane="0" toLane="0" via=":J2_0_0" dir="l" state="M"/>
    <connection from="-l" to="-k2" fromLane="0" toLane="0" via=":K_0_0" dir="r" state="M"/>
    <connection from="-l" to="-k" fromLane="0" toLane="0" via=":K_1_0" dir="s" state="M"/>
    <connection from="-m" to="-l" fromLane="0" toLane="0" via=":L_0_0" dir="s" state="M"/>
    <connection from="E11" to="-e" fromLane="0" toLane="0" via=":E_0_0" dir="s" state="M"/>
    <connection from="a" to="b" fromLane="0" toLane="0" via=":A_1_0" tl="A" linkIndex="0" dir="s" state="O"/>
    <connection from="b" to="c" fromLane="0" toLane="0" via=":B_2_0" dir="s" state="M"/>
    <connection from="b" to="c2" fromLane="0" toLane="0" via=":B_3_0" dir="l" state="M"/>
    <connection from="c" to="d" fromLane="0" toLane="0" uncontrolled="1" via=":C_1_0" dir="s" state="M"/>
    <connection from="c2" to="d2" fromLane="0" toLane="0" uncontrolled="1" via=":C2_1_0" dir="r" state="M"/>
    <connection from="d" to="e" fromLane="0" toLane="0" via=":D_1_0" tl="D" linkIndex="0" dir="s" state="O"/>
    <connection from="d2" to="E11" fromLane="0" toLane="0" via=":D2_2_0" dir="R" state="M"/>
    <connection from="d2" to="e2" fromLane="0" toLane="0" via=":D2_3_0" dir="s" state="M"/>
    <connection from="e" to="f" fromLane="0" toLane="0" via=":E_2_0" dir="s" state="M"/>
    <connection from="e" to="-E11" fromLane="0" toLane="0" via=":E_3_0" dir="L" state="M"/>
    <connection from="e2" to="f2" fromLane="0" toLane="0" via=":E2_1_0" dir="r" state="M"/>
    <connection from="f" to="g" fromLane="0" toLane="0" via=":F_2_0" dir="s" state="M"/>
    <connection from="f2" to="g" fromLane="0" toLane="0" via=":F_3_0" dir="l" state="M"/>
    <connection from="g" to="h" fromLane="0" toLane="0" via=":G_1_0" dir="s" state="M"/>
    <connection from="h" to="i" fromLane="0" toLane="0" via=":H_2_0" dir="s" state="M"/>