<?xml version="1.0" encoding="UTF-8"?>

<!-- generated on 2023-02-13 15:53:54 by Eclipse SUMO netedit Version v1_16_0+0157-fcef944c26c
-->

<additional xmlns:xsi="http://www.w3.org/2001/XMLSchema-instance" xsi:noNamespaceSchemaLocation="http://sumo.dlr.de/xsd/additional_file.xsd">
    <!-- StoppingPlaces -->
    <chargingStation id="chargingStation_0" name="chargingStation" lane="center1_1" startPos="24.00" endPos="26.00"/>
    <chargingStation id="chargingStation_3" name="chargingStation" lane="center1_1" startPos="32.00" endPos="34.00" chargeInTransit="1"/>
</additional>
