<?xml version="1.0" encoding="UTF-8"?>

<!-- generated on Wed Sep 28 13:48:45 2016 by SUMO netconvert Version dev-SVN-r21560
<?xml version="1.0" encoding="UTF-8"?>

<configuration xmlns:xsi="http://www.w3.org/2001/XMLSchema-instance" xsi:noNamespaceSchemaLocation="http://sumo.dlr.de/xsd/netconvertConfiguration.xsd">

    <input>
        <node-files value="input_plain.nod.xml"/>
        <edge-files value="input_plain.edg.xml"/>
        <connection-files value="input_plain.con.xml"/>
    </input>

    <output>
        <output-file value="net.net.xml"/>
    </output>

    <processing>
        <no-turnarounds value="true"/>
        <junctions.corner-detail value="7"/>
    </processing>

    <report>
        <xml-validation value="never"/>
    </report>

</configuration>
-->

<net version="0.27" junctionCornerDetail="7" xmlns:xsi="http://www.w3.org/2001/XMLSchema-instance" xsi:noNamespaceSchemaLocation="http://sumo.dlr.de/xsd/net_file.xsd">

    <location netOffset="100.00,100.00" convBoundary="0.00,0.00,200.00,200.00" origBoundary="-10000000000.00,-10000000000.00,10000000000.00,10000000000.00" projParameter="!"/>

    <edge id=":C_0" function="internal">
        <lane id=":C_0_0" index="0" allow="passenger" speed="13.89" length="18.22" shape="95.05,116.25 94.34,111.31 92.22,107.77 88.69,105.66 83.75,104.95"/>
    </edge>
    <edge id=":C_1" function="internal">
        <lane id=":C_1_0" index="0" allow="passenger" speed="13.89" length="32.50" shape="95.05,116.25 95.05,83.75"/>
        <lane id=":C_1_1" index="1" allow="passenger" speed="13.89" length="32.50" shape="98.35,116.25 98.35,83.75"/>
    </edge>
    <edge id=":C_3" function="internal">
        <lane id=":C_3_0" index="0" allow="passenger" speed="13.89" length="9.04" shape="98.35,116.25 99.47,108.42 100.05,107.45"/>
    </edge>
    <edge id=":C_16" function="internal">
        <lane id=":C_16_0" index="0" speed="13.89" length="19.83" shape="100.05,107.45 102.82,102.82 108.42,99.47 116.25,98.35"/>
    </edge>
    <edge id=":C_4" function="internal">
        <lane id=":C_4_0" index="0" allow="passenger" speed="13.89" length="18.22" shape="116.25,104.95 111.31,105.66 107.77,107.78 105.66,111.31 104.95,116.25"/>
    </edge>
    <edge id=":C_5" function="internal">
        <lane id=":C_5_0" index="0" allow="passenger" speed="13.89" length="32.50" shape="116.25,104.95 83.75,104.95"/>
        <lane id=":C_5_1" index="1" allow="passenger" speed="13.89" length="32.50" shape="116.25,101.65 83.75,101.65"/>
    </edge>
    <edge id=":C_7" function="internal">
        <lane id=":C_7_0" index="0" allow="passenger" speed="13.89" length="9.04" shape="116.25,101.65 108.42,100.53 107.45,99.95"/>
    </edge>
    <edge id=":C_17" function="internal">
        <lane id=":C_17_0" index="0" speed="13.89" length="19.83" shape="107.45,99.95 102.82,97.18 99.47,91.58 98.35,83.75"/>
    </edge>
    <edge id=":C_8" function="internal">
        <lane id=":C_8_0" index="0" allow="passenger" speed="13.89" length="13.68" shape="104.95,83.75 105.66,88.69 107.78,92.23 111.31,94.34 111.75,94.41"/>
    </edge>
    <edge id=":C_9" function="internal">
        <lane id=":C_9_0" index="0" allow="passenger" speed="13.89" length="32.50" shape="104.95,83.75 104.95,116.25"/>
        <lane id=":C_9_1" index="1" allow="passenger" speed="13.89" length="32.50" shape="101.65,83.75 101.65,116.25"/>
    </edge>
    <edge id=":C_11" function="internal">
        <lane id=":C_11_0" index="0" allow="passenger" speed="13.89" length="9.04" shape="101.65,83.75 100.53,91.58 99.95,92.55"/>
    </edge>
    <edge id=":C_18" function="internal">
        <lane id=":C_18_0" index="0" speed="13.89" length="4.55" shape="111.75,94.41 116.25,95.05"/>
    </edge>
    <edge id=":C_19" function="internal">
        <lane id=":C_19_0" index="0" speed="13.89" length="19.83" shape="99.95,92.55 97.18,97.18 91.58,100.53 83.75,101.65"/>
    </edge>
    <edge id=":C_12" function="internal">
        <lane id=":C_12_0" index="0" allow="passenger" speed="13.89" length="13.68" shape="83.75,95.05 88.69,94.34 92.23,92.22 94.34,88.69 94.41,88.25"/>
    </edge>
    <edge id=":C_13" function="internal">
        <lane id=":C_13_0" index="0" allow="passenger" speed="13.89" length="32.50" shape="83.75,95.05 116.25,95.05"/>
        <lane id=":C_13_1" index="1" allow="passenger" speed="13.89" length="32.50" shape="83.75,98.35 116.25,98.35"/>
    </edge>
    <edge id=":C_15" function="internal">
        <lane id=":C_15_0" index="0" allow="passenger" speed="13.89" length="9.04" shape="83.75,98.35 91.58,99.47 92.55,100.05"/>
    </edge>
    <edge id=":C_20" function="internal">
        <lane id=":C_20_0" index="0" speed="13.89" length="4.55" shape="94.41,88.25 95.05,83.75"/>
    </edge>
    <edge id=":C_21" function="internal">
        <lane id=":C_21_0" index="0" speed="13.89" length="19.83" shape="92.55,100.05 97.18,102.82 100.53,108.42 101.65,116.25"/>
    </edge>
    <edge id=":C_c0" function="crossing" crossingEdges="CE EC">
        <lane id=":C_c0_0" index="0" allow="pedestrian" speed="1.00" length="13.10" width="4.50" shape="114.00,93.45 114.00,106.55"/>
    </edge>
    <edge id=":C_c1" function="crossing" crossingEdges="CS SC">
        <lane id=":C_c1_0" index="0" allow="pedestrian" speed="1.00" length="13.10" width="4.50" shape="93.45,86.00 106.55,86.00"/>
    </edge>
    <edge id=":C_w0" function="walkingarea">
        <lane id=":C_w0_0" index="0" allow="pedestrian" speed="1.00" length="9.19" width="3.00" shape="83.75,108.25 83.75,111.25 88.75,116.25 91.75,116.25 91.72,114.35 91.34,112.71 90.71,111.31 89.82,110.18 88.69,109.29 87.29,108.66 85.65,108.28"/>
    </edge>
    <edge id=":C_w1" function="walkingarea">
        <lane id=":C_w1_0" index="0" allow="pedestrian" speed="1.00" length="7.90" width="4.50" shape="108.25,116.25 111.25,116.25 116.25,111.25 116.25,108.25 116.25,106.55 114.35,106.70 112.71,107.16 111.31,107.91 110.18,108.97 109.29,110.34 108.66,112.01 108.28,113.98"/>
    </edge>
    <edge id=":C_w2" function="walkingarea">
        <lane id=":C_w2_0" index="0" allow="pedestrian" speed="1.00" length="8.12" width="4.50" shape="116.25,93.45 116.25,91.75 116.25,88.75 111.25,83.75 108.25,83.75 106.55,83.75 106.70,86.02 107.16,87.99 107.91,89.66 108.97,91.02 110.34,92.09 112.01,92.84 113.98,93.30"/>
    </edge>
    <edge id=":C_w3" function="walkingarea">
        <lane id=":C_w3_0" index="0" allow="pedestrian" speed="1.00" length="7.90" width="4.50" shape="93.45,83.75 91.75,83.75 88.75,83.75 83.75,88.75 83.75,91.75 86.02,91.72 87.99,91.34 89.66,90.71 91.02,89.82 92.09,88.69 92.84,87.29 93.30,85.65"/>
    </edge>
    <edge id=":E_w0" function="walkingarea">
        <lane id=":E_w0_0" index="0" allow="pedestrian" speed="1.00" length="19.50" width="3.00" shape="200.00,108.25 200.00,111.25 200.00,88.75 200.00,91.75"/>
    </edge>
    <edge id=":N_w0" function="walkingarea">
        <lane id=":N_w0_0" index="0" allow="pedestrian" speed="1.00" length="19.50" width="3.00" shape="91.75,200.00 88.75,200.00 111.25,200.00 108.25,200.00"/>
    </edge>
    <edge id=":S_w0" function="walkingarea">
        <lane id=":S_w0_0" index="0" allow="pedestrian" speed="1.00" length="19.50" width="3.00" shape="108.25,0.00 111.25,0.00 88.75,0.00 91.75,0.00"/>
    </edge>
    <edge id=":W_w0" function="walkingarea">
        <lane id=":W_w0_0" index="0" allow="pedestrian" speed="1.00" length="19.50" width="3.00" shape="0.00,91.75 0.00,88.75 0.00,111.25 0.00,108.25"/>
    </edge>

    <edge id="CE" from="C" to="E" priority="2">
        <lane id="CE_0" index="0" allow="pedestrian" speed="13.89" length="83.75" width="3.00" shape="116.25,90.25 200.00,90.25"/>
        <lane id="CE_1" index="1" disallow="all" speed="13.89" length="83.75" width="1.50" shape="116.25,92.60 200.00,92.60"/>
        <lane id="CE_2" index="2" allow="passenger" speed="13.89" length="83.75" shape="116.25,95.05 200.00,95.05"/>
        <lane id="CE_3" index="3" allow="passenger" speed="13.89" length="83.75" shape="116.25,98.35 200.00,98.35"/>
    </edge>
    <edge id="CN" from="C" to="N" priority="2">
        <lane id="CN_0" index="0" allow="pedestrian" speed="13.89" length="83.75" width="3.00" shape="109.75,116.25 109.75,200.00"/>
        <lane id="CN_1" index="1" disallow="all" speed="13.89" length="83.75" width="1.50" shape="107.40,116.25 107.40,200.00"/>
        <lane id="CN_2" index="2" allow="passenger" speed="13.89" length="83.75" shape="104.95,116.25 104.95,200.00"/>
        <lane id="CN_3" index="3" allow="passenger" speed="13.89" length="83.75" shape="101.65,116.25 101.65,200.00"/>
    </edge>
    <edge id="CS" from="C" to="S" priority="2">
        <lane id="CS_0" index="0" allow="pedestrian" speed="13.89" length="83.75" width="3.00" shape="90.25,83.75 90.25,0.00"/>
        <lane id="CS_1" index="1" disallow="all" speed="13.89" length="83.75" width="1.50" shape="92.60,83.75 92.60,0.00"/>
        <lane id="CS_2" index="2" allow="passenger" speed="13.89" length="83.75" shape="95.05,83.75 95.05,0.00"/>
        <lane id="CS_3" index="3" allow="passenger" speed="13.89" length="83.75" shape="98.35,83.75 98.35,0.00"/>
    </edge>
    <edge id="CW" from="C" to="W" priority="2">
        <lane id="CW_0" index="0" allow="pedestrian" speed="13.89" length="83.75" width="3.00" shape="83.75,109.75 0.00,109.75"/>
        <lane id="CW_1" index="1" disallow="all" speed="13.89" length="83.75" width="1.50" shape="83.75,107.40 0.00,107.40"/>
        <lane id="CW_2" index="2" allow="passenger" speed="13.89" length="83.75" shape="83.75,104.95 0.00,104.95"/>
        <lane id="CW_3" index="3" allow="passenger" speed="13.89" length="83.75" shape="83.75,101.65 0.00,101.65"/>
    </edge>
    <edge id="EC" from="E" to="C" priority="2">
        <lane id="EC_0" index="0" allow="pedestrian" speed="13.89" length="83.75" width="3.00" shape="200.00,109.75 116.25,109.75"/>
        <lane id="EC_1" index="1" disallow="all" speed="13.89" length="83.75" width="1.50" shape="200.00,107.40 116.25,107.40"/>
        <lane id="EC_2" index="2" allow="passenger" speed="13.89" length="83.75" shape="200.00,104.95 116.25,104.95"/>
        <lane id="EC_3" index="3" allow="passenger" speed="13.89" length="83.75" shape="200.00,101.65 116.25,101.65"/>
    </edge>
    <edge id="NC" from="N" to="C" priority="2">
        <lane id="NC_0" index="0" allow="pedestrian" speed="13.89" length="83.75" width="3.00" shape="90.25,200.00 90.25,116.25"/>
        <lane id="NC_1" index="1" disallow="all" speed="13.89" length="83.75" width="1.50" shape="92.60,200.00 92.60,116.25"/>
        <lane id="NC_2" index="2" allow="passenger" speed="13.89" length="83.75" shape="95.05,200.00 95.05,116.25"/>
        <lane id="NC_3" index="3" allow="passenger" speed="13.89" length="83.75" shape="98.35,200.00 98.35,116.25"/>
    </edge>
    <edge id="SC" from="S" to="C" priority="2">
        <lane id="SC_0" index="0" allow="pedestrian" speed="13.89" length="83.75" width="3.00" shape="109.75,0.00 109.75,83.75"/>
        <lane id="SC_1" index="1" disallow="all" speed="13.89" length="83.75" width="1.50" shape="107.40,0.00 107.40,83.75"/>
        <lane id="SC_2" index="2" allow="passenger" speed="13.89" length="83.75" shape="104.95,0.00 104.95,83.75"/>
        <lane id="SC_3" index="3" allow="passenger" speed="13.89" length="83.75" shape="101.65,0.00 101.65,83.75"/>
    </edge>
    <edge id="WC" from="W" to="C" priority="2">
        <lane id="WC_0" index="0" allow="pedestrian" speed="13.89" length="83.75" width="3.00" shape="0.00,90.25 83.75,90.25"/>
        <lane id="WC_1" index="1" disallow="all" speed="13.89" length="83.75" width="1.50" shape="0.00,92.60 83.75,92.60"/>
        <lane id="WC_2" index="2" allow="passenger" speed="13.89" length="83.75" shape="0.00,95.05 83.75,95.05"/>
        <lane id="WC_3" index="3" allow="passenger" speed="13.89" length="83.75" shape="0.00,98.35 83.75,98.35"/>
    </edge>

    <tlLogic id="C" type="static" programID="0" offset="0">
        <phase duration="26" state="GGGgrrrrgGGgrrrrGr"/>
        <phase duration="5" state="GGGgrrrrgGGgrrrrrr"/>
        <phase duration="4" state="yyygrrrryyygrrrrrr"/>
        <phase duration="6" state="rrrGrrrrrrrGrrrrrr"/>
        <phase duration="4" state="rrryrrrrrrryrrrrrr"/>
        <phase duration="26" state="rrrrGGGgrrrrgGGgrG"/>
        <phase duration="5" state="rrrrGGGgrrrrgGGgrr"/>
        <phase duration="4" state="rrrryyygrrrryyygrr"/>
        <phase duration="6" state="rrrrrrrGrrrrrrrGrr"/>
        <phase duration="4" state="rrrrrrryrrrrrrryrr"/>
    </tlLogic>

    <junction id="C" type="traffic_light" x="100.00" y="100.00" incLanes="NC_0 NC_1 NC_2 NC_3 EC_0 EC_1 EC_2 EC_3 SC_0 SC_1 SC_2 SC_3 WC_0 WC_1 WC_2 WC_3 :C_w2_0 :C_w3_0" intLanes=":C_0_0 :C_1_0 :C_1_1 :C_16_0 :C_4_0 :C_5_0 :C_5_1 :C_17_0 :C_18_0 :C_9_0 :C_9_1 :C_19_0 :C_20_0 :C_13_0 :C_13_1 :C_21_0 :C_c0_0 :C_c1_0" shape="88.75,116.25 111.25,116.25 111.56,114.06 111.95,113.20 112.50,112.50 113.20,111.95 114.06,111.56 115.08,111.33 116.25,111.25 116.25,88.75 114.06,88.44 113.20,88.05 112.50,87.50 111.95,86.80 111.56,85.94 111.33,84.92 111.25,83.75 88.75,83.75 88.44,85.94 88.05,86.80 87.50,87.50 86.80,88.05 85.94,88.44 84.92,88.67 83.75,88.75 83.75,111.25 85.94,111.56 86.80,111.95 87.50,112.50 88.05,113.20 88.44,114.06 88.67,115.08" radius="5.00">
        <request index="0" response="000000000000000000" foes="000000100001100000" cont="0"/>
        <request index="1" response="100000000000000000" foes="101111100011100000" cont="0"/>
        <request index="2" response="100000000000000000" foes="101111100011100000" cont="0"/>
        <request index="3" response="010000011100000000" foes="011110011111100000" cont="1"/>
        <request index="4" response="010000011000000000" foes="011000011000000000" cont="0"/>
        <request index="5" response="010000111000001111" foes="011000111000001111" cont="0"/>
        <request index="6" response="010000111000001111" foes="011000111000001111" cont="0"/>
        <request index="7" response="110111111000001110" foes="110111111000001110" cont="1"/>
        <request index="8" response="110000000000000000" foes="110110000000001000" cont="1"/>
        <request index="9" response="100000000000000000" foes="101110000011111000" cont="0"/>
        <request index="10" response="100000000000000000" foes="101110000011111000" cont="0"/>
        <request index="11" response="100000000000000111" foes="101110000011100111" cont="1"/>
        <request index="12" response="100000000000000110" foes="100000000010000110" cont="1"/>
        <request index="13" response="010000111100001110" foes="010000111110001110" cont="0"/>
        <request index="14" response="010000111100001110" foes="010000111110001110" cont="0"/>
        <request index="15" response="000000111001111110" foes="000000111001111110" cont="1"/>
        <request index="16" response="000000000000000000" foes="000110000111111000" cont="0"/>
        <request index="17" response="000000000000000000" foes="000001111110000110" cont="0"/>
    </junction>
    <junction id="E" type="dead_end" x="200.00" y="100.00" incLanes="CE_0 CE_1 CE_2 CE_3" intLanes="" shape="200.00,100.05 200.00,88.75 200.00,99.95"/>
    <junction id="N" type="dead_end" x="100.00" y="200.00" incLanes="CN_0 CN_1 CN_2 CN_3" intLanes="" shape="99.95,200.00 111.25,200.00 100.05,200.00"/>
    <junction id="S" type="dead_end" x="100.00" y="0.00" incLanes="CS_0 CS_1 CS_2 CS_3" intLanes="" shape="100.05,0.00 88.75,0.00 99.95,0.00"/>
    <junction id="W" type="dead_end" x="0.00" y="100.00" incLanes="CW_0 CW_1 CW_2 CW_3" intLanes="" shape="0.00,99.95 0.00,111.25 0.00,100.05"/>

    <junction id=":C_16_0" type="internal" x="100.05" y="107.45" incLanes=":C_3_0 SC_2 SC_3" intLanes=":C_5_0 :C_5_1 :C_7_0 :C_8_0 :C_9_0 :C_9_1 :C_13_0 :C_13_1 :C_15_0 :C_c0_0"/>
    <junction id=":C_17_0" type="internal" x="107.45" y="99.95" incLanes=":C_7_0 WC_2 WC_3" intLanes=":C_1_0 :C_1_1 :C_3_0 :C_9_0 :C_9_1 :C_11_0 :C_12_0 :C_13_0 :C_13_1 :C_c0_0 :C_c1_0"/>
    <junction id=":C_18_0" type="internal" x="111.75" y="94.41" incLanes=":C_8_0" intLanes=":C_3_0 :C_13_0 :C_13_1 :C_c0_0 :C_c1_0"/>
    <junction id=":C_19_0" type="internal" x="99.95" y="92.55" incLanes=":C_11_0 NC_2 NC_3" intLanes=":C_0_0 :C_1_0 :C_1_1 :C_5_0 :C_5_1 :C_7_0 :C_13_0 :C_13_1 :C_15_0 :C_c1_0"/>
    <junction id=":C_20_0" type="internal" x="94.41" y="88.25" incLanes=":C_12_0" intLanes=":C_1_0 :C_1_1 :C_7_0 :C_c1_0"/>
    <junction id=":C_21_0" type="internal" x="92.55" y="100.05" incLanes=":C_15_0 EC_2 EC_3" intLanes=":C_1_0 :C_1_1 :C_3_0 :C_4_0 :C_5_0 :C_5_1 :C_9_0 :C_9_1 :C_11_0"/>

    <connection from="EC" to="CN" fromLane="2" toLane="2" via=":C_4_0" tl="C" linkIndex="4" dir="r" state="o"/>
    <connection from="EC" to="CW" fromLane="2" toLane="2" via=":C_5_0" tl="C" linkIndex="5" dir="s" state="o"/>
    <connection from="EC" to="CW" fromLane="3" toLane="3" via=":C_5_1" tl="C" linkIndex="6" dir="s" state="o"/>
    <connection from="EC" to="CS" fromLane="3" toLane="3" via=":C_7_0" tl="C" linkIndex="7" dir="l" state="o"/>
    <connection from="NC" to="CW" fromLane="2" toLane="2" via=":C_0_0" tl="C" linkIndex="0" dir="r" state="o"/>
    <connection from="NC" to="CS" fromLane="2" toLane="2" via=":C_1_0" tl="C" linkIndex="1" dir="s" state="o"/>
    <connection from="NC" to="CS" fromLane="3" toLane="3" via=":C_1_1" tl="C" linkIndex="2" dir="s" state="o"/>
    <connection from="NC" to="CE" fromLane="3" toLane="3" via=":C_3_0" tl="C" linkIndex="3" dir="l" state="o"/>
    <connection from="SC" to="CE" fromLane="2" toLane="2" via=":C_8_0" tl="C" linkIndex="8" dir="r" state="o"/>
    <connection from="SC" to="CN" fromLane="2" toLane="2" via=":C_9_0" tl="C" linkIndex="9" dir="s" state="o"/>
    <connection from="SC" to="CN" fromLane="3" toLane="3" via=":C_9_1" tl="C" linkIndex="10" dir="s" state="o"/>
    <connection from="SC" to="CW" fromLane="3" toLane="3" via=":C_11_0" tl="C" linkIndex="11" dir="l" state="o"/>
    <connection from="WC" to="CS" fromLane="2" toLane="2" via=":C_12_0" tl="C" linkIndex="12" dir="r" state="o"/>
    <connection from="WC" to="CE" fromLane="2" toLane="2" via=":C_13_0" tl="C" linkIndex="13" dir="s" state="o"/>
    <connection from="WC" to="CE" fromLane="3" toLane="3" via=":C_13_1" tl="C" linkIndex="14" dir="s" state="o"/>
    <connection from="WC" to="CN" fromLane="3" toLane="3" via=":C_15_0" tl="C" linkIndex="15" dir="l" state="o"/>

    <connection from=":C_0" to="CW" fromLane="0" toLane="2" dir="s" state="M"/>
    <connection from=":C_1" to="CS" fromLane="0" toLane="2" dir="s" state="M"/>
    <connection from=":C_1" to="CS" fromLane="1" toLane="3" dir="s" state="M"/>
    <connection from=":C_3" to="CE" fromLane="0" toLane="3" via=":C_16_0" dir="s" state="m"/>
    <connection from=":C_16" to="CE" fromLane="0" toLane="3" dir="s" state="M"/>
    <connection from=":C_4" to="CN" fromLane="0" toLane="2" dir="s" state="M"/>
    <connection from=":C_5" to="CW" fromLane="0" toLane="2" dir="s" state="M"/>
    <connection from=":C_5" to="CW" fromLane="1" toLane="3" dir="s" state="M"/>
    <connection from=":C_7" to="CS" fromLane="0" toLane="3" via=":C_17_0" dir="s" state="m"/>
    <connection from=":C_17" to="CS" fromLane="0" toLane="3" dir="s" state="M"/>
    <connection from=":C_8" to="CE" fromLane="0" toLane="2" via=":C_18_0" dir="s" state="m"/>
    <connection from=":C_18" to="CE" fromLane="0" toLane="2" dir="s" state="M"/>
    <connection from=":C_9" to="CN" fromLane="0" toLane="2" dir="s" state="M"/>
    <connection from=":C_9" to="CN" fromLane="1" toLane="3" dir="s" state="M"/>
    <connection from=":C_11" to="CW" fromLane="0" toLane="3" via=":C_19_0" dir="s" state="m"/>
    <connection from=":C_19" to="CW" fromLane="0" toLane="3" dir="s" state="M"/>
    <connection from=":C_12" to="CS" fromLane="0" toLane="2" via=":C_20_0" dir="s" state="m"/>
    <connection from=":C_20" to="CS" fromLane="0" toLane="2" dir="s" state="M"/>
    <connection from=":C_13" to="CE" fromLane="0" toLane="2" dir="s" state="M"/>
    <connection from=":C_13" to="CE" fromLane="1" toLane="3" dir="s" state="M"/>
    <connection from=":C_15" to="CN" fromLane="0" toLane="3" via=":C_21_0" dir="s" state="m"/>
    <connection from=":C_21" to="CN" fromLane="0" toLane="3" dir="s" state="M"/>

    <connection from=":C_c0" to=":C_w1" fromLane="0" toLane="0" dir="s" state="M"/>
    <connection from=":C_c1" to=":C_w2" fromLane="0" toLane="0" dir="s" state="M"/>
    <connection from=":C_w0" to="CW" fromLane="0" toLane="0" dir="s" state="M"/>
    <connection from="NC" to=":C_w0" fromLane="0" toLane="0" dir="s" state="M"/>
    <connection from=":C_w1" to="CN" fromLane="0" toLane="0" dir="s" state="M"/>
    <connection from="EC" to=":C_w1" fromLane="0" toLane="0" dir="s" state="M"/>
    <connection from=":C_w2" to=":C_c0" fromLane="0" toLane="0" tl="C" linkIndex="16" dir="s" state="M"/>
    <connection from=":C_w2" to="CE" fromLane="0" toLane="0" dir="s" state="M"/>
    <connection from="SC" to=":C_w2" fromLane="0" toLane="0" dir="s" state="M"/>
    <connection from=":C_w3" to=":C_c1" fromLane="0" toLane="0" tl="C" linkIndex="17" dir="s" state="M"/>
    <connection from=":C_w3" to="CS" fromLane="0" toLane="0" dir="s" state="M"/>
    <connection from="WC" to=":C_w3" fromLane="0" toLane="0" dir="s" state="M"/>
    <connection from=":E_w0" to="EC" fromLane="0" toLane="0" dir="s" state="M"/>
    <connection from="CE" to=":E_w0" fromLane="0" toLane="0" dir="s" state="M"/>
    <connection from=":N_w0" to="NC" fromLane="0" toLane="0" dir="s" state="M"/>
    <connection from="CN" to=":N_w0" fromLane="0" toLane="0" dir="s" state="M"/>
    <connection from=":S_w0" to="SC" fromLane="0" toLane="0" dir="s" state="M"/>
    <connection from="CS" to=":S_w0" fromLane="0" toLane="0" dir="s" state="M"/>
    <connection from=":W_w0" to="WC" fromLane="0" toLane="0" dir="s" state="M"/>
    <connection from="CW" to=":W_w0" fromLane="0" toLane="0" dir="s" state="M"/>
</net>
