<?xml version="1.0" encoding="UTF-8"?>

<!-- generated on 2024-03-01 11:41:24 by Eclipse SUMO netedit Version v1_19_0+1118-98ab26335df
-->

<routes xmlns:xsi="http://www.w3.org/2001/XMLSchema-instance" xsi:noNamespaceSchemaLocation="http://sumo.dlr.de/xsd/routes_file.xsd">
    <!-- Vehicles, persons and containers (sorted by depart) -->
    <personFlow id="pf_0" begin="0.00" departPos="0.08" end="3600.00" personsPerHour="3000">
        <walk edges="533 E2 E3"/>
    </personFlow>
    <personFlow id="pf_1" begin="0.00" end="3600.00" personsPerHour="3000">
        <walk edges="1391 E0 E1"/>
    </personFlow>
    <personFlow id="pf_2" begin="0.00" end="3600.00" personsPerHour="3000">
        <walk edges="1464 E0 E1"/>
    </personFlow>
    <personFlow id="pf_3" begin="0.00" end="3600.00" personsPerHour="3000">
        <walk edges="1464 E2 E3"/>
    </personFlow>
</routes>
