<?xml version="1.0" encoding="UTF-8"?>

<!-- generated on Mon 14 Mar 2016 01:28:46 PM CET by Netedit Version dev-SVN-r20180
<?xml version="1.0" encoding="UTF-8"?>

<configuration xmlns:xsi="http://www.w3.org/2001/XMLSchema-instance" xsi:noNamespaceSchemaLocation="http://sumo.dlr.de/xsd/netedit.exeConfiguration.xsd">

    <output>
        <output-file value="net.net.xml"/>
    </output>

    <processing>
        <no-turnarounds value="true"/>
        <offset.disable-normalization value="true"/>
    </processing>

</configuration>
-->

<net version="0.25" xmlns:xsi="http://www.w3.org/2001/XMLSchema-instance" xsi:noNamespaceSchemaLocation="http://sumo.dlr.de/xsd/net_file.xsd">

    <location netOffset="0.00,0.00" convBoundary="-40.00,0.00,400.00,0.00" origBoundary="10000000000.00,10000000000.00,-10000000000.00,-10000000000.00" projParameter="!"/>

    <edge id=":gneJ1_0" function="internal">
        <lane id=":gneJ1_0_0" index="0" speed="13.89" length="0.10" shape="100.00,-1.65 100.00,-1.65"/>
    </edge>
    <edge id=":gneJ2_0" function="internal">
        <lane id=":gneJ2_0_0" index="0" speed="13.89" length="0.10" shape="200.00,-1.65 200.00,-1.65"/>
    </edge>
    <edge id=":gneJ3_0" function="internal">
        <lane id=":gneJ3_0_0" index="0" speed="13.89" length="0.10" shape="300.00,-1.65 300.00,-1.65"/>
    </edge>

    <edge id="A" from="gneJ0" to="gneJ1" priority="1">
        <lane id="A_0" index="0" speed="13.89" length="140.00" shape="-40.00,-1.65 100.00,-1.65"/>
    </edge>
    <edge id="B" from="gneJ1" to="gneJ2" priority="1">
        <lane id="B_0" index="0" speed="13.89" length="100.00" shape="100.00,-1.65 200.00,-1.65"/>
    </edge>
    <edge id="C" from="gneJ2" to="gneJ3" priority="1">
        <lane id="C_0" index="0" speed="13.89" length="100.00" shape="200.00,-1.65 300.00,-1.65"/>
    </edge>
    <edge id="D" from="gneJ3" to="gneJ4" priority="1">
        <lane id="D_0" index="0" speed="13.89" length="100.00" shape="300.00,-1.65 400.00,-1.65"/>
    </edge>

    <junction id="gneJ0" type="unregulated" x="-40.00" y="0.00" incLanes="" intLanes="" shape="-40.00,-0.05 -40.00,-3.25"/>
    <junction id="gneJ1" type="priority" x="100.00" y="0.00" incLanes="A_0" intLanes=":gneJ1_0_0" shape="100.00,-0.05 100.00,-3.25 100.00,-0.05">
        <request index="0" response="0" foes="0" cont="0"/>
    </junction>
    <junction id="gneJ2" type="priority" x="200.00" y="0.00" incLanes="B_0" intLanes=":gneJ2_0_0" shape="200.00,-0.05 200.00,-3.25 200.00,-0.05">
        <request index="0" response="0" foes="0" cont="0"/>
    </junction>
    <junction id="gneJ3" type="priority" x="300.00" y="0.00" incLanes="C_0" intLanes=":gneJ3_0_0" shape="300.00,-0.05 300.00,-3.25 300.00,-0.05">
        <request index="0" response="0" foes="0" cont="0"/>
    </junction>
    <junction id="gneJ4" type="unregulated" x="400.00" y="0.00" incLanes="D_0" intLanes="" shape="400.00,-3.25 400.00,-0.05"/>

    <connection from="A" to="B" fromLane="0" toLane="0" via=":gneJ1_0_0" dir="s" state="M"/>
    <connection from="B" to="C" fromLane="0" toLane="0" via=":gneJ2_0_0" dir="s" state="M"/>
    <connection from="C" to="D" fromLane="0" toLane="0" via=":gneJ3_0_0" dir="s" state="M"/>

    <connection from=":gneJ1_0" to="B" fromLane="0" toLane="0" dir="s" state="M"/>
    <connection from=":gneJ2_0" to="C" fromLane="0" toLane="0" dir="s" state="M"/>
    <connection from=":gneJ3_0" to="D" fromLane="0" toLane="0" dir="s" state="M"/>

</net>
