<?xml version="1.0" encoding="UTF-8"?>

<!-- generated on 2023-04-21 11:20:40 by Eclipse SUMO netedit Version v1_16_0+2274-6d890564c06
-->

<additional xmlns:xsi="http://www.w3.org/2001/XMLSchema-instance" xsi:noNamespaceSchemaLocation="http://sumo.dlr.de/xsd/additional_file.xsd">
    <!-- Shapes -->
    <poi id="POI_0" color="red" layer="202.00" lane="center1_0" pos="20.00"/>
</additional>
