<?xml version="1.0" encoding="UTF-8"?>

<!-- generated on Thu Oct 27 15:43:58 2016 by SUMO netconvert Version dev-SVN-r21818
<?xml version="1.0" encoding="UTF-8"?>

<configuration xmlns:xsi="http://www.w3.org/2001/XMLSchema-instance" xsi:noNamespaceSchemaLocation="http://sumo.dlr.de/xsd/netconvertConfiguration.xsd">

    <input>
        <vissim-file value="vissim.inp"/>
    </input>

    <output>
        <output-file value="net.net.xml"/>
    </output>

    <processing>
        <no-internal-links value="true"/>
        <geometry.junction-mismatch-threshold value="100"/>
        <edges.join value="true"/>
    </processing>

    <report>
        <verbose value="true"/>
        <xml-validation value="never"/>
    </report>

</configuration>
-->

<net version="0.27" xmlns:xsi="http://www.w3.org/2001/XMLSchema-instance" xsi:noNamespaceSchemaLocation="http://sumo.dlr.de/xsd/net_file.xsd">

    <location netOffset="749.69,1632.80" convBoundary="0.00,0.00,1936.91,2334.07" origBoundary="-749.69,-1632.80,1187.22,701.26" projParameter="!"/>

    <edge id="1" from="0" to="1" priority="-1" type="1" spreadType="center" shape="1062.84,1486.64 1048.01,1479.70 1035.35,1473.58 1027.73,1469.09 1021.20,1463.78 1014.39,1458.07">
        <lane id="1_0" index="0" speed="13.89" length="87.48" shape="1074.70,1494.01 1047.30,1481.19 1034.57,1475.04 1026.79,1470.45 1020.15,1465.05 997.37,1445.92"/>
        <lane id="1_1" index="1" speed="13.89" length="87.48" shape="1076.10,1491.02 1048.71,1478.21 1036.13,1472.12 1028.68,1467.73 1022.25,1462.51 1015.46,1456.80"/>
    </edge>
    <edge id="10" from="10-SourceNode" to="10-DestinationNode" priority="-1" type="1" spreadType="center" shape="701.94,1951.75 744.04,1925.36 839.60,1845.10 849.51,1832.62 861.68,1813.21 873.57,1786.01 914.14,1690.09 922.93,1666.02 932.52,1630.83 935.87,1620.65 1003.96,1474.29 1007.90,1468.31 1012.25,1463.42 1017.82,1458.67 1023.39,1455.68 1029.23,1452.96 1036.70,1451.33 1043.36,1451.46 1050.29,1452.55 1059.40,1455.54 1162.69,1507.87 1194.01,1524.72 1241.04,1548.62 1381.61,1608.63 1389.61,1614.71 1394.71,1620.91 1398.93,1629.22 1400.92,1637.99 1405.61,1735.86 1405.50,1746.41 1403.96,1753.93 1401.07,1761.65 1341.27,1853.85">
        <lane id="10_0" index="0" speed="13.89" length="1273.79" shape="701.94,1951.75 744.04,1925.36 839.60,1845.10 849.51,1832.62 861.68,1813.21 873.57,1786.01 914.14,1690.09 922.93,1666.02 932.52,1630.83 935.87,1620.65 1003.96,1474.29 1007.90,1468.31 1012.25,1463.42 1017.82,1458.67 1023.39,1455.68 1029.23,1452.96 1036.70,1451.33 1043.36,1451.46 1050.29,1452.55 1059.40,1455.54 1162.69,1507.87 1194.01,1524.72 1241.04,1548.62 1381.61,1608.63 1389.61,1614.71 1394.71,1620.91 1398.93,1629.22 1400.92,1637.99 1405.61,1735.86 1405.50,1746.41 1403.96,1753.93 1401.07,1761.65 1341.27,1853.85"/>
    </edge>
    <edge id="100" from="100-SourceNode" to="100-DestinationNode" priority="-1" type="4" spreadType="center">
        <lane id="100_0" index="0" speed="13.89" length="32.63" shape="1727.48,1819.41 1708.57,1792.82"/>
    </edge>
    <edge id="101" from="44" to="45" priority="-1" type="1" spreadType="center" shape="486.67,1211.74 470.01,1208.80 444.64,1206.36 422.31,1205.50">
        <lane id="101_0" index="0" speed="13.89" length="46.89" shape="473.97,1209.50 470.01,1208.80 444.64,1206.36 437.26,1206.07"/>
    </edge>
    <edge id="102" from="46" to="47" priority="-1" type="1" spreadType="center" shape="502.82,1187.45 508.19,1188.91 526.73,1195.74">
        <lane id="102_0" index="0" speed="13.89" length="37.66" shape="492.87,1184.73 508.19,1188.91 522.04,1194.01"/>
    </edge>
    <edge id="11[0]" from="11-begin" to="21" priority="-1" type="1" spreadType="center" shape="1340.11,1848.26 1397.98,1758.37 1400.49,1751.62 1401.84,1745.83 1402.22,1739.47 1398.37,1647.18 1397.59,1636.31 1395.82,1628.99 1392.27,1622.03 1388.39,1617.48 1381.74,1611.94 1239.40,1551.14 1195.07,1528.44 1161.36,1510.65 1057.90,1458.26 1048.12,1455.40 1039.69,1454.45 1033.44,1455.27 1026.51,1457.31 1021.76,1460.02 1017.00,1463.42 1012.92,1467.23 1008.03,1473.75 940.42,1622.19 937.47,1630.83 927.29,1667.48 919.51,1689.64 864.84,1817.27 851.89,1837.53 840.59,1850.60 795.97,1886.54 772.11,1922.68">
        <lane id="11[0]_0" index="0" speed="13.89" length="1190.12" shape="1340.11,1848.26 1397.98,1758.37 1400.49,1751.62 1401.84,1745.83 1402.22,1739.47 1398.37,1647.18 1397.59,1636.31 1395.82,1628.99 1392.27,1622.03 1388.39,1617.48 1381.74,1611.94 1239.40,1551.14 1195.07,1528.44 1161.36,1510.65 1057.90,1458.26 1048.12,1455.40 1039.69,1454.45 1033.44,1455.27 1026.51,1457.31 1021.76,1460.02 1017.00,1463.42 1012.92,1467.23 1008.03,1473.75 940.42,1622.19 937.47,1630.83 927.29,1667.48 919.51,1689.64 864.84,1817.27 851.89,1837.53 840.59,1850.60 795.97,1886.54 782.13,1907.51"/>
    </edge>
    <edge id="11[1]" from="21" to="22" priority="-1" type="1" spreadType="center" shape="772.11,1922.68 746.63,1927.60 704.18,1954.34">
        <lane id="11[1]_0" index="0" speed="13.89" length="64.74" shape="760.80,1924.86 746.63,1927.60 719.51,1944.69"/>
    </edge>
    <edge id="12" from="12-SourceNode" to="12-DestinationNode" priority="-1" type="4" spreadType="center">
        <lane id="12_0" index="0" speed="13.89" length="49.13" shape="975.16,1467.89 997.79,1424.28"/>
    </edge>
    <edge id="13" from="13-SourceNode" to="13-DestinationNode" priority="-1" type="4" spreadType="center">
        <lane id="13_0" index="0" speed="13.89" length="49.13" shape="1001.16,1425.89 978.53,1469.50"/>
    </edge>
    <edge id="14" from="14-SourceNode" to="14-DestinationNode" priority="-1" type="5" spreadType="center" shape="1087.01,1462.74 1059.00,1448.93 1053.62,1447.09 1049.93,1446.35 1045.18,1445.99 1041.07,1445.83 1037.41,1445.76 1032.87,1445.39 1029.12,1444.69 1024.85,1443.66 1019.58,1441.79 1003.46,1434.23 964.10,1414.98">
        <lane id="14_0" index="0" speed="13.89" length="133.19" shape="1087.01,1462.74 1059.00,1448.93 1053.62,1447.09 1049.93,1446.35 1045.18,1445.99 1041.07,1445.83 1037.41,1445.76 1032.87,1445.39 1029.12,1444.69 1024.85,1443.66 1019.58,1441.79 1003.46,1434.23 964.10,1414.98"/>
    </edge>
    <edge id="15" from="15-SourceNode" to="15-DestinationNode" priority="-1" type="1" spreadType="center">
        <lane id="15_0" index="0" speed="13.89" length="36.84" shape="994.90,1424.74 1028.35,1440.20"/>
    </edge>
    <edge id="16" from="16-SourceNode" to="16-DestinationNode" priority="-1" type="1" spreadType="center">
        <lane id="16_0" index="0" speed="13.89" length="36.85" shape="1027.43,1442.20 993.98,1426.74"/>
    </edge>
    <edge id="17" from="17-SourceNode" to="17-DestinationNode" priority="-1" type="4" spreadType="center">
        <lane id="17_0" index="0" speed="13.89" length="31.93" shape="1010.98,1483.20 981.89,1470.03"/>
    </edge>
    <edge id="18" from="18-SourceNode" to="18-DestinationNode" priority="-1" type="4" spreadType="center">
        <lane id="18_0" index="0" speed="13.89" length="31.93" shape="983.10,1468.22 1012.19,1481.40"/>
    </edge>
    <edge id="19" from="19-SourceNode" to="19-DestinationNode" priority="-1" type="1" spreadType="center">
        <lane id="19_0" index="0" speed="13.89" length="2.08" shape="998.18,1481.80 998.97,1479.88"/>
    </edge>
    <edge id="2" from="2-begin" to="1" priority="-1" type="1" spreadType="center" shape="1004.06,1345.81 1006.85,1365.86 1014.37,1383.40 1023.28,1397.60 1026.89,1407.52 1027.14,1417.42 1019.40,1433.10">
        <lane id="2_0" index="0" speed="13.89" length="112.43" shape="1005.70,1345.59 1008.45,1365.41 1015.83,1382.64 1024.77,1396.87 1028.53,1407.21 1028.80,1417.79 1016.41,1442.90"/>
        <lane id="2_1" index="1" speed="13.89" length="112.43" shape="1002.43,1346.04 1005.24,1366.31 1012.90,1384.17 1021.79,1398.33 1025.25,1407.83 1025.48,1417.05 1013.39,1441.58"/>
    </edge>
    <edge id="20" from="20-SourceNode" to="20-DestinationNode" priority="-1" type="1" spreadType="center">
        <lane id="20_0" index="0" speed="13.89" length="2.11" shape="1046.62,1457.59 1044.60,1457.00"/>
    </edge>
    <edge id="20000" from="1" to="16" priority="-1" type="1" spreadType="center" shape="1042.00,1459.03 1094.61,1484.00">
        <lane id="20000_0" index="0" speed="13.89" length="94.81" shape="1017.92,1447.59 1090.07,1481.85"/>
    </edge>
    <edge id="20001" from="7" to="8" priority="-1" type="1" spreadType="center" shape="1443.71,1674.76 1434.99,1666.44 1424.10,1657.29 1415.72,1651.35">
        <lane id="20001_0" index="0" speed="13.89" length="48.52" shape="1447.12,1678.02 1434.99,1666.44 1424.10,1657.29 1420.35,1654.63"/>
    </edge>
    <edge id="20002" from="17" to="18" priority="-1" type="1" spreadType="center" shape="1436.88,1642.15 1448.38,1649.86 1459.45,1659.54 1465.30,1667.09">
        <lane id="20002_0" index="0" speed="13.89" length="37.31" shape="1428.54,1636.56 1448.38,1649.86 1450.73,1651.92"/>
    </edge>
    <edge id="20003+31[1][1][0]" from="25" to="26" priority="0" spreadType="center">
        <lane id="20003+31[1][1][0]_0" index="0" speed="13.89" length="25.02" shape="712.67,1935.26 727.68,1919.61"/>
        <lane id="20003+31[1][1][0]_1" index="1" speed="13.89" length="25.02" shape="715.05,1937.54 730.06,1921.90"/>
        <lane id="20003+31[1][1][0]_2" index="2" speed="13.89" length="25.02" shape="717.43,1939.83 732.44,1924.18"/>
    </edge>
    <edge id="20004" from="3" to="4" priority="-1" type="1" spreadType="center" shape="1530.00,1891.54 1524.42,1875.52">
        <lane id="20004_0" index="0" speed="13.89" length="60.05" shape="1537.97,1914.42 1526.15,1880.50"/>
    </edge>
    <edge id="20005" from="10" to="11" priority="-1" type="1" spreadType="center" shape="977.76,1458.84 952.86,1446.52">
        <lane id="20005_0" index="0" speed="13.89" length="26.84" shape="974.68,1457.31 956.87,1448.51"/>
    </edge>
    <edge id="21" from="21-SourceNode" to="21-DestinationNode" priority="-1" type="1" spreadType="center">
        <lane id="21_0" index="0" speed="13.89" length="21.25" shape="936.42,1495.48 945.19,1476.12"/>
    </edge>
    <edge id="22" from="22-SourceNode" to="22-DestinationNode" priority="-1" type="1" spreadType="center">
        <lane id="22_0" index="0" speed="13.89" length="19.36" shape="945.96,1498.37 954.11,1480.80"/>
        <lane id="22_1" index="1" speed="13.89" length="19.36" shape="948.96,1499.76 957.10,1482.19"/>
    </edge>
    <edge id="23" from="23-SourceNode" to="23-DestinationNode" priority="-1" type="1" spreadType="center">
        <lane id="23_0" index="0" speed="13.89" length="6.84" shape="1193.48,1487.53 1199.45,1490.86"/>
    </edge>
    <edge id="24" from="24-SourceNode" to="24-DestinationNode" priority="-1" type="1" spreadType="center">
        <lane id="24_0" index="0" speed="13.89" length="28.21" shape="968.45,1379.72 993.97,1391.75"/>
    </edge>
    <edge id="25" from="25-SourceNode" to="25-DestinationNode" priority="-1" type="1" spreadType="center" shape="1043.12,1517.43 1025.55,1509.42 1014.46,1508.69 1005.38,1519.20">
        <lane id="25_0" index="0" speed="13.89" length="44.31" shape="1042.44,1518.93 1025.14,1511.05 1015.17,1510.39 1006.63,1520.27"/>
        <lane id="25_1" index="1" speed="13.89" length="44.31" shape="1043.80,1515.93 1025.96,1507.79 1013.75,1506.99 1004.13,1518.12"/>
    </edge>
    <edge id="26[0]" from="15" to="9" priority="-1" type="1" spreadType="center" shape="1113.77,1504.09 1167.73,1531.16 1172.60,1535.60 1175.28,1539.08 1177.32,1544.75 1178.38,1549.36 1194.99,1553.33">
        <lane id="26[0]_0" index="0" speed="13.89" length="127.01" shape="1094.94,1492.80 1168.68,1529.78 1173.82,1534.48 1176.75,1538.28 1178.90,1544.29 1179.76,1547.99 1180.83,1548.24"/>
        <lane id="26[0]_1" index="1" speed="13.89" length="127.01" shape="1093.46,1495.75 1166.79,1532.53 1171.38,1536.72 1173.81,1539.88 1175.73,1545.22 1177.01,1550.72 1180.06,1551.45"/>
    </edge>
    <edge id="26[1][0]" from="9" to="23" priority="-1" type="1" spreadType="center" shape="1193.61,1556.33 1177.47,1558.03 1172.06,1566.05 1141.34,1600.79 1111.23,1635.26 1071.21,1672.36 975.03,1752.93">
        <lane id="26[1][0]_0" index="0" speed="13.89" length="298.09" shape="1181.44,1559.27 1178.41,1559.59 1173.36,1567.07 1142.57,1601.88 1112.42,1636.41 1072.30,1673.59 976.74,1753.65"/>
        <lane id="26[1][0]_1" index="1" speed="13.89" length="298.09" shape="1181.09,1555.99 1176.54,1556.47 1170.75,1565.04 1140.10,1599.70 1110.05,1634.11 1070.12,1671.12 974.62,1751.12"/>
    </edge>
    <edge id="26[1][1][0]" from="23" to="24" priority="-1" type="1" spreadType="center">
        <lane id="26[1][1][0]_0" index="0" speed="13.89" length="33.45" shape="963.19,1758.34 947.07,1763.35"/>
        <lane id="26[1][1][0]_1" index="1" speed="13.89" length="33.45" shape="962.21,1755.19 946.09,1760.20"/>
    </edge>
    <edge id="26[1][1][1][0]" from="24" to="21" priority="-1" type="1" spreadType="center" shape="943.09,1762.86 933.65,1787.60 772.11,1922.68">
        <lane id="26[1][1][1][0]_0" index="0" speed="13.89" length="237.05" shape="943.53,1766.32 935.04,1788.59 786.93,1912.44"/>
        <lane id="26[1][1][1][0]_1" index="1" speed="13.89" length="237.05" shape="940.45,1765.15 932.26,1786.61 784.81,1909.91"/>
    </edge>
    <edge id="26[1][1][1][1]" from="21" to="26-end" priority="-1" type="1" spreadType="center" shape="772.11,1922.68 766.64,1927.26 731.27,1952.27">
        <lane id="26[1][1][1][1]_0" index="0" speed="13.89" length="50.45" shape="764.50,1930.79 732.22,1953.62"/>
        <lane id="26[1][1][1][1]_1" index="1" speed="13.89" length="50.45" shape="762.38,1928.25 730.32,1950.92"/>
    </edge>
    <edge id="27" from="27-SourceNode" to="27-DestinationNode" priority="-1" type="4" spreadType="center">
        <lane id="27_0" index="0" speed="13.89" length="29.32" shape="1160.08,1550.96 1186.19,1564.29"/>
    </edge>
    <edge id="28" from="28-SourceNode" to="28-DestinationNode" priority="-1" type="4" spreadType="center">
        <lane id="28_0" index="0" speed="13.89" length="29.32" shape="1185.57,1566.25 1159.46,1552.91"/>
    </edge>
    <edge id="29" from="29-SourceNode" to="29-DestinationNode" priority="-1" type="4" spreadType="center">
        <lane id="29_0" index="0" speed="13.89" length="54.25" shape="1180.34,1570.73 1215.21,1529.17"/>
    </edge>
    <edge id="30" from="30-SourceNode" to="30-DestinationNode" priority="-1" type="4" spreadType="center">
        <lane id="30_0" index="0" speed="13.89" length="54.25" shape="1218.02,1530.39 1183.16,1571.95"/>
    </edge>
    <edge id="30001[0]" from="48" to="46" priority="-1" type="11" spreadType="center" shape="313.62,1179.66 366.07,1180.64 409.52,1181.71 436.06,1182.36 469.32,1184.48 479.07,1186.22">
        <lane id="30001[0]_0" index="0" speed="13.89" length="182.25" shape="314.29,1178.02 366.10,1178.99 409.56,1180.06 436.13,1180.71 469.52,1182.84 489.70,1186.44"/>
        <lane id="30001[0]_1" index="1" speed="13.89" length="182.25" shape="314.23,1181.32 366.03,1182.29 409.48,1183.36 435.99,1184.01 469.12,1186.12 489.12,1189.69"/>
    </edge>
    <edge id="30001[1][0]" from="46" to="49" priority="-1" type="11" spreadType="center" shape="479.07,1186.22 483.20,1186.96 489.57,1190.54">
        <lane id="30001[1][0]_0" index="0" speed="13.89" length="9.41" shape="486.69,1187.03 486.86,1187.13"/>
        <lane id="30001[1][0]_1" index="1" speed="13.89" length="9.41" shape="485.78,1189.10 485.97,1189.13"/>
    </edge>
    <edge id="30001[1][1][0]" from="49" to="47" priority="-1" type="11" spreadType="center" shape="489.57,1190.54 497.84,1190.85 506.83,1193.49 526.37,1195.61">
        <lane id="30001[1][1][0]_0" index="0" speed="13.89" length="37.30" shape="490.75,1188.93 498.11,1189.21 507.15,1191.86 522.23,1193.50"/>
        <lane id="30001[1][1][0]_1" index="1" speed="13.89" length="37.30" shape="490.63,1192.23 497.58,1192.49 506.51,1195.11 524.19,1197.03"/>
    </edge>
    <edge id="30001[1][1][1]" from="47" to="30" priority="-1" type="11" spreadType="center" shape="526.37,1195.61 530.02,1202.23 544.76,1209.50 732.61,1306.79">
        <lane id="30001[1][1][1]_0" index="0" speed="13.89" length="240.51" shape="527.91,1194.98 531.21,1200.98 545.50,1208.03 737.59,1307.51"/>
        <lane id="30001[1][1][1]_1" index="1" speed="13.89" length="240.51" shape="525.02,1196.57 528.82,1203.48 544.01,1210.97 736.08,1310.44"/>
    </edge>
    <edge id="30002" from="48" to="50" priority="-1" type="11" spreadType="center" shape="318.60,1173.36 427.69,1176.19">
        <lane id="30002_0" index="0" speed="13.89" length="149.93" shape="317.44,1171.68 459.12,1175.35"/>
        <lane id="30002_1" index="1" speed="13.89" length="149.93" shape="317.36,1174.97 459.03,1178.65"/>
    </edge>
    <edge id="30003" from="51" to="44" priority="-1" type="11" spreadType="center" shape="280.20,1183.74 369.11,1185.71 435.71,1187.50 455.99,1189.15">
        <lane id="30003_0" index="0" speed="13.89" length="223.08" shape="277.73,1183.68 369.11,1185.71 435.71,1187.50 477.31,1190.88"/>
    </edge>
    <edge id="30004[0]" from="12" to="52" priority="-1" type="11" spreadType="center" shape="666.17,1291.22 586.78,1249.74 579.14,1245.61">
        <lane id="30004[0]_0" index="0" speed="13.89" length="100.78" shape="667.51,1293.78 586.01,1251.19 579.68,1247.78"/>
        <lane id="30004[0]_1" index="1" speed="13.89" length="100.78" shape="669.04,1290.86 587.56,1248.28 581.25,1244.87"/>
    </edge>
    <edge id="30004[1][0]" from="52" to="53" priority="-1" type="11" spreadType="center" shape="579.14,1245.61 557.63,1234.00 519.24,1216.17 495.95,1208.73 472.03,1204.31 458.48,1195.25">
        <lane id="30004[1][0]_0" index="0" speed="13.89" length="121.43" shape="577.04,1246.35 556.89,1235.48 518.64,1217.71 495.55,1210.34 477.21,1206.94"/>
        <lane id="30004[1][0]_1" index="1" speed="13.89" length="121.43" shape="578.61,1243.45 558.37,1232.53 519.84,1214.63 496.35,1207.13 479.15,1203.95"/>
    </edge>
    <edge id="30004[1][1][0]" from="53" to="45" priority="-1" type="11" spreadType="center" shape="458.48,1195.25 453.95,1202.20 435.40,1201.13 422.56,1205.51">
        <lane id="30004[1][1][0]_0" index="0" speed="13.89" length="33.67" shape="455.00,1203.60 454.81,1203.90 436.79,1202.86"/>
        <lane id="30004[1][1][0]_1" index="1" speed="13.89" length="33.67" shape="451.44,1200.40 435.69,1199.49"/>
    </edge>
    <edge id="30004[1][1][1]" from="45" to="30004-end" priority="-1" type="11" spreadType="center" shape="422.56,1205.51 270.08,1196.81 255.92,1196.17">
        <lane id="30004[1][1][1]_0" index="0" speed="13.89" length="179.51" shape="431.86,1207.69 270.00,1198.46 255.85,1197.82"/>
        <lane id="30004[1][1][1]_1" index="1" speed="13.89" length="179.51" shape="432.04,1204.40 270.17,1195.17 256.00,1194.52"/>
    </edge>
    <edge id="30005" from="30005-begin" to="51" priority="-1" type="11" spreadType="center" shape="0.00,1175.29 242.85,1178.35 267.38,1178.74 272.38,1178.86">
        <lane id="30005_0" index="0" speed="13.89" length="277.65" shape="0.02,1173.64 242.87,1176.70 267.41,1177.09 274.89,1177.27"/>
        <lane id="30005_1" index="1" speed="13.89" length="277.65" shape="-0.02,1176.94 242.83,1180.00 267.35,1180.39 274.80,1180.57"/>
    </edge>
    <edge id="30006" from="30006-begin" to="54" priority="-1" type="11" spreadType="center" shape="279.20,906.04 380.18,917.92">
        <lane id="30006_0" index="0" speed="13.89" length="105.85" shape="279.39,904.40 382.39,916.52"/>
        <lane id="30006_1" index="1" speed="13.89" length="105.85" shape="279.00,907.67 382.01,919.80"/>
    </edge>
    <edge id="30007[0]" from="55" to="56" priority="-1" type="11" spreadType="center" shape="521.91,761.43 512.88,830.82 512.50,834.36">
        <lane id="30007[0]_0" index="0" speed="13.89" length="73.65" shape="523.54,761.64 514.51,831.03 514.30,833.04"/>
        <lane id="30007[0]_1" index="1" speed="13.89" length="73.65" shape="520.27,761.22 511.24,830.61 511.02,832.69"/>
    </edge>
    <edge id="30007[1][0]" from="56" to="57" priority="-1" type="11" spreadType="center" shape="512.50,834.36 508.52,870.62 505.72,906.79 501.69,960.85 486.79,979.77">
        <lane id="30007[1][0]_0" index="0" speed="13.89" length="115.27" shape="513.98,836.03 510.17,870.77 507.37,906.92 505.32,934.38"/>
        <lane id="30007[1][0]_1" index="1" speed="13.89" length="115.27" shape="510.70,835.67 506.88,870.47 504.08,906.67 502.18,932.13"/>
    </edge>
    <edge id="30007[1][1][0]" from="57" to="58" priority="-1" type="11" spreadType="center">
        <lane id="30007[1][1][0]_0" index="0" speed="13.89" length="134.08" shape="483.76,937.40 497.65,1062.83"/>
        <lane id="30007[1][1][0]_1" index="1" speed="13.89" length="134.08" shape="480.48,937.77 494.37,1063.19"/>
    </edge>
    <edge id="30007[1][1][1][0]" from="58" to="44" priority="-1" type="11" spreadType="center" shape="494.96,1053.52 494.30,1062.59 489.78,1119.51 486.43,1154.76 481.32,1198.30 480.74,1211.12">
        <lane id="30007[1][1][1][0]_0" index="0" speed="13.89" length="151.22" shape="495.84,1063.95 491.42,1119.65 488.07,1154.94 484.17,1188.15"/>
        <lane id="30007[1][1][1][0]_1" index="1" speed="13.89" length="151.22" shape="493.31,1053.40 492.65,1062.47 488.13,1119.36 484.79,1154.59 480.87,1188.00"/>
    </edge>
    <edge id="30007[1][1][1][1]" from="44" to="30007-end" priority="-1" type="11" spreadType="center" shape="480.74,1211.12 477.82,1226.05 472.91,1278.62">
        <lane id="30007[1][1][1][1]_0" index="0" speed="13.89" length="68.01" shape="481.84,1214.13 479.46,1226.28 474.55,1278.78"/>
        <lane id="30007[1][1][1][1]_1" index="1" speed="13.89" length="68.01" shape="478.60,1213.49 476.19,1225.81 471.27,1278.47"/>
    </edge>
    <edge id="30008" from="52" to="50" priority="-1" type="11" spreadType="center" shape="564.81,1231.22 544.66,1221.34 519.29,1209.94 506.25,1205.63 500.02,1203.66 497.86,1203.09 496.04,1202.72 491.65,1201.92">
        <lane id="30008_0" index="0" speed="13.89" length="146.48" shape="564.08,1232.70 543.96,1222.84 518.70,1211.48 505.74,1207.20 499.55,1205.24 497.49,1204.69 495.74,1204.34 467.54,1199.19"/>
        <lane id="30008_1" index="1" speed="13.89" length="146.48" shape="565.53,1229.74 545.36,1219.85 519.89,1208.40 506.76,1204.06 500.48,1202.07 498.24,1201.48 496.35,1201.10 468.13,1195.95"/>
    </edge>
    <edge id="30009[0]" from="30009-begin" to="59" priority="-1" type="11" spreadType="center" shape="396.29,1820.89 388.86,1790.63 383.02,1759.84 379.30,1729.58 376.65,1697.21 375.05,1660.05 377.71,1620.77 381.95,1585.20 394.69,1541.15 413.27,1484.88 429.20,1431.27 439.32,1390.52 449.90,1343.15 451.72,1322.80">
        <lane id="30009[0]_0" index="0" speed="13.89" length="509.84" shape="394.68,1821.28 387.24,1790.98 381.38,1760.10 377.66,1729.75 375.00,1697.31 373.40,1660.03 376.06,1620.61 380.33,1584.87 393.12,1540.66 411.70,1484.39 427.60,1430.83 437.71,1390.14 448.26,1342.90 449.95,1324.14"/>
        <lane id="30009[0]_1" index="1" speed="13.89" length="509.84" shape="397.89,1820.49 390.47,1790.28 384.65,1759.59 380.94,1729.42 378.29,1697.10 376.71,1660.07 379.35,1620.92 383.58,1585.53 396.27,1541.63 414.85,1485.37 430.79,1431.70 440.93,1390.90 451.53,1343.41 453.23,1324.44"/>
    </edge>
    <edge id="30009[1][0]" from="59" to="50" priority="-1" type="11" spreadType="center" shape="451.72,1322.80 456.00,1275.06 460.88,1227.44 464.07,1175.00">
        <lane id="30009[1][0]_0" index="0" speed="13.89" length="148.34" shape="450.21,1321.16 454.36,1274.90 459.23,1227.31 460.79,1201.70"/>
        <lane id="30009[1][0]_1" index="1" speed="13.89" length="148.34" shape="453.50,1321.45 457.65,1275.22 462.52,1227.58 464.09,1201.90"/>
    </edge>
    <edge id="30009[1][1][0]" from="50" to="60" priority="-1" type="11" spreadType="center" shape="464.07,1175.00 467.41,1167.49 470.48,1133.81 472.92,1100.32 475.17,1069.23">
        <lane id="30009[1][1][0]_0" index="0" speed="13.89" length="118.41" shape="463.12,1173.08 465.79,1167.07 468.84,1133.68 471.27,1100.20 474.15,1060.34"/>
        <lane id="30009[1][1][0]_1" index="1" speed="13.89" length="118.41" shape="466.13,1174.42 469.03,1167.91 472.13,1133.94 474.57,1100.44 477.45,1060.57"/>
    </edge>
    <edge id="30009[1][1][1][0]" from="60" to="61" priority="-1" type="11" spreadType="center" shape="475.17,1069.23 482.10,973.28 484.50,945.10 458.45,924.36">
        <lane id="30009[1][1][1][0]_0" index="0" speed="13.89" length="151.81" shape="474.15,1060.34 480.45,973.15 482.78,945.84 461.03,928.52"/>
        <lane id="30009[1][1][1][0]_1" index="1" speed="13.89" length="151.81" shape="477.45,1060.57 483.74,973.41 486.21,944.36 463.08,925.94"/>
    </edge>
    <edge id="30009[1][1][1][1]" from="61" to="30009-end" priority="-1" type="11" spreadType="center" shape="458.45,924.36 491.58,878.54 499.99,814.80 514.91,715.29">
        <lane id="30009[1][1][1][1]_0" index="0" speed="13.89" length="221.45" shape="459.81,919.67 490.00,877.91 498.36,814.56 513.28,715.05"/>
        <lane id="30009[1][1][1][1]_1" index="1" speed="13.89" length="221.45" shape="462.49,921.60 493.16,879.17 501.62,815.03 516.54,715.54"/>
    </edge>
    <edge id="30010" from="60" to="62" priority="-1" type="11" spreadType="center" shape="471.87,1048.35 477.18,975.81 478.85,954.35">
        <lane id="30010_0" index="0" speed="13.89" length="122.65" shape="471.23,1057.12 477.18,975.81 479.52,945.66"/>
    </edge>
    <edge id="30012" from="52" to="44" priority="-1" type="11" spreadType="center" shape="561.80,1241.56 553.34,1237.17 535.30,1228.88 525.21,1224.19 516.75,1220.35 509.21,1217.74 492.36,1212.84">
        <lane id="30012_0" index="0" speed="13.89" length="105.03" shape="561.80,1241.56 553.34,1237.17 535.30,1228.88 525.21,1224.19 516.75,1220.35 509.21,1217.74 485.76,1210.92"/>
    </edge>
    <edge id="30014" from="57" to="53" priority="-1" type="11" spreadType="center" shape="490.49,1023.99 488.01,1058.95 484.44,1106.55 479.10,1162.75">
        <lane id="30014_0" index="0" speed="13.89" length="283.70" shape="498.40,936.16 489.65,1059.07 486.09,1106.69 477.16,1200.57"/>
        <lane id="30014_1" index="1" speed="13.89" length="283.70" shape="495.07,936.44 486.36,1058.83 482.80,1106.41 473.88,1200.26"/>
    </edge>
    <edge id="30015" from="51" to="48" priority="-1" type="11" spreadType="center" shape="276.93,1177.33 313.08,1178.03">
        <lane id="30015_0" index="0" speed="13.89" length="45.52" shape="276.99,1174.03 314.36,1174.76"/>
        <lane id="30015_1" index="1" speed="13.89" length="45.52" shape="275.65,1177.31 314.29,1178.06"/>
        <lane id="30015_2" index="2" speed="13.89" length="45.52" shape="277.13,1180.64 314.23,1181.36"/>
    </edge>
    <edge id="30016" from="54" to="61" priority="-1" type="11" spreadType="center" shape="387.55,915.74 459.68,924.51">
        <lane id="30016_0" index="0" speed="13.89" length="75.59" shape="385.74,913.86 455.26,922.31"/>
        <lane id="30016_1" index="1" speed="13.89" length="75.59" shape="385.34,917.13 454.86,925.59"/>
    </edge>
    <edge id="30017" from="54" to="57" priority="-1" type="11" spreadType="center" shape="386.90,922.26 454.47,930.26 469.97,932.13">
        <lane id="30017_0" index="0" speed="13.89" length="107.91" shape="381.98,920.02 454.66,928.62 477.82,931.41"/>
        <lane id="30017_1" index="1" speed="13.89" length="107.91" shape="386.71,923.90 454.28,931.90 477.43,934.69"/>
    </edge>
    <edge id="30018" from="62" to="30018-end" priority="-1" type="11" spreadType="center" shape="468.60,939.64 380.96,929.24 372.36,927.46 363.77,925.68 331.14,922.64">
        <lane id="30018_0" index="0" speed="13.89" length="150.43" shape="476.74,942.27 380.69,930.87 372.03,929.07 363.52,927.31 330.99,924.28"/>
        <lane id="30018_1" index="1" speed="13.89" length="150.43" shape="477.13,938.99 381.22,927.61 372.70,925.84 364.01,924.05 331.30,921.00"/>
    </edge>
    <edge id="30019" from="59" to="53" priority="-1" type="11" spreadType="center" shape="448.58,1304.79 448.90,1300.31 450.93,1275.59 457.45,1214.50">
        <lane id="30019_0" index="0" speed="13.89" length="126.51" shape="448.58,1304.79 448.90,1300.31 450.93,1275.59 458.46,1205.08"/>
    </edge>
    <edge id="30020" from="59" to="49" priority="-1" type="11" spreadType="center" shape="458.17,1306.62 458.66,1300.64 460.71,1275.43 467.86,1209.63">
        <lane id="30020_0" index="0" speed="13.89" length="150.62" shape="458.17,1306.62 458.66,1300.64 460.71,1275.43 469.51,1194.43"/>
    </edge>
    <edge id="30021" from="58" to="49" priority="-1" type="11" spreadType="center" shape="497.86,1073.57 493.74,1123.31 489.40,1169.27">
        <lane id="30021_0" index="0" speed="13.89" length="128.33" shape="498.62,1064.30 493.74,1123.31 488.05,1183.64"/>
    </edge>
    <edge id="30022" from="56" to="62" priority="-1" type="11" spreadType="center" shape="503.86,855.31 498.60,917.23">
        <lane id="30022_0" index="0" speed="13.89" length="123.92" shape="505.51,855.45 498.48,938.24"/>
        <lane id="30022_1" index="1" speed="13.89" length="123.92" shape="502.22,855.17 495.19,937.96"/>
    </edge>
    <edge id="30023" from="63" to="55" priority="-1" type="11" spreadType="center" shape="542.37,609.98 521.89,761.20">
        <lane id="30023_0" index="0" speed="13.89" length="148.11" shape="542.59,620.64 523.52,761.42"/>
        <lane id="30023_1" index="1" speed="13.89" length="148.11" shape="539.32,620.20 520.25,760.98"/>
    </edge>
    <edge id="30024" from="30024-begin" to="63" priority="-1" type="11" spreadType="center" shape="517.19,610.60 538.40,613.51">
        <lane id="30024_0" index="0" speed="13.89" length="25.04" shape="517.19,610.60 537.13,613.34"/>
    </edge>
    <edge id="30025" from="30025-begin" to="63" priority="-1" type="11" spreadType="center" shape="563.54,620.64 545.22,617.88">
        <lane id="30025_0" index="0" speed="13.89" length="23.07" shape="563.54,620.64 546.15,618.02"/>
    </edge>