<?xml version="1.0"?>

<!-- generated on 10/14/08 16:04:09 by SUMO netconvert Version dev-SVN-r6134
<configuration>

   <input>
      <vissim-file>vissim.inp</vissim-file>
   </input>

   <output>
      <output-file>net.net.xml</output-file>
   </output>

   <report>
      <verbose>true</verbose>
   </report>

</configuration>
-->

<net>

   <net-offset>749.69,1632.80</net-offset>
   <conv-boundary>0.00,0.00,1936.91,2334.07</conv-boundary>
   <orig-boundary>-749.69,-1632.80,1187.22,701.26</orig-boundary>
   <orig-proj>!</orig-proj>

   <node_count>200</node_count>


   <edge id="10" from="10-SourceNode" to="10-DestinationNode" priority="-1" type="1" function="normal">
      <lanes>
         <lane id="10_0" depart="1" vclasses="" maxspeed="13.89" length="1273.79">701.94,1951.75 744.04,1925.36 839.60,1845.09 849.51,1832.62 861.68,1813.21 873.57,1786.01 914.14,1690.08 922.92,1666.02 932.52,1630.83 935.87,1620.65 1003.96,1474.29 1007.90,1468.31 1012.24,1463.42 1017.82,1458.67 1023.39,1455.68 1029.23,1452.96 1036.70,1451.33 1043.36,1451.46 1050.29,1452.55 1059.40,1455.54 1162.69,1507.87 1194.01,1524.72 1241.04,1548.62 1381.61,1608.63 1389.61,1614.71 1394.71,1620.91 1398.92,1629.22 1400.92,1637.99 1405.61,1735.86 1405.50,1746.41 1403.96,1753.93 1401.06,1761.65 1341.27,1853.85</lane>
      </lanes>
   </edge>

   <edge id="100" from="100-SourceNode" to="100-DestinationNode" priority="-1" type="4" function="normal">
      <lanes>
         <lane id="100_0" depart="1" vclasses="" maxspeed="13.89" length="32.63">1727.48,1819.41 1708.56,1792.82</lane>
      </lanes>
   </edge>

   <edge id="101" from="46" to="47" priority="-1" type="1" function="normal">
      <lanes>
         <lane id="101_0" depart="1" vclasses="" maxspeed="13.89" length="69.48">461.05,1207.93 444.64,1206.35 391.69,1204.33</lane>
      </lanes>
   </edge>

   <edge id="102" from="48" to="49" priority="-1" type="1" function="normal">
      <lanes>
         <lane id="102_0" depart="1" vclasses="" maxspeed="13.89" length="49.81">479.07,1186.22 502.82,1187.45 508.19,1188.91 526.88,1195.80 526.37,1195.61</lane>
      </lanes>
   </edge>

   <edge id="11" from="21" to="22" priority="-1" type="1" function="normal">
      <lanes>
         <lane id="11_0" depart="1" vclasses="" maxspeed="13.89" length="1804.03">786.07,1920.85 1340.11,1848.26 1397.98,1758.37 1400.49,1751.62 1401.83,1745.83 1402.22,1739.47 1398.37,1647.18 1397.59,1636.31 1395.82,1628.99 1392.27,1622.03 1388.39,1617.48 1381.74,1611.94 1239.40,1551.14 1195.08,1528.44 1161.36,1510.66 1057.90,1458.26 1048.12,1455.40 1039.69,1454.45 1033.44,1455.27 1026.51,1457.31 1021.76,1460.02 1017.00,1463.42 1012.92,1467.23 1008.03,1473.75 940.42,1622.19 937.47,1630.83 927.29,1667.48 919.51,1689.64 864.84,1817.27 851.89,1837.53 840.59,1850.60 795.97,1886.54 746.63,1927.60 717.65,1945.85</lane>
      </lanes>
   </edge>

   <edge id="12" from="12-SourceNode" to="12-DestinationNode" priority="-1" type="4" function="normal">
      <lanes>
         <lane id="12_0" depart="1" vclasses="" maxspeed="13.89" length="49.13">975.16,1467.89 997.79,1424.28</lane>
      </lanes>
   </edge>

   <edge id="13" from="13-SourceNode" to="13-DestinationNode" priority="-1" type="4" function="normal">
      <lanes>
         <lane id="13_0" depart="1" vclasses="" maxspeed="13.89" length="49.13">1001.16,1425.89 978.53,1469.49</lane>
      </lanes>
   </edge>

   <edge id="14" from="14-SourceNode" to="14-DestinationNode" priority="-1" type="5" function="normal">
      <lanes>
         <lane id="14_0" depart="1" vclasses="" maxspeed="13.89" length="133.19">1087.01,1462.73 1059.00,1448.93 1053.62,1447.09 1049.93,1446.35 1045.18,1445.99 1041.07,1445.83 1037.41,1445.76 1032.87,1445.39 1029.12,1444.69 1024.85,1443.66 1019.58,1441.79 1003.46,1434.23 964.10,1414.98</lane>
      </lanes>
   </edge>

   <edge id="15" from="15-SourceNode" to="15-DestinationNode" priority="-1" type="1" function="normal">
      <lanes>
         <lane id="15_0" depart="1" vclasses="" maxspeed="13.89" length="36.84">994.90,1424.74 1028.35,1440.20</lane>
      </lanes>
   </edge>

   <edge id="16" from="16-SourceNode" to="16-DestinationNode" priority="-1" type="1" function="normal">
      <lanes>
         <lane id="16_0" depart="1" vclasses="" maxspeed="13.89" length="36.85">1027.43,1442.19 993.98,1426.74</lane>
      </lanes>
   </edge>

   <edge id="17" from="17-SourceNode" to="17-DestinationNode" priority="-1" type="4" function="normal">
      <lanes>
         <lane id="17_0" depart="1" vclasses="" maxspeed="13.89" length="31.93">1010.97,1483.20 981.89,1470.03</lane>
      </lanes>
   </edge>

   <edge id="18" from="18-SourceNode" to="18-DestinationNode" priority="-1" type="4" function="normal">
      <lanes>
         <lane id="18_0" depart="1" vclasses="" maxspeed="13.89" length="31.93">983.10,1468.22 1012.19,1481.40</lane>
      </lanes>
   </edge>

   <edge id="19" from="19-SourceNode" to="19-DestinationNode" priority="-1" type="1" function="normal">
      <lanes>
         <lane id="19_0" depart="1" vclasses="" maxspeed="13.89" length="2.08">998.18,1481.80 998.97,1479.88</lane>
      </lanes>
   </edge>

   <edge id="2" from="2-Begin" to="1" priority="-1" type="1" function="normal">
      <lanes>
         <lane id="2_0" depart="1" vclasses="" maxspeed="13.89" length="93.89">1005.70,1345.59 1008.45,1365.41 1015.83,1382.64 1024.77,1396.87 1028.53,1407.21 1028.80,1417.79 1020.79,1434.02</lane>
         <lane id="2_1" depart="0" vclasses="" maxspeed="13.89" length="93.89">1002.43,1346.04 1005.24,1366.31 1012.90,1384.17 1021.79,1398.33 1025.25,1407.83 1025.48,1417.05 1018.14,1431.93</lane>
      </lanes>
   </edge>

   <edge id="20" from="20-SourceNode" to="20-DestinationNode" priority="-1" type="1" function="normal">
      <lanes>
         <lane id="20_0" depart="1" vclasses="" maxspeed="13.89" length="2.11">1046.62,1457.59 1044.60,1457.00</lane>
      </lanes>
   </edge>

   <edge id="20000" from="1" to="16" priority="-1" type="1" function="normal">
      <lanes>
         <lane id="20000_0" depart="1" vclasses="" maxspeed="13.89" length="62.12">1036.75,1457.11 1042.00,1459.03 1093.07,1483.27</lane>
      </lanes>
   </edge>

   <edge id="20001+3[1][1][1][1][1][0]" from="7" to="8" priority="0" type="" function="normal">
      <lanes>
         <lane id="20001+3[1][1][1][1][1][0]_0" depart="1" vclasses="" maxspeed="13.89" length="52.39">1452.75,1681.16 1409.76,1651.22</lane>
         <lane id="20001+3[1][1][1][1][1][0]_1" depart="0" vclasses="" maxspeed="13.89" length="52.39">1454.64,1678.46 1411.64,1648.52</lane>
         <lane id="20001+3[1][1][1][1][1][0]_2" depart="0" vclasses="" maxspeed="13.89" length="52.39">1456.53,1675.75 1413.53,1645.81</lane>
      </lanes>
   </edge>

   <edge id="20002+6[1][1][1][0]" from="17" to="18" priority="0" type="" function="normal">
      <lanes>
         <lane id="20002+6[1][1][1][0]_0" depart="1" vclasses="" maxspeed="13.89" length="77.80">1404.18,1624.24 1469.79,1666.04</lane>
         <lane id="20002+6[1][1][1][0]_1" depart="0" vclasses="" maxspeed="13.89" length="77.80">1402.40,1627.02 1468.02,1668.82</lane>
         <lane id="20002+6[1][1][1][0]_2" depart="0" vclasses="" maxspeed="13.89" length="77.80">1400.63,1629.80 1466.25,1671.60</lane>
      </lanes>
   </edge>

   <edge id="20003+31[1][0]" from="25" to="26" priority="0" type="" function="normal">
      <lanes>
         <lane id="20003+31[1][0]_0" depart="1" vclasses="" maxspeed="13.89" length="21.68">712.67,1935.26 727.68,1919.61</lane>
         <lane id="20003+31[1][0]_1" depart="0" vclasses="" maxspeed="13.89" length="21.68">715.05,1937.54 730.06,1921.90</lane>
         <lane id="20003+31[1][0]_2" depart="0" vclasses="" maxspeed="13.89" length="21.68">717.43,1939.83 732.44,1924.18</lane>
      </lanes>
   </edge>

   <edge id="20004+3[1][0]" from="3" to="4" priority="0" type="" function="normal">
      <lanes>
         <lane id="20004+3[1][0]_0" depart="1" vclasses="" maxspeed="13.89" length="7.59">1524.80,1882.02 1520.57,1875.72</lane>
         <lane id="20004+3[1][0]_1" depart="0" vclasses="" maxspeed="13.89" length="7.59">1527.54,1880.18 1523.31,1873.88</lane>
         <lane id="20004+3[1][0]_2" depart="0" vclasses="" maxspeed="13.89" length="7.59">1530.28,1878.34 1526.05,1872.04</lane>
      </lanes>
   </edge>

   <edge id="20005+3[1][1][1][1][1][1][1][1][1][1][0]" from="10" to="11" priority="0" type="" function="normal">
      <lanes>
         <lane id="20005+3[1][1][1][1][1][1][1][1][1][1][0]_0" depart="1" vclasses="" maxspeed="13.89" length="31.09">983.57,1459.33 953.83,1450.27</lane>
         <lane id="20005+3[1][1][1][1][1][1][1][1][1][1][0]_1" depart="0" vclasses="" maxspeed="13.89" length="31.09">984.53,1456.18 954.80,1447.11</lane>
         <lane id="20005+3[1][1][1][1][1][1][1][1][1][1][0]_2" depart="0" vclasses="" maxspeed="13.89" length="31.09">985.49,1453.02 955.76,1443.96</lane>
      </lanes>
   </edge>

   <edge id="21" from="21-SourceNode" to="21-DestinationNode" priority="-1" type="1" function="normal">
      <lanes>
         <lane id="21_0" depart="1" vclasses="" maxspeed="13.89" length="21.25">936.41,1495.47 945.19,1476.11</lane>
      </lanes>
   </edge>

   <edge id="22" from="22-SourceNode" to="22-DestinationNode" priority="-1" type="1" function="normal">
      <lanes>
         <lane id="22_0" depart="1" vclasses="" maxspeed="13.89" length="19.36">945.96,1498.37 954.11,1480.80</lane>
         <lane id="22_1" depart="0" vclasses="" maxspeed="13.89" length="19.36">948.96,1499.76 957.10,1482.19</lane>
      </lanes>
   </edge>

   <edge id="23" from="23-SourceNode" to="23-DestinationNode" priority="-1" type="1" function="normal">
      <lanes>
         <lane id="23_0" depart="1" vclasses="" maxspeed="13.89" length="6.84">1193.48,1487.53 1199.45,1490.86</lane>
      </lanes>
   </edge>

   <edge id="24" from="24-SourceNode" to="24-DestinationNode" priority="-1" type="1" function="normal">
      <lanes>
         <lane id="24_0" depart="1" vclasses="" maxspeed="13.89" length="28.21">968.45,1379.72 993.97,1391.75</lane>
      </lanes>
   </edge>

   <edge id="25" from="25-SourceNode" to="25-DestinationNode" priority="-1" type="1" function="normal">
      <lanes>
         <lane id="25_0" depart="1" vclasses="" maxspeed="13.89" length="44.31">1042.44,1518.93 1025.14,1511.05 1015.17,1510.39 1006.63,1520.27</lane>
         <lane id="25_1" depart="0" vclasses="" maxspeed="13.89" length="44.31">1043.80,1515.93 1025.96,1507.79 1013.75,1506.99 1004.13,1518.12</lane>
      </lanes>
   </edge>

   <edge id="26" from="15" to="21" priority="-1" type="1" function="normal">
      <lanes>
         <lane id="26_0" depart="1" vclasses="" maxspeed="13.89" length="648.86">1096.42,1489.79 1114.62,1502.67 1168.68,1529.78 1173.82,1534.48 1176.75,1538.28 1178.90,1544.29 1180.03,1549.14 1180.20,1553.92 1179.01,1558.71 1173.36,1567.07 1142.58,1601.88 1112.42,1636.41 1072.30,1673.59 934.60,1788.96 781.91,1916.64</lane>
         <lane id="26_1" depart="0" vclasses="" maxspeed="13.89" length="648.86">1094.51,1492.48 1112.91,1505.51 1166.79,1532.53 1171.39,1536.72 1173.81,1539.88 1175.73,1545.22 1176.74,1549.58 1176.89,1553.57 1175.94,1557.35 1170.75,1565.04 1140.09,1599.71 1110.05,1634.11 1070.12,1671.12 932.62,1786.31 779.04,1914.73</lane>
      </lanes>
   </edge>

   <edge id="27" from="27-SourceNode" to="27-DestinationNode" priority="-1" type="4" function="normal">
      <lanes>
         <lane id="27_0" depart="1" vclasses="" maxspeed="13.89" length="29.32">1160.08,1550.96 1186.19,1564.29</lane>
      </lanes>
   </edge>

   <edge id="28" from="28-SourceNode" to="28-DestinationNode" priority="-1" type="4" function="normal">
      <lanes>
         <lane id="28_0" depart="1" vclasses="" maxspeed="13.89" length="29.32">1185.57,1566.25 1159.46,1552.91</lane>
      </lanes>
   </edge>

   <edge id="29" from="29-SourceNode" to="29-DestinationNode" priority="-1" type="4" function="normal">
      <lanes>
         <lane id="29_0" depart="1" vclasses="" maxspeed="13.89" length="54.25">1180.34,1570.73 1215.21,1529.17</lane>
      </lanes>
   </edge>

   <edge id="30" from="30-SourceNode" to="30-DestinationNode" priority="-1" type="4" function="normal">
      <lanes>
         <lane id="30_0" depart="1" vclasses="" maxspeed="13.89" length="54.25">1218.02,1530.39 1183.16,1571.95</lane>
      </lanes>
   </edge>

   <edge id="30001[0]" from="50" to="48" priority="-1" type="11" function="normal">
      <lanes>
         <lane id="30001[0]_0" depart="1" vclasses="" maxspeed="13.89" length="165.50">312.49,1176.80 314.17,1178.02 366.12,1178.99 414.39,1180.17 436.15,1180.71 476.36,1184.32</lane>
         <lane id="30001[0]_1" depart="0" vclasses="" maxspeed="13.89" length="165.50">310.37,1179.33 313.06,1181.30 366.01,1182.29 414.39,1183.48 435.96,1184.01 476.07,1187.61</lane>
      </lanes>
   </edge>

   <edge id="30001[1][0]" from="48" to="51" priority="-1" type="11" function="normal">
      <lanes>
         <lane id="30001[1][0]_0" depart="1" vclasses="" maxspeed="13.89" length="11.86">478.59,1184.64 489.94,1181.19</lane>
         <lane id="30001[1][0]_1" depart="0" vclasses="" maxspeed="13.89" length="11.86">479.55,1187.80 490.90,1184.34</lane>
      </lanes>
   </edge>

   <edge id="30001[1][1][0]" from="51" to="49" priority="-1" type="11" function="normal">
      <lanes>
         <lane id="30001[1][1][0]_0" depart="1" vclasses="" maxspeed="13.89" length="33.29">494.02,1184.25 498.67,1189.31 523.61,1193.48</lane>
         <lane id="30001[1][1][0]_1" depart="0" vclasses="" maxspeed="13.89" length="33.29">491.59,1186.48 497.01,1192.38 523.07,1196.73</lane>
      </lanes>
   </edge>

   <edge id="30001[1][1][1]" from="49" to="30" priority="-1" type="11" function="normal">
      <lanes>
         <lane id="30001[1][1][1]_0" depart="1" vclasses="" maxspeed="13.89" length="232.08">529.30,1197.50 531.21,1200.98 545.51,1208.03 731.45,1308.05</lane>
         <lane id="30001[1][1][1]_1" depart="0" vclasses="" maxspeed="13.89" length="232.08">526.41,1199.10 528.82,1203.48 544.01,1210.97 733.04,1305.15</lane>
      </lanes>
   </edge>

   <edge id="30002" from="50" to="52" priority="-1" type="11" function="normal">
      <lanes>
         <lane id="30002_0" depart="1" vclasses="" maxspeed="13.89" length="148.79">310.45,1176.61 318.13,1171.69 427.69,1174.54 458.88,1173.52</lane>
         <lane id="30002_1" depart="0" vclasses="" maxspeed="13.89" length="148.79">312.60,1179.15 319.06,1175.02 427.70,1177.84 458.99,1176.82</lane>
      </lanes>
   </edge>

   <edge id="30003" from="53" to="46" priority="-1" type="11" function="normal">
      <lanes>
         <lane id="30003_0" depart="1" vclasses="" maxspeed="13.89" length="204.62">280.48,1183.74 369.09,1185.71 435.71,1187.50 455.99,1189.15 477.67,1208.40</lane>
      </lanes>
   </edge>

   <edge id="30004[0]" from="12" to="54" priority="-1" type="11" function="normal">
      <lanes>
         <lane id="30004[0]_0" depart="1" vclasses="" maxspeed="13.89" length="195.84">669.91,1295.00 665.41,1292.68 578.40,1247.08 499.62,1208.05</lane>
         <lane id="30004[0]_1" depart="0" vclasses="" maxspeed="13.89" length="195.84">671.43,1292.08 666.92,1289.75 579.89,1244.14 492.85,1201.01</lane>
      </lanes>
   </edge>

   <edge id="30004[1][0]" from="54" to="55" priority="-1" type="11" function="normal">
      <lanes>
         <lane id="30004[1][0]_0" depart="1" vclasses="" maxspeed="13.89" length="32.60">497.98,1211.11 495.42,1210.29 463.15,1198.68</lane>
         <lane id="30004[1][0]_1" depart="0" vclasses="" maxspeed="13.89" length="32.60">490.81,1205.13 464.27,1195.57</lane>
      </lanes>
   </edge>

   <edge id="30004[1][1]" from="55" to="47" priority="-1" type="11" function="normal">
      <lanes>
         <lane id="30004[1][1]_0" depart="1" vclasses="" maxspeed="13.89" length="24.87">453.75,1203.84 435.33,1202.77 414.02,1202.22</lane>
         <lane id="30004[1][1]_1" depart="0" vclasses="" maxspeed="13.89" length="24.87">450.12,1200.32 440.16,1199.75</lane>
      </lanes>
   </edge>

   <edge id="30005" from="30005-Begin" to="53" priority="-1" type="11" function="normal">
      <lanes>
         <lane id="30005_0" depart="1" vclasses="" maxspeed="13.89" length="251.17">0.02,1173.64 242.86,1176.70 251.20,1176.83</lane>
         <lane id="30005_1" depart="0" vclasses="" maxspeed="13.89" length="251.17">-0.02,1176.94 242.83,1180.00 251.10,1180.13</lane>
      </lanes>
   </edge>

   <edge id="30006" from="30006-Begin" to="56" priority="-1" type="11" function="normal">
      <lanes>
         <lane id="30006_0" depart="1" vclasses="" maxspeed="13.89" length="99.51">279.34,904.39 377.74,919.28</lane>
         <lane id="30006_1" depart="0" vclasses="" maxspeed="13.89" length="99.51">279.06,907.68 378.21,916.05</lane>
      </lanes>
   </edge>

   <edge id="30007[0]" from="57" to="58" priority="-1" type="11" function="normal">
      <lanes>
         <lane id="30007[0]_0" depart="1" vclasses="" maxspeed="13.89" length="155.58">523.71,760.07 523.55,761.62 514.14,834.54 506.94,914.69</lane>
         <lane id="30007[0]_1" depart="0" vclasses="" maxspeed="13.89" length="155.58">520.42,759.73 520.27,761.24 510.86,834.18 503.65,914.40</lane>
      </lanes>
   </edge>

   <edge id="30007[1][0]" from="58" to="59" priority="-1" type="11" function="normal">
      <lanes>
         <lane id="30007[1][0]_0" depart="1" vclasses="" maxspeed="13.89" length="47.25">503.36,922.47 491.44,968.44</lane>
         <lane id="30007[1][0]_1" depart="0" vclasses="" maxspeed="13.89" length="47.25">500.05,922.11 488.24,967.61</lane>
      </lanes>
   </edge>

   <edge id="30007[1][1][0]" from="59" to="60" priority="-1" type="11" function="normal">
      <lanes>
         <lane id="30007[1][1][0]_0" depart="1" vclasses="" maxspeed="13.89" length="113.55">496.60,1053.33 496.61,1053.49 488.17,1166.87</lane>
         <lane id="30007[1][1][0]_1" depart="0" vclasses="" maxspeed="13.89" length="113.55">493.29,1053.70 484.88,1166.63</lane>
      </lanes>
   </edge>

   <edge id="30007[1][1][1]" from="60" to="46" priority="-1" type="11" function="normal">
      <lanes>
         <lane id="30007[1][1][1]_0" depart="1" vclasses="" maxspeed="13.89" length="37.25">483.67,1171.53 479.38,1208.52</lane>
         <lane id="30007[1][1][1]_1" depart="0" vclasses="" maxspeed="13.89" length="37.25">482.81,1171.46 479.68,1198.10 478.38,1208.45</lane>
      </lanes>
   </edge>

   <edge id="30008" from="54" to="52" priority="-1" type="11" function="normal">
      <lanes>
         <lane id="30008_0" depart="1" vclasses="" maxspeed="13.89" length="25.60">487.26,1199.94 468.94,1182.06</lane>
         <lane id="30008_1" depart="0" vclasses="" maxspeed="13.89" length="25.60">489.57,1197.58 471.25,1179.70</lane>
      </lanes>
   </edge>

   <edge id="30009[0]" from="61" to="52" priority="-1" type="11" function="normal">
      <lanes>
         <lane id="30009[0]_0" depart="1" vclasses="" maxspeed="13.89" length="131.91">450.81,1314.52 454.36,1274.92 461.75,1183.26</lane>
         <lane id="30009[0]_1" depart="0" vclasses="" maxspeed="13.89" length="131.91">454.06,1315.18 457.65,1275.20 465.04,1183.53</lane>
      </lanes>
   </edge>

   <edge id="30009[1][0]" from="52" to="62" priority="-1" type="11" function="normal">
      <lanes>
         <lane id="30009[1][0]_0" depart="1" vclasses="" maxspeed="13.89" length="214.57">464.09,1170.89 465.79,1167.07 468.84,1133.68 473.52,1069.12 480.18,957.79</lane>
         <lane id="30009[1][0]_1" depart="0" vclasses="" maxspeed="13.89" length="214.57">467.10,1172.23 469.03,1167.91 472.13,1133.94 476.81,1069.33 483.47,957.98</lane>
      </lanes>
   </edge>

   <edge id="30009[1][1]" from="62" to="63" priority="-1" type="11" function="normal">
      <lanes>
         <lane id="30009[1][1]_0" depart="1" vclasses="" maxspeed="13.89" length="455.22">482.18,952.90 482.85,944.94 489.94,878.34 498.36,814.57 509.02,743.41 460.34,923.69</lane>
         <lane id="30009[1][1]_1" depart="0" vclasses="" maxspeed="13.89" length="455.22">485.47,953.14 486.14,945.26 493.22,878.73 501.62,815.03 520.79,687.17 457.16,922.83</lane>
      </lanes>
   </edge>

   <edge id="30010" from="62" to="64" priority="-1" type="11" function="normal">
      <lanes>
         <lane id="30010_0" depart="1" vclasses="" maxspeed="13.89" length="22.00">478.90,953.04 479.67,931.06</lane>
      </lanes>
   </edge>

   <edge id="30012" from="54" to="46" priority="-1" type="11" function="normal">
      <lanes>
         <lane id="30012_0" depart="1" vclasses="" maxspeed="13.89" length="3.32">496.83,1214.14 493.65,1213.22</lane>
      </lanes>
   </edge>

   <edge id="30014" from="59" to="55" priority="-1" type="11" function="normal">
      <lanes>
         <lane id="30014_0" depart="1" vclasses="" maxspeed="13.89" length="140.99">489.94,1054.95 489.65,1059.07 486.09,1106.69 480.71,1163.29 462.85,1191.44</lane>
         <lane id="30014_1" depart="0" vclasses="" maxspeed="13.89" length="140.99">486.62,1055.22 486.36,1058.84 482.80,1106.41 477.50,1162.20 460.06,1189.67</lane>
      </lanes>
   </edge>

   <edge id="30015" from="53" to="50" priority="-1" type="11" function="normal">
      <lanes>
         <lane id="30015_0" depart="1" vclasses="" maxspeed="13.89" length="31.27">280.09,1174.73 311.27,1181.30</lane>
         <lane id="30015_1" depart="0" vclasses="" maxspeed="13.89" length="31.27">280.46,1177.40 303.29,1177.84 311.34,1178.00</lane>
         <lane id="30015_2" depart="0" vclasses="" maxspeed="13.89" length="31.27">280.81,1179.99 311.40,1174.70</lane>
      </lanes>
   </edge>

   <edge id="30016" from="56" to="63" priority="-1" type="11" function="normal">
      <lanes>
         <lane id="30016_0" depart="1" vclasses="" maxspeed="13.89" length="78.65">379.63,915.81 387.47,914.07 458.25,926.00</lane>
         <lane id="30016_1" depart="0" vclasses="" maxspeed="13.89" length="78.65">378.94,919.35 387.63,917.41 456.01,922.53</lane>
      </lanes>
   </edge>

   <edge id="30017" from="56" to="59" priority="-1" type="11" function="normal">
      <lanes>
         <lane id="30017_0" depart="1" vclasses="" maxspeed="13.89" length="130.80">379.37,916.29 387.41,920.66 454.68,928.63 471.18,930.61 484.31,967.78</lane>
         <lane id="30017_1" depart="0" vclasses="" maxspeed="13.89" length="130.80">379.05,919.87 386.39,923.87 454.27,931.90 468.75,933.64 481.20,968.88</lane>
      </lanes>
   </edge>

   <edge id="30018" from="64" to="30018-End" priority="-1" type="11" function="normal">
      <lanes>
         <lane id="30018_0" depart="1" vclasses="" maxspeed="13.89" length="150.60">475.99,930.01 469.49,941.41 380.69,930.87 371.65,929.00 363.52,927.31 330.99,924.28</lane>
         <lane id="30018_1" depart="0" vclasses="" maxspeed="13.89" length="150.60">473.12,928.38 467.71,937.87 381.22,927.61 373.61,926.03 364.01,924.05 331.30,921.00</lane>
      </lanes>
   </edge>

   <edge id="30019" from="61" to="55" priority="-1" type="11" function="normal">
      <lanes>
         <lane id="30019_0" depart="1" vclasses="" maxspeed="13.89" length="109.39">450.32,1314.78 448.58,1304.79 448.90,1300.31 450.93,1275.58 457.45,1214.50 457.91,1205.99</lane>
      </lanes>
   </edge>

   <edge id="30020" from="61" to="51" priority="-1" type="11" function="normal">
      <lanes>
         <lane id="30020_0" depart="1" vclasses="" maxspeed="13.89" length="132.11">454.66,1315.42 458.17,1306.62 458.66,1300.63 460.70,1275.43 467.86,1209.63 484.04,1190.36</lane>
      </lanes>
   </edge>

   <edge id="30021" from="60" to="51" priority="-1" type="11" function="normal">
      <lanes>
         <lane id="30021_0" depart="1" vclasses="" maxspeed="13.89" length="6.48">489.58,1171.60 490.06,1178.06</lane>
      </lanes>
   </edge>

   <edge id="30022" from="58" to="64" priority="-1" type="11" function="normal">
      <lanes>
         <lane id="30022_0" depart="1" vclasses="" maxspeed="13.89" length="10.11">495.05,919.33 482.86,920.84</lane>
         <lane id="30022_1" depart="0" vclasses="" maxspeed="13.89" length="10.11">490.34,916.59 482.46,917.56</lane>
      </lanes>
   </edge>

   <edge id="30023" from="65" to="57" priority="-1" type="11" function="normal" inner="x">
      <lanes>
         <lane id="30023_0" depart="1" vclasses="" maxspeed="13.89" length="147.70">540.39,613.34 520.42,759.73</lane>
         <lane id="30023_1" depart="0" vclasses="" maxspeed="13.89" length="147.70">543.67,613.76 523.71,760.07</lane>
      </lanes>
   </edge>

   <edge id="30024" from="30024-Begin" to="65" priority="-1" type="11" function="normal">
      <lanes>
         <lane id="30024_0" depart="1" vclasses="" maxspeed="13.89" length="23.15">517.19,610.60 538.40,613.51 540.07,614.02</lane>
      </lanes>
   </edge>

   <edge id="30025" from="30025-Begin" to="65" priority="-1" type="11" function="normal">
      <lanes>
         <lane id="30025_0" depart="1" vclasses="" maxspeed="13.89" length="18.87">563.54,620.64 545.22,617.88 544.98,617.63</lane>
      </lanes>
   </edge>

   <edge id="30026" from="30026-Begin" to="65" priority="-1" type="11" function="normal">
      <lanes>
         <lane id="30026_0" depart="1" vclasses="" maxspeed="13.89" length="596.00">627.09,0.22 544.20,609.52 543.66,613.76</lane>
         <lane id="30026_1" depart="0" vclasses="" maxspeed="13.89" length="596.00">623.82,-0.22 546.61,567.35</lane>
      </lanes>
   </edge>

   <edge id="31[0]" from="22" to="25" priority="-1" type="1" function="normal">
      <lanes>
         <lane id="31[0]_0" depart="1" vclasses="" maxspeed="13.89" length="2.02">712.36,1945.55 712.55,1943.14</lane>
         <lane id="31[0]_1" depart="0" vclasses="" maxspeed="13.89" length="2.02">715.71,1945.02 715.84,1943.39</lane>
      </lanes>
   </edge>

   <edge id="31[1][1][0]" from="26" to="27" priority="-1" type="1" function="normal">
      <lanes>
         <lane id="31[1][1][0]_0" depart="1" vclasses="" maxspeed="13.89" length="244.30">734.86,1919.09 744.47,1916.61 800.47,1868.91 817.55,1847.04 842.94,1803.83 881.56,1731.97</lane>
         <lane id="31[1][1][0]_1" depart="0" vclasses="" maxspeed="13.89" length="244.30">735.69,1922.29 746.03,1919.61 802.86,1871.20 820.28,1848.90 845.81,1805.45 884.46,1733.54</lane>
      </lanes>
   </edge>

   <edge id="31[1][1][1][0]" from="27" to="28" priority="-1" type="1" function="normal">
      <lanes>
         <lane id="31[1][1][1][0]_0" depart="1" vclasses="" maxspeed="13.89" length="22.19">887.29,1728.77 898.29,1710.17</lane>
         <lane id="31[1][1][1][0]_1" depart="0" vclasses="" maxspeed="13.89" length="22.19">890.13,1730.45 901.72,1710.85</lane>
      </lanes>
   </edge>

   <edge id="31[1][1][1][1]" from="28" to="13" priority="-1" type="1" function="normal">
      <lanes>
         <lane id="31[1][1][1][1]_0" depart="1" vclasses="" maxspeed="13.89" length="121.45">898.56,1708.98 896.21,1679.57 937.70,1597.23</lane>
         <lane id="31[1][1][1][1]_1" depart="0" vclasses="" maxspeed="13.89" length="121.45">901.94,1709.88 899.57,1680.17 934.73,1595.81</lane>
      </lanes>
   </edge>

   <edge id="32" from="32-SourceNode" to="32-DestinationNode" priority="-1" type="1" function="normal">
      <lanes>
         <lane id="32_0" depart="1" vclasses="" maxspeed="13.89" length="21.31">1220.54,1595.97 1201.51,1586.38</lane>
      </lanes>
   </edge>

   <edge id="33" from="33-SourceNode" to="33-DestinationNode" priority="-1" type="1" function="normal">
      <lanes>
         <lane id="33_0" depart="1" vclasses="" maxspeed="13.89" length="29.77">1176.61,1472.69 1202.56,1487.29</lane>
      </lanes>
   </edge>

   <edge id="34" from="34-SourceNode" to="34-DestinationNode" priority="-1" type="1" function="normal">
      <lanes>
         <lane id="34_0" depart="1" vclasses="" maxspeed="13.89" length="25.50">1173.69,1476.96 1188.58,1485.11 1191.65,1493.06</lane>
      </lanes>
   </edge>

   <edge id="35" from="35-SourceNode" to="35-DestinationNode" priority="-1" type="1" function="normal">
      <lanes>
         <lane id="35_0" depart="1" vclasses="" maxspeed="13.89" length="30.39">1216.64,1496.02 1243.21,1510.77</lane>
      </lanes>
   </edge>

   <edge id="36" from="36-SourceNode" to="36-DestinationNode" priority="-1" type="1" function="normal">
      <lanes>
         <lane id="36_0" depart="1" vclasses="" maxspeed="13.89" length="19.69">1230.41,1549.87 1212.94,1540.78</lane>
      </lanes>
   </edge>

   <edge id="37" from="23" to="28" priority="-1" type="1" function="normal">
      <lanes>
         <lane id="37_0" depart="1" vclasses="" maxspeed="13.89" length="87.52">975.03,1752.93 963.46,1751.58 952.26,1746.17 945.70,1742.75 939.29,1739.04 929.09,1731.89 918.44,1724.29 900.30,1710.01</lane>
      </lanes>
   </edge>

   <edge id="38" from="27" to="24" priority="-1" type="1" function="normal">
      <lanes>
         <lane id="38_0" depart="1" vclasses="" maxspeed="13.89" length="64.18">893.56,1733.25 893.89,1733.14 900.70,1732.79 907.51,1732.87 913.75,1733.54 919.85,1735.37 926.11,1738.80 931.51,1742.81 936.33,1747.40 939.72,1753.46 942.67,1759.67 943.04,1762.47 943.09,1762.86</lane>
      </lanes>
   </edge>

   <edge id="39" from="19" to="39-End" priority="-1" type="1" function="normal">
      <lanes>
         <lane id="39_0" depart="1" vclasses="" maxspeed="8.33" length="64.44">1483.97,1669.50 1484.83,1669.32 1488.72,1669.32 1494.55,1670.57 1499.69,1672.10 1512.75,1676.82 1528.99,1687.24 1543.16,1692.66</lane>
      </lanes>
   </edge>

   <edge id="3[0]+69" from="2" to="3" priority="0" type="" function="normal">
      <lanes>
         <lane id="3[0]+69_0" depart="1" vclasses="" maxspeed="13.89" length="155.20">1625.93,2069.50 1554.90,1931.51</lane>
         <lane id="3[0]+69_1" depart="0" vclasses="" maxspeed="13.89" length="155.20">1628.86,2067.99 1557.83,1930.00</lane>
         <lane id="3[0]+69_2" depart="0" vclasses="" maxspeed="13.89" length="155.20">1631.79,2066.48 1560.76,1928.49</lane>