<additional xmlns:xsi="http://www.w3.org/2001/XMLSchema-instance" xsi:noNamespaceSchemaLocation="http://sumo.dlr.de/xsd/additional_file.xsd">
    <!-- vaporizer A -->
    <vaporizer id="gneE0" begin="5.00" end="15.00">
		<param key="keyA1" value="valueA1"/>
		<param key="keyA2" value="valueA2"/>
		<param key="keyA3" value="valueA3"/>
	</vaporizer>
	
	<!-- vaporizer B -->
	<vaporizer id="gneE1" begin="5.00" end="15.00">
		<param key="keyB1" value="valueB1"/>
		<param key="keyB2" value="valueB2"/>
		<param key="keyB3" value="valueB3"/>
	</vaporizer>
</additional>
