<?xml version="1.0" encoding="UTF-8"?>

<!-- generated on 2026-01-18 22:56:36.863676 by Eclipse SUMO remap_additionals.py v1_25_0+1070-5afb9a323e3
<configuration>
    <orig-net value="net.net.xml"/>
    <target-net value="net2.net.xml"/>
    <additional-file value="input_additional.add.xml"/>
    <output-file value="out.add.xml"/>
</configuration>
-->

<additional xmlns:xsi="http://www.w3.org/2001/XMLSchema-instance" xsi:noNamespaceSchemaLocation="http://sumo.dlr.de/xsd/additional_file.xsd">
    <trainStop id="2045933395" name="Geschwister-Scholl-Straße" lane="-194083413#4_0" startPos="18.13" endPos="43.13" friendlyPos="True" lines="2">
    </trainStop>
</additional>
