<?xml version="1.0" encoding="UTF-8"?>

<!-- generated on 2026-01-11T21:52:18.324017+01:00 by Eclipse SUMO sumo v1_25_0+0906-4c8d584c9cd
This data file and the accompanying materials
are made available under the terms of the Eclipse Public License v2.0
which accompanies this distribution, and is available at
http://www.eclipse.org/legal/epl-v20.html
This file may also be made available under the following Secondary
Licenses when the conditions for such availability set forth in the Eclipse
Public License 2.0 are satisfied: GNU General Public License, version 2
or later which is available at
https://www.gnu.org/licenses/old-licenses/gpl-2.0-standalone.html
SPDX-License-Identifier: EPL-2.0 OR GPL-2.0-or-later
<sumoConfiguration xmlns:xsi="http://www.w3.org/2001/XMLSchema-instance" xsi:noNamespaceSchemaLocation="http://sumo.dlr.de/xsd/sumoConfiguration.xsd">

    <input>
        <net-file value="net3.net.xml"/>
        <route-files value="input_routes.rou.xml"/>
        <additional-files value="input_additional.add.xml"/>
    </input>

    <output>
        <write-license value="true"/>
    </output>

    <processing>
        <default.speeddev value="0"/>
    </processing>

    <report>
        <xml-validation value="never"/>
        <duration-log.disable value="true"/>
        <no-step-log value="true"/>
    </report>

</sumoConfiguration>
-->

<instantE1 xmlns:xsi="http://www.w3.org/2001/XMLSchema-instance" xsi:noNamespaceSchemaLocation="http://sumo.dlr.de/xsd/instant_e1_file.xsd">
    <instantOut id="det3" time="0.00" state="enter" vehID="SE_car.0_0" speed="0.00" length="5.00" type="DEFAULT_VEHTYPE"/>
    <instantOut id="det3" time="0.00" state="leave" vehID="SE_car.0_0" speed="2.60" length="5.00" type="DEFAULT_VEHTYPE" occupancy="0.00"/>
    <instantOut id="det3" time="20.00" state="enter" vehID="SE_car.1_0" speed="0.00" length="5.00" type="DEFAULT_VEHTYPE" gap="20.00"/>
    <instantOut id="det3" time="20.00" state="leave" vehID="SE_car.1_0" speed="2.60" length="5.00" type="DEFAULT_VEHTYPE" occupancy="0.00"/>
    <instantOut id="det3" time="40.00" state="enter" vehID="SE_car.2_0" speed="0.00" length="5.00" type="DEFAULT_VEHTYPE" gap="20.00"/>
    <instantOut id="det3" time="40.00" state="leave" vehID="SE_car.2_0" speed="2.60" length="5.00" type="DEFAULT_VEHTYPE" occupancy="0.00"/>
    <instantOut id="det3" time="60.00" state="enter" vehID="SE_car.3_0" speed="0.00" length="5.00" type="DEFAULT_VEHTYPE" gap="20.00"/>
    <instantOut id="det3" time="60.00" state="leave" vehID="SE_car.3_0" speed="2.60" length="5.00" type="DEFAULT_VEHTYPE" occupancy="0.00"/>
    <instantOut id="det3" time="80.00" state="enter" vehID="SE_car.4_0" speed="0.00" length="5.00" type="DEFAULT_VEHTYPE" gap="20.00"/>
    <instantOut id="det3" time="80.00" state="leave" vehID="SE_car.4_0" speed="2.60" length="5.00" type="DEFAULT_VEHTYPE" occupancy="0.00"/>
    <instantOut id="det3" time="100.00" state="enter" vehID="SE_car.5_0" speed="0.00" length="5.00" type="DEFAULT_VEHTYPE" gap="20.00"/>
    <instantOut id="det3" time="100.00" state="leave" vehID="SE_car.5_0" speed="2.60" length="5.00" type="DEFAULT_VEHTYPE" occupancy="0.00"/>
    <instantOut id="det3" time="120.00" state="enter" vehID="SE_car.6_0" speed="0.00" length="5.00" type="DEFAULT_VEHTYPE" gap="20.00"/>
    <instantOut id="det3" time="120.00" state="leave" vehID="SE_car.6_0" speed="2.60" length="5.00" type="DEFAULT_VEHTYPE" occupancy="0.00"/>
    <instantOut id="det3" time="140.00" state="enter" vehID="SE_car.7_0" speed="0.00" length="5.00" type="DEFAULT_VEHTYPE" gap="20.00"/>
    <instantOut id="det3" time="140.00" state="leave" vehID="SE_car.7_0" speed="2.60" length="5.00" type="DEFAULT_VEHTYPE" occupancy="0.00"/>
    <instantOut id="det3" time="160.00" state="enter" vehID="SE_car.8_0" speed="0.00" length="5.00" type="DEFAULT_VEHTYPE" gap="20.00"/>
    <instantOut id="det3" time="160.00" state="leave" vehID="SE_car.8_0" speed="2.60" length="5.00" type="DEFAULT_VEHTYPE" occupancy="0.00"/>
    <instantOut id="det3" time="180.00" state="enter" vehID="SE_car.9_0" speed="0.00" length="5.00" type="DEFAULT_VEHTYPE" gap="20.00"/>
    <instantOut id="det3" time="180.00" state="leave" vehID="SE_car.9_0" speed="2.60" length="5.00" type="DEFAULT_VEHTYPE" occupancy="0.00"/>
</instantE1>
