<?xml version="1.0" encoding="UTF-8"?>

<!-- generated on Fri 27 Jul 2018 08:48:21 PM CEST by Eclipse SUMO netedit Version eda0dd5
<configuration xmlns:xsi="http://www.w3.org/2001/XMLSchema-instance" xsi:noNamespaceSchemaLocation="http://sumo.dlr.de/xsd/netconvertConfiguration.xsd">

    <input>
        <new value="true"/>
    </input>

    <output>
        <output-file value="/home/kobo/dlr/sumo/tests/netconvert/function/railway/topology.output/input_net.net.xml"/>
    </output>

    <processing>
        <no-turnarounds value="true"/>
        <offset.disable-normalization value="true"/>
    </processing>

</configuration>
-->

<net version="0.27" junctionCornerDetail="5" xmlns:xsi="http://www.w3.org/2001/XMLSchema-instance" xsi:noNamespaceSchemaLocation="http://sumo.dlr.de/xsd/net_file.xsd">

    <location netOffset="0.00,0.00" convBoundary="-141.99,-267.85,409.02,87.76" origBoundary="10000000000.00,10000000000.00,-10000000000.00,-10000000000.00" projParameter="!"/>

    <edge id=":gneJ1_0" function="internal">
        <lane id=":gneJ1_0_0" index="0" allow="rail" speed="27.78" length="0.30" shape="42.66,52.04 42.96,52.05"/>
    </edge>
    <edge id=":gneJ11_0" function="internal">
        <lane id=":gneJ11_0_0" index="0" allow="rail" speed="27.78" length="0.27" shape="208.97,-66.56 208.71,-66.56"/>
    </edge>
    <edge id=":gneJ14_0" function="internal">
        <lane id=":gneJ14_0_0" index="0" allow="rail" speed="27.78" length="0.95" shape="-7.98,-34.60 -8.22,-34.45 -8.40,-34.37 -8.59,-34.34 -8.87,-34.33"/>
    </edge>
    <edge id=":gneJ19_0" function="internal">
        <lane id=":gneJ19_0_0" index="0" allow="rail" speed="27.78" length="0.30" shape="40.02,-152.46 40.32,-152.46"/>
    </edge>
    <edge id=":gneJ2_0" function="internal">
        <lane id=":gneJ2_0_0" index="0" allow="rail" speed="27.78" length="8.10" shape="128.38,53.32 126.10,53.05 124.66,52.30 123.38,51.09 121.60,49.45"/>
    </edge>
    <edge id=":gneJ2_1" function="internal">
        <lane id=":gneJ2_1_0" index="0" allow="rail" speed="27.78" length="7.22" shape="120.22,53.22 122.59,53.02 123.61,52.32 123.28,51.13 121.60,49.45"/>
    </edge>
    <edge id=":gneJ20_0" function="internal">
        <lane id=":gneJ20_0_0" index="0" allow="rail" speed="27.78" length="8.25" shape="131.76,-152.46 140.01,-152.45"/>
    </edge>
    <edge id=":gneJ22_0" function="internal">
        <lane id=":gneJ22_0_0" index="0" allow="rail" speed="27.78" length="4.00" shape="87.21,-113.36 86.26,-112.67 85.53,-112.29 84.72,-112.14 83.55,-112.11"/>
    </edge>
    <edge id=":gneJ23_0" function="internal">
        <lane id=":gneJ23_0_0" index="0" allow="rail" speed="27.78" length="3.00" shape="-5.36,-112.11 -8.36,-112.12"/>
    </edge>
    <edge id=":gneJ3_0" function="internal">
        <lane id=":gneJ3_0_0" index="0" allow="rail" speed="27.78" length="10.67" shape="199.89,53.78 189.22,53.69"/>
    </edge>
    <edge id=":gneJ3_1" function="internal">
        <lane id=":gneJ3_1_0" index="0" allow="rail" speed="27.78" length="9.58" shape="190.00,57.37 192.96,55.78 193.82,54.64 192.57,53.94 189.22,53.69"/>
    </edge>
    <edge id=":gneJ31_0" function="internal">
        <lane id=":gneJ31_0_0" index="0" allow="rail" speed="27.78" length="0.30" shape="30.95,-267.85 31.25,-267.85"/>
    </edge>
    <edge id=":gneJ33_0" function="internal">
        <lane id=":gneJ33_0_0" index="0" allow="rail" speed="27.78" length="0.28" shape="192.01,-266.91 191.74,-266.91"/>
    </edge>
    <edge id=":gneJ35_0" function="internal">
        <lane id=":gneJ35_0_0" index="0" allow="rail" speed="27.78" length="0.27" shape="302.92,-263.09 303.19,-263.08"/>
    </edge>
    <edge id=":gneJ36_0" function="internal">
        <lane id=":gneJ36_0_0" index="0" allow="rail" speed="27.78" length="0.30" shape="366.36,-262.26 366.66,-262.25"/>
    </edge>
    <edge id=":gneJ4_0" function="internal">
        <lane id=":gneJ4_0_0" index="0" allow="rail" speed="27.78" length="1.04" shape="76.21,12.29 75.97,12.10 75.78,11.99 75.57,11.95 75.27,11.92"/>
    </edge>
    <edge id=":gneJ9_0" function="internal">
        <lane id=":gneJ9_0_0" index="0" allow="rail" speed="27.78" length="8.69" shape="35.54,-67.79 44.23,-67.71"/>
    </edge>

    <edge id="buffer1" from="gneJ0" to="gneJ1" priority="-1" spreadType="center">
        <lane id="buffer1_0" index="0" allow="rail" speed="27.78" length="75.37" shape="-32.69,50.63 42.66,52.04"/>
    </edge>
    <edge id="buffer2" from="gneJ14" to="gneJ15" priority="-1" spreadType="center">
        <lane id="buffer2_0" index="0" allow="rail" speed="27.78" length="60.80" shape="-8.87,-34.33 -69.67,-34.62"/>
    </edge>
    <edge id="buffer3" from="gneJ23" to="gneJ24" priority="-1" spreadType="center">
        <lane id="buffer3_0" index="0" allow="rail" speed="27.78" length="60.49" shape="-8.36,-112.12 -68.85,-112.38">
            <param key="origId" value="foobar"/>
        </lane>
        <param key="railway:track_ref" value="2"/>
    </edge>
    <edge id="gneE1" from="gneJ1" to="gneJ2" priority="-1" spreadType="center">
        <lane id="gneE1_0" index="0" allow="rail" speed="27.78" length="77.27" shape="42.96,52.05 120.22,53.22"/>
    </edge>
    <edge id="gneE10" from="gneJ12" to="gneJ11" priority="-1" spreadType="center">
        <lane id="gneE10_0" index="0" allow="rail" speed="27.78" length="68.35" shape="277.32,-67.42 208.97,-66.56"/>
    </edge>
    <edge id="gneE11" from="gneJ9" to="gneJ14" priority="-1" spreadType="center">
        <lane id="gneE11_0" index="0" allow="rail" speed="27.78" length="53.45" shape="36.64,-64.01 -7.98,-34.60"/>
    </edge>
    <edge id="gneE13" from="gneJ18" to="gneJ19" priority="-1" spreadType="center">
        <lane id="gneE13_0" index="0" allow="rail" speed="27.78" length="64.78" shape="-24.76,-152.73 40.02,-152.46"/>
    </edge>
    <edge id="gneE14" from="gneJ19" to="gneJ20" priority="-1" spreadType="center">
        <lane id="gneE14_0" index="0" allow="rail" speed="27.78" length="91.45" shape="40.32,-152.46 131.76,-152.46"/>
    </edge>
    <edge id="gneE15" from="gneJ20" to="gneJ21" priority="-1" spreadType="center">
        <lane id="gneE15_0" index="0" allow="rail" speed="27.78" length="129.42" shape="140.01,-152.45 269.43,-151.66"/>
    </edge>
    <edge id="gneE16" from="gneJ20" to="gneJ22" priority="-1" spreadType="center">
        <lane id="gneE16_0" index="0" allow="rail" speed="27.78" length="57.87" shape="133.05,-148.68 87.21,-113.36"/>
    </edge>
    <edge id="gneE17" from="gneJ22" to="gneJ23" priority="-1" spreadType="center">
        <lane id="gneE17_0" index="0" allow="rail" speed="27.78" length="88.91" shape="83.55,-112.11 -5.36,-112.11"/>
    </edge>
    <edge id="gneE19" from="gneJ23" to="gneJ22" priority="-1" spreadType="center">
        <lane id="gneE19_0" index="0" allow="rail" speed="27.78" length="88.91" shape="-5.36,-112.11 83.55,-112.11"/>
    </edge>
    <edge id="gneE2" from="gneJ3" to="gneJ2" priority="-1" spreadType="center">
        <lane id="gneE2_0" index="0" allow="rail" speed="27.78" length="60.84" shape="189.22,53.69 128.38,53.32"/>
    </edge>
    <edge id="gneE20" from="gneJ6" to="gneJ25" priority="-1" spreadType="center">
        <lane id="gneE20_0" index="0" allow="rail" speed="27.78" length="70.46" shape="263.54,57.08 329.50,81.85"/>
    </edge>
    <edge id="gneE21" from="gneJ6" to="gneJ26" priority="-1" spreadType="center">
        <lane id="gneE21_0" index="0" allow="rail" speed="27.78" length="61.70" shape="263.74,53.12 323.35,37.21"/>
    </edge>
    <edge id="gneE22" from="gneJ28" to="gneJ5" priority="-1" spreadType="center" shape="-141.99,23.26 -52.37,24.91 -14.72,7.75">
        <lane id="gneE22_0" index="0" allow="rail" speed="27.78" length="122.31" shape="-141.99,23.26 -52.37,24.91 -22.64,11.36"/>
    </edge>
    <edge id="gneE23" from="gneJ29" to="gneJ5" priority="-1" spreadType="center">
        <lane id="gneE23_0" index="0" allow="rail" speed="27.78" length="117.82" shape="-141.24,6.58 -23.43,7.67"/>
    </edge>
    <edge id="gneE24" from="gneJ30" to="gneJ31" priority="-1" spreadType="center">
        <lane id="gneE24_0" index="0" allow="rail" speed="27.78" length="119.70" shape="-88.75,-267.85 30.95,-267.85"/>
    </edge>
    <edge id="gneE25" from="gneJ31" to="gneJ32" priority="-1" spreadType="center">
        <lane id="gneE25_0" index="0" allow="rail" speed="27.78" length="86.45" shape="31.25,-267.85 117.69,-267.41"/>
    </edge>
    <edge id="gneE26" from="gneJ33" to="gneJ32" priority="-1" spreadType="center">
        <lane id="gneE26_0" index="0" allow="rail" speed="27.78" length="71.04" shape="191.74,-266.91 120.69,-267.40"/>
    </edge>
    <edge id="gneE27" from="gneJ34" to="gneJ33" priority="-1" spreadType="center">
        <lane id="gneE27_0" index="0" allow="rail" speed="27.78" length="50.54" shape="242.54,-265.45 192.01,-266.91"/>
    </edge>
    <edge id="gneE28" from="gneJ34" to="gneJ35" priority="-1" spreadType="center">
        <lane id="gneE28_0" index="0" allow="rail" speed="27.78" length="57.44" shape="245.53,-265.35 302.92,-263.09"/>
    </edge>
    <edge id="gneE29" from="gneJ35" to="gneJ36" priority="-1" spreadType="center">
        <lane id="gneE29_0" index="0" allow="rail" speed="27.78" length="63.18" shape="303.19,-263.08 366.36,-262.26"/>
    </edge>
    <edge id="gneE3" from="gneJ2" to="gneJ4" priority="-1" spreadType="center">
        <lane id="gneE3_0" index="0" allow="rail" speed="27.78" length="58.67" shape="121.60,49.45 76.21,12.29"/>
    </edge>
    <edge id="gneE30" from="gneJ36" to="gneJ37" priority="-1" spreadType="center">
        <lane id="gneE30_0" index="0" allow="rail" speed="27.78" length="42.37" shape="366.66,-262.25 409.02,-261.77"/>
    </edge>
    <edge id="gneE4" from="gneJ4" to="gneJ5" priority="-1" spreadType="center">
        <lane id="gneE4_0" index="0" allow="rail" speed="27.78" length="88.20" shape="75.27,11.92 -12.83,7.84"/>
    </edge>
    <edge id="gneE5" from="gneJ6" to="gneJ3" priority="-1" spreadType="center">
        <lane id="gneE5_0" index="0" allow="rail" speed="27.78" length="55.81" shape="255.68,54.76 199.89,53.78"/>
    </edge>
    <edge id="gneE6" from="gneJ7" to="gneJ3" priority="-1" spreadType="center" shape="-30.26,85.87 122.84,87.76 198.03,53.74">
        <lane id="gneE6_0" index="0" allow="rail" speed="27.78" length="226.83" shape="-30.26,85.87 122.84,87.76 190.00,57.37"/>
    </edge>
    <edge id="gneE7" from="gneJ8" to="gneJ9" priority="-1" spreadType="center">
        <lane id="gneE7_0" index="0" allow="rail" speed="27.78" length="61.48" shape="-25.94,-68.57 35.54,-67.79"/>
    </edge>
    <edge id="gneE8" from="gneJ9" to="gneJ10" priority="-1" spreadType="center">
        <lane id="gneE8_0" index="0" allow="rail" speed="27.78" length="79.39" shape="44.23,-67.71 123.62,-67.71"/>
    </edge>
    <edge id="gneE9" from="gneJ11" to="gneJ10" priority="-1" spreadType="center">
        <lane id="gneE9_0" index="0" allow="rail" speed="27.78" length="82.11" shape="208.71,-66.56 126.61,-67.68"/>
    </edge>

    <junction id="gneJ0" type="dead_end" x="-32.69" y="50.63" incLanes="" intLanes="" shape="-32.72,52.23 -32.66,49.03"/>
    <junction id="gneJ1" type="priority" x="42.81" y="52.04" incLanes="buffer1_0" intLanes=":gneJ1_0_0" shape="42.94,53.65 42.99,50.45 42.69,50.44 42.63,53.64">
        <request index="0" response="0" foes="0" cont="0"/>
    </junction>
    <junction id="gneJ10" type="dead_end" x="125.11" y="-67.71" incLanes="gneE9_0 gneE8_0" intLanes="" shape="126.59,-66.08 126.63,-69.28 123.62,-69.31 123.62,-66.11"/>
    <junction id="gneJ11" type="priority" x="208.84" y="-66.55" incLanes="gneE10_0" intLanes=":gneJ11_0_0" shape="208.99,-64.96 208.95,-68.16 208.73,-68.16 208.68,-64.96">
        <request index="0" response="0" foes="0" cont="0"/>
    </junction>
    <junction id="gneJ12" type="dead_end" x="277.32" y="-67.42" incLanes="" intLanes="" shape="277.29,-69.02 277.34,-65.82"/>
    <junction id="gneJ14" type="priority" x="-8.39" y="-34.33" incLanes="gneE11_0" intLanes=":gneJ14_0_0" shape="-7.10,-33.26 -8.86,-35.93 -8.88,-32.73 -8.18,-32.75 -7.93,-32.80 -7.70,-32.90 -7.44,-33.04">
        <request index="0" response="0" foes="0" cont="0"/>
    </junction>
    <junction id="gneJ15" type="dead_end" x="-69.67" y="-34.62" incLanes="buffer2_0" intLanes="" shape="-69.68,-33.02 -69.66,-36.22"/>
    <junction id="gneJ18" type="dead_end" x="-24.76" y="-152.73" incLanes="" intLanes="" shape="-24.77,-151.13 -24.76,-154.33"/>
    <junction id="gneJ19" type="priority" x="40.17" y="-152.46" incLanes="gneE13_0" intLanes=":gneJ19_0_0" shape="40.32,-150.86 40.32,-154.06 40.02,-154.06 40.01,-150.86">
        <request index="0" response="0" foes="0" cont="0"/>
    </junction>
    <junction id="gneJ2" type="priority" x="126.31" y="53.31" incLanes="gneE2_0 gneE1_0" intLanes=":gneJ2_0_0 :gneJ2_1_0" shape="128.37,54.92 128.39,51.72 125.97,51.28 125.21,50.76 124.52,50.07 123.71,49.21 122.61,48.21 120.59,50.69 121.06,51.21 121.08,51.40 120.95,51.52 120.67,51.60 120.25,51.62 120.20,54.82">
        <request index="0" response="00" foes="10" cont="0"/>
        <request index="1" response="01" foes="01" cont="0"/>
    </junction>
    <junction id="gneJ20" type="priority" x="137.96" y="-152.46" incLanes="gneE14_0" intLanes=":gneJ20_0_0" shape="140.00,-150.85 140.02,-154.05 131.76,-154.06 131.76,-150.86 132.47,-150.76 132.59,-150.63 132.57,-150.45 132.40,-150.22 132.08,-149.94 134.03,-147.41 136.03,-149.24 136.75,-149.92 137.53,-150.43 138.55,-150.74">
        <request index="0" response="0" foes="0" cont="0"/>
    </junction>
    <junction id="gneJ21" type="dead_end" x="269.43" y="-151.66" incLanes="gneE15_0" intLanes="" shape="269.44,-153.26 269.42,-150.06"/>
    <junction id="gneJ22" type="priority" x="85.59" y="-112.11" incLanes="gneE16_0 gneE19_0" intLanes=":gneJ22_0_0" shape="88.19,-112.09 86.23,-114.63 85.35,-114.00 85.00,-113.84 84.62,-113.76 84.16,-113.72 83.55,-113.71 83.55,-110.51 85.41,-110.59 86.06,-110.74 86.67,-111.02 87.34,-111.45">
        <request index="0" response="0" foes="0" cont="0"/>
    </junction>
    <junction id="gneJ23" type="priority" x="-6.86" y="-112.11" incLanes="gneE17_0" intLanes=":gneJ23_0_0" shape="-5.36,-110.51 -5.36,-113.71 -8.35,-113.72 -8.37,-110.52">
        <request index="0" response="0" foes="0" cont="0"/>
    </junction>
    <junction id="gneJ24" type="dead_end" x="-68.85" y="-112.38" incLanes="buffer3_0" intLanes="" shape="-68.86,-110.78 -68.85,-113.98"/>
    <junction id="gneJ25" type="dead_end" x="329.50" y="81.85" incLanes="gneE20_0" intLanes="" shape="330.06,80.35 328.94,83.35"/>
    <junction id="gneJ26" type="dead_end" x="323.35" y="37.21" incLanes="gneE21_0" intLanes="" shape="322.94,35.66 323.76,38.75"/>
    <junction id="gneJ28" type="dead_end" x="-141.99" y="23.26" incLanes="" intLanes="" shape="-142.02,24.86 -141.96,21.66"/>
    <junction id="gneJ29" type="dead_end" x="-141.24" y="6.58" incLanes="" intLanes="" shape="-141.25,8.18 -141.23,4.98"/>
    <junction id="gneJ3" type="priority" x="198.03" y="53.74" incLanes="gneE5_0 gneE6_0" intLanes=":gneJ3_0_0 :gneJ3_1_0" shape="199.86,55.37 199.91,52.18 189.23,52.09 189.21,55.29 189.34,55.92 190.66,58.83 192.55,57.87 195.09,56.31 196.28,55.78 197.78,55.46">
        <request index="0" response="00" foes="10" cont="0"/>
        <request index="1" response="01" foes="01" cont="0"/>
    </junction>
    <junction id="gneJ30" type="dead_end" x="-88.75" y="-267.85" incLanes="" intLanes="" shape="-88.75,-266.25 -88.75,-269.45"/>
    <junction id="gneJ31" type="priority" x="31.10" y="-267.85" incLanes="gneE24_0" intLanes=":gneJ31_0_0" shape="31.24,-266.25 31.26,-269.45 30.95,-269.45 30.95,-266.25">
        <request index="0" response="0" foes="0" cont="0"/>
    </junction>
    <junction id="gneJ32" type="dead_end" x="119.19" y="-267.41" incLanes="gneE26_0 gneE25_0" intLanes="" shape="120.68,-265.80 120.70,-269.00 117.70,-269.01 117.69,-265.81"/>
    <junction id="gneJ33" type="priority" x="191.87" y="-266.91" incLanes="gneE27_0" intLanes=":gneJ33_0_0" shape="191.97,-265.31 192.06,-268.51 191.75,-268.51 191.73,-265.31">
        <request index="0" response="0" foes="0" cont="0"/>
    </junction>
    <junction id="gneJ34" type="dead_end" x="244.03" y="-265.41" incLanes="" intLanes="" shape="245.46,-263.75 245.59,-266.95 242.58,-267.05 242.49,-263.85"/>
    <junction id="gneJ35" type="priority" x="303.05" y="-263.08" incLanes="gneE28_0" intLanes=":gneJ35_0_0" shape="303.16,-261.48 303.21,-264.68 302.98,-264.68 302.86,-261.49">
        <request index="0" response="0" foes="0" cont="0"/>
    </junction>
    <junction id="gneJ36" type="priority" x="366.51" y="-262.26" incLanes="gneE29_0" intLanes=":gneJ36_0_0" shape="366.64,-260.65 366.68,-263.85 366.38,-263.86 366.34,-260.66">
        <request index="0" response="0" foes="0" cont="0"/>
    </junction>
    <junction id="gneJ37" type="dead_end" x="409.02" y="-261.77" incLanes="gneE30_0" intLanes="" shape="409.04,-263.37 409.00,-260.17"/>
    <junction id="gneJ4" type="priority" x="75.80" y="11.95" incLanes="gneE3_0" intLanes=":gneJ4_0_0" shape="75.19,13.52 77.22,11.05 76.61,10.59 76.37,10.47 76.10,10.39 75.78,10.35 75.34,10.33">
        <request index="0" response="0" foes="0" cont="0"/>
    </junction>
    <junction id="gneJ5" type="dead_end" x="-14.72" y="7.75" incLanes="gneE4_0 gneE23_0 gneE22_0" intLanes="" shape="-12.91,9.43 -12.76,6.24 -23.41,6.07 -23.44,9.27 -23.31,9.90 -21.98,12.82 -20.11,11.85 -18.74,11.00 -17.61,10.29 -16.43,9.77 -14.95,9.47"/>
    <junction id="gneJ6" type="dead_end" x="257.46" y="54.79" incLanes="" intLanes="" shape="262.98,58.57 264.10,55.58 263.48,55.24 263.41,55.09 263.50,54.94 263.74,54.80 264.15,54.66 263.32,51.57 260.54,52.44 259.57,52.77 258.58,53.00 257.37,53.14 255.71,53.16 255.66,56.36 258.46,56.67 259.41,56.99 260.34,57.42 261.46,57.95"/>
    <junction id="gneJ7" type="dead_end" x="-30.26" y="85.87" incLanes="" intLanes="" shape="-30.28,87.47 -30.24,84.27"/>
    <junction id="gneJ8" type="dead_end" x="-25.94" y="-68.57" incLanes="" intLanes="" shape="-25.96,-66.97 -25.92,-70.17"/>
    <junction id="gneJ9" type="priority" x="42.25" y="-67.71" incLanes="gneE7_0" intLanes=":gneJ9_0_0" shape="44.23,-66.11 44.23,-69.31 35.56,-69.39 35.52,-66.19 36.21,-66.09 36.33,-65.97 36.29,-65.81 36.10,-65.60 35.76,-65.35 37.52,-62.67 39.82,-64.48 40.64,-65.17 41.52,-65.68 42.64,-65.99">
        <request index="0" response="0" foes="0" cont="0"/>
    </junction>

    <connection from="buffer1" to="gneE1" fromLane="0" toLane="0" via=":gneJ1_0_0" dir="s" state="M"/>
    <connection from="gneE1" to="gneE3" fromLane="0" toLane="0" via=":gneJ2_1_0" dir="r" state="m"/>
    <connection from="gneE10" to="gneE9" fromLane="0" toLane="0" via=":gneJ11_0_0" dir="s" state="M"/>
    <connection from="gneE11" to="buffer2" fromLane="0" toLane="0" via=":gneJ14_0_0" dir="s" state="M"/>
    <connection from="gneE13" to="gneE14" fromLane="0" toLane="0" via=":gneJ19_0_0" dir="s" state="M"/>
    <connection from="gneE14" to="gneE15" fromLane="0" toLane="0" via=":gneJ20_0_0" dir="s" state="M"/>
    <connection from="gneE16" to="gneE17" fromLane="0" toLane="0" via=":gneJ22_0_0" dir="s" state="M"/>
    <connection from="gneE17" to="buffer3" fromLane="0" toLane="0" via=":gneJ23_0_0" dir="s" state="M"/>
    <connection from="gneE2" to="gneE3" fromLane="0" toLane="0" via=":gneJ2_0_0" dir="s" state="M"/>
    <connection from="gneE24" to="gneE25" fromLane="0" toLane="0" via=":gneJ31_0_0" dir="s" state="M"/>
    <connection from="gneE27" to="gneE26" fromLane="0" toLane="0" via=":gneJ33_0_0" dir="s" state="M"/>
    <connection from="gneE28" to="gneE29" fromLane="0" toLane="0" via=":gneJ35_0_0" dir="s" state="M"/>
    <connection from="gneE29" to="gneE30" fromLane="0" toLane="0" via=":gneJ36_0_0" dir="s" state="M"/>
    <connection from="gneE3" to="gneE4" fromLane="0" toLane="0" via=":gneJ4_0_0" dir="s" state="M"/>
    <connection from="gneE5" to="gneE2" fromLane="0" toLane="0" via=":gneJ3_0_0" dir="s" state="M"/>
    <connection from="gneE6" to="gneE2" fromLane="0" toLane="0" via=":gneJ3_1_0" dir="r" state="m"/>
    <connection from="gneE7" to="gneE8" fromLane="0" toLane="0" via=":gneJ9_0_0" dir="s" state="M"/>

    <connection from=":gneJ1_0" to="gneE1" fromLane="0" toLane="0" dir="s" state="M"/>
    <connection from=":gneJ11_0" to="gneE9" fromLane="0" toLane="0" dir="s" state="M"/>
    <connection from=":gneJ14_0" to="buffer2" fromLane="0" toLane="0" dir="s" state="M"/>
    <connection from=":gneJ19_0" to="gneE14" fromLane="0" toLane="0" dir="s" state="M"/>
    <connection from=":gneJ2_0" to="gneE3" fromLane="0" toLane="0" dir="s" state="M"/>
    <connection from=":gneJ2_1" to="gneE3" fromLane="0" toLane="0" dir="r" state="M"/>
    <connection from=":gneJ20_0" to="gneE15" fromLane="0" toLane="0" dir="s" state="M"/>
    <connection from=":gneJ22_0" to="gneE17" fromLane="0" toLane="0" dir="s" state="M"/>
    <connection from=":gneJ23_0" to="buffer3" fromLane="0" toLane="0" dir="s" state="M"/>
    <connection from=":gneJ3_0" to="gneE2" fromLane="0" toLane="0" dir="s" state="M"/>
    <connection from=":gneJ3_1" to="gneE2" fromLane="0" toLane="0" dir="r" state="M"/>
    <connection from=":gneJ31_0" to="gneE25" fromLane="0" toLane="0" dir="s" state="M"/>
    <connection from=":gneJ33_0" to="gneE26" fromLane="0" toLane="0" dir="s" state="M"/>
    <connection from=":gneJ35_0" to="gneE29" fromLane="0" toLane="0" dir="s" state="M"/>
    <connection from=":gneJ36_0" to="gneE30" fromLane="0" toLane="0" dir="s" state="M"/>
    <connection from=":gneJ4_0" to="gneE4" fromLane="0" toLane="0" dir="s" state="M"/>
    <connection from=":gneJ9_0" to="gneE8" fromLane="0" toLane="0" dir="s" state="M"/>

</net>
