<?xml version="1.0" encoding="UTF-8"?>

<!-- generated on Fri 19 Jun 2020 03:19:48 PM CEST by Eclipse SUMO netedit Version v1_6_0+0845-06d00f0a9c
<configuration xmlns:xsi="http://www.w3.org/2001/XMLSchema-instance" xsi:noNamespaceSchemaLocation="http://sumo.dlr.de/xsd/netconvertConfiguration.xsd">

    <input>
        <sumo-net-file value="net.net.xml"/>
    </input>

    <output>
        <output-file value="net.net.xml"/>
        <plain-output-prefix value="/home/kobo/dlr/debug/7199/three_arms/input_plain"/>
    </output>

    <processing>
        <geometry.min-radius.fix.railways value="false"/>
        <geometry.max-grade.fix value="false"/>
        <offset.disable-normalization value="true"/>
        <lefthand value="false"/>
    </processing>

    <junctions>
        <no-turnarounds value="true"/>
        <junctions.corner-detail value="5"/>
        <junctions.limit-turn-speed value="5.5"/>
        <rectangular-lane-cut value="false"/>
    </junctions>

    <pedestrian>
        <walkingareas value="false"/>
    </pedestrian>

    <report>
        <aggregate-warnings value="5"/>
    </report>

</configuration>
-->

<nodes version="1.6" xmlns:xsi="http://www.w3.org/2001/XMLSchema-instance" xsi:noNamespaceSchemaLocation="http://sumo.dlr.de/xsd/nodes_file.xsd">
    <location netOffset="0.00,0.00" convBoundary="20.00,0.00,420.00,20.00" origBoundary="0.00,0.00,440.00,40.00" projParameter="!"/>

    <node id="A0" x="20.00" y="20.00" type="priority"/>
    <node id="B0" x="120.00" y="20.00" type="traffic_light" tl="aow" tlLayout="alternateOneWay"/>
    <node id="C0" x="220.00" y="20.00" type="traffic_light" tl="aow" tlLayout="alternateOneWay"/>
    <node id="D0" x="320.00" y="20.00" type="traffic_light" tl="aow" tlLayout="alternateOneWay"/>
    <node id="E0" x="420.00" y="20.00" type="priority"/>
    <node id="bottom2" x="220.00" y="0.00" type="priority" fringe="outer"/>
</nodes>
