<?xml version="1.0" encoding="UTF-8"?>

<!-- generated on 2026-04-09T16:38:01.349914+01:00 by Eclipse SUMO sumo v1_26_0+1034-8d7c6592743
This data file and the accompanying materials
are made available under the terms of the Eclipse Public License v2.0
which accompanies this distribution, and is available at
http://www.eclipse.org/legal/epl-v20.html
This file may also be made available under the following Secondary
Licenses when the conditions for such availability set forth in the Eclipse
Public License 2.0 are satisfied: GNU General Public License, version 2
or later which is available at
https://www.gnu.org/licenses/old-licenses/gpl-2.0-standalone.html
SPDX-License-Identifier: EPL-2.0 OR GPL-2.0-or-later
<sumoConfiguration xmlns:xsi="http://www.w3.org/2001/XMLSchema-instance" xsi:noNamespaceSchemaLocation="http://sumo.dlr.de/xsd/sumoConfiguration.xsd">

    <input>
        <net-file value="net2.net.xml"/>
        <route-files value="input_routes.rou.xml"/>
    </input>

    <output>
        <write-license value="true"/>
        <precision value="4"/>
        <link-output value="linkstate.xml"/>
    </output>

    <time>
        <step-length value="0.25"/>
    </time>

    <processing>
        <collision.check-junctions value="true"/>
        <time-to-teleport value="20"/>
        <default.speeddev value="0"/>
    </processing>

    <report>
        <xml-validation value="never"/>
        <duration-log.disable value="true"/>
        <no-step-log value="true"/>
    </report>

    <mesoscopic>
        <mesosim value="true"/>
        <meso-junction-control value="true"/>
    </mesoscopic>

</sumoConfiguration>
-->

<link-output>
    <timestep id="0.0000">
        <link from="NC_1" via=":C_3_0" to="CE_0">
            <approaching id="NE" impatience="0.0000" arrivalTime="6.479" leaveTime="7.389" arrivalSpeed="13.8900" arrivalSpeedBraking="13.8900" leaveSpeed="13.8900" willPass="1"/>
        </link>
        <link from="SC_1" via=":C_10_0" to="CW_0">
            <approaching id="SW" impatience="0.0000" arrivalTime="6.479" leaveTime="7.389" arrivalSpeed="13.8900" arrivalSpeedBraking="13.8900" leaveSpeed="13.8900" willPass="1"/>
        </link>
    </timestep>
    <timestep id="0.2500">
        <link from="NC_1" via=":C_3_0" to="CE_0">
            <approaching id="NE" impatience="0.0000" arrivalTime="6.479" leaveTime="7.389" arrivalSpeed="13.8900" arrivalSpeedBraking="13.8900" leaveSpeed="13.8900" willPass="1"/>
        </link>
        <link from="SC_1" via=":C_10_0" to="CW_0">
            <approaching id="SW" impatience="0.0000" arrivalTime="6.479" leaveTime="7.389" arrivalSpeed="13.8900" arrivalSpeedBraking="13.8900" leaveSpeed="13.8900" willPass="1"/>
        </link>
    </timestep>
    <timestep id="0.5000">
        <link from="NC_1" via=":C_3_0" to="CE_0">
            <approaching id="NE" impatience="0.0000" arrivalTime="6.479" leaveTime="7.389" arrivalSpeed="13.8900" arrivalSpeedBraking="13.8900" leaveSpeed="13.8900" willPass="1"/>
        </link>
        <link from="SC_1" via=":C_10_0" to="CW_0">
            <approaching id="SW" impatience="0.0000" arrivalTime="6.479" leaveTime="7.389" arrivalSpeed="13.8900" arrivalSpeedBraking="13.8900" leaveSpeed="13.8900" willPass="1"/>
        </link>
    </timestep>
    <timestep id="0.7500">
        <link from="NC_1" via=":C_3_0" to="CE_0">
            <approaching id="NE" impatience="0.0000" arrivalTime="6.479" leaveTime="7.389" arrivalSpeed="13.8900" arrivalSpeedBraking="13.8900" leaveSpeed="13.8900" willPass="1"/>
        </link>
        <link from="SC_1" via=":C_10_0" to="CW_0">
            <approaching id="SW" impatience="0.0000" arrivalTime="6.479" leaveTime="7.389" arrivalSpeed="13.8900" arrivalSpeedBraking="13.8900" leaveSpeed="13.8900" willPass="1"/>
        </link>
    </timestep>
    <timestep id="1.0000">
        <link from="NC_1" via=":C_3_0" to="CE_0">
            <approaching id="NE" impatience="0.0000" arrivalTime="6.479" leaveTime="7.389" arrivalSpeed="13.8900" arrivalSpeedBraking="13.8900" leaveSpeed="13.8900" willPass="1"/>
        </link>
        <link from="SC_1" via=":C_10_0" to="CW_0">
            <approaching id="SW" impatience="0.0000" arrivalTime="6.479" leaveTime="7.389" arrivalSpeed="13.8900" arrivalSpeedBraking="13.8900" leaveSpeed="13.8900" willPass="1"/>
        </link>
    </timestep>
    <timestep id="1.2500">
        <link from="NC_1" via=":C_3_0" to="CE_0">
            <approaching id="NE" impatience="0.0000" arrivalTime="6.479" leaveTime="7.389" arrivalSpeed="13.8900" arrivalSpeedBraking="13.8900" leaveSpeed="13.8900" willPass="1"/>
        </link>
        <link from="SC_1" via=":C_10_0" to="CW_0">
            <approaching id="SW" impatience="0.0000" arrivalTime="6.479" leaveTime="7.389" arrivalSpeed="13.8900" arrivalSpeedBraking="13.8900" leaveSpeed="13.8900" willPass="1"/>
        </link>
    </timestep>
    <timestep id="1.5000">
        <link from="NC_1" via=":C_3_0" to="CE_0">
            <approaching id="NE" impatience="0.0000" arrivalTime="6.479" leaveTime="7.389" arrivalSpeed="13.8900" arrivalSpeedBraking="13.8900" leaveSpeed="13.8900" willPass="1"/>
        </link>
        <link from="SC_1" via=":C_10_0" to="CW_0">
            <approaching id="SW" impatience="0.0000" arrivalTime="6.479" leaveTime="7.389" arrivalSpeed="13.8900" arrivalSpeedBraking="13.8900" leaveSpeed="13.8900" willPass="1"/>
        </link>
    </timestep>
    <timestep id="1.7500">
        <link from="NC_1" via=":C_3_0" to="CE_0">
            <approaching id="NE" impatience="0.0000" arrivalTime="6.479" leaveTime="7.389" arrivalSpeed="13.8900" arrivalSpeedBraking="13.8900" leaveSpeed="13.8900" willPass="1"/>
        </link>
        <link from="SC_1" via=":C_10_0" to="CW_0">
            <approaching id="SW" impatience="0.0000" arrivalTime="6.479" leaveTime="7.389" arrivalSpeed="13.8900" arrivalSpeedBraking="13.8900" leaveSpeed="13.8900" willPass="1"/>
        </link>
    </timestep>
    <timestep id="2.0000">
        <link from="NC_1" via=":C_3_0" to="CE_0">
            <approaching id="NE" impatience="0.0000" arrivalTime="6.479" leaveTime="7.389" arrivalSpeed="13.8900" arrivalSpeedBraking="13.8900" leaveSpeed="13.8900" willPass="1"/>
        </link>
        <link from="SC_1" via=":C_10_0" to="CW_0">
            <approaching id="SW" impatience="0.0000" arrivalTime="6.479" leaveTime="7.389" arrivalSpeed="13.8900" arrivalSpeedBraking="13.8900" leaveSpeed="13.8900" willPass="1"/>
        </link>
    </timestep>
    <timestep id="2.2500">
        <link from="NC_1" via=":C_3_0" to="CE_0">
            <approaching id="NE" impatience="0.0000" arrivalTime="6.479" leaveTime="7.389" arrivalSpeed="13.8900" arrivalSpeedBraking="13.8900" leaveSpeed="13.8900" willPass="1"/>
        </link>
        <link from="SC_1" via=":C_10_0" to="CW_0">
            <approaching id="SW" impatience="0.0000" arrivalTime="6.479" leaveTime="7.389" arrivalSpeed="13.8900" arrivalSpeedBraking="13.8900" leaveSpeed="13.8900" willPass="1"/>
        </link>
    </timestep>
    <timestep id="2.5000">
        <link from="NC_1" via=":C_3_0" to="CE_0">
            <approaching id="NE" impatience="0.0000" arrivalTime="6.479" leaveTime="7.389" arrivalSpeed="13.8900" arrivalSpeedBraking="13.8900" leaveSpeed="13.8900" willPass="1"/>
        </link>
        <link from="SC_1" via=":C_10_0" to="CW_0">
            <approaching id="SW" impatience="0.0000" arrivalTime="6.479" leaveTime="7.389" arrivalSpeed="13.8900" arrivalSpeedBraking="13.8900" leaveSpeed="13.8900" willPass="1"/>
        </link>
    </timestep>
    <timestep id="2.7500">
        <link from="NC_1" via=":C_3_0" to="CE_0">
            <approaching id="NE" impatience="0.0000" arrivalTime="6.479" leaveTime="7.389" arrivalSpeed="13.8900" arrivalSpeedBraking="13.8900" leaveSpeed="13.8900" willPass="1"/>
        </link>
        <link from="SC_1" via=":C_10_0" to="CW_0">
            <approaching id="SW" impatience="0.0000" arrivalTime="6.479" leaveTime="7.389" arrivalSpeed="13.8900" arrivalSpeedBraking="13.8900" leaveSpeed="13.8900" willPass="1"/>
        </link>
    </timestep>
    <timestep id="3.0000">
        <link from="NC_1" via=":C_3_0" to="CE_0">
            <approaching id="NE" impatience="0.0000" arrivalTime="6.479" leaveTime="7.389" arrivalSpeed="13.8900" arrivalSpeedBraking="13.8900" leaveSpeed="13.8900" willPass="1"/>
        </link>
        <link from="SC_1" via=":C_10_0" to="CW_0">
            <approaching id="SW" impatience="0.0000" arrivalTime="6.479" leaveTime="7.389" arrivalSpeed="13.8900" arrivalSpeedBraking="13.8900" leaveSpeed="13.8900" willPass="1"/>
        </link>
    </timestep>
    <timestep id="3.2500">
        <link from="NC_1" via=":C_3_0" to="CE_0">
            <approaching id="NE" impatience="0.0000" arrivalTime="6.479" leaveTime="7.389" arrivalSpeed="13.8900" arrivalSpeedBraking="13.8900" leaveSpeed="13.8900" willPass="1"/>
        </link>
        <link from="SC_1" via=":C_10_0" to="CW_0">
            <approaching id="SW" impatience="0.0000" arrivalTime="6.479" leaveTime="7.389" arrivalSpeed="13.8900" arrivalSpeedBraking="13.8900" leaveSpeed="13.8900" willPass="1"/>
        </link>
    </timestep>
    <timestep id="3.5000">
        <link from="NC_1" via=":C_3_0" to="CE_0">
            <approaching id="NE" impatience="0.0000" arrivalTime="6.479" leaveTime="7.389" arrivalSpeed="13.8900" arrivalSpeedBraking="13.8900" leaveSpeed="13.8900" willPass="1"/>
        </link>
        <link from="SC_1" via=":C_10_0" to="CW_0">
            <approaching id="SW" impatience="0.0000" arrivalTime="6.479" leaveTime="7.389" arrivalSpeed="13.8900" arrivalSpeedBraking="13.8900" leaveSpeed="13.8900" willPass="1"/>
        </link>
    </timestep>
    <timestep id="3.7500">
        <link from="NC_1" via=":C_3_0" to="CE_0">
            <approaching id="NE" impatience="0.0000" arrivalTime="6.479" leaveTime="7.389" arrivalSpeed="13.8900" arrivalSpeedBraking="13.8900" leaveSpeed="13.8900" willPass="1"/>
        </link>
        <link from="SC_1" via=":C_10_0" to="CW_0">
            <approaching id="SW" impatience="0.0000" arrivalTime="6.479" leaveTime="7.389" arrivalSpeed="13.8900" arrivalSpeedBraking="13.8900" leaveSpeed="13.8900" willPass="1"/>
        </link>
    </timestep>
    <timestep id="4.0000">
        <link from="NC_1" via=":C_3_0" to="CE_0">
            <approaching id="NE" impatience="0.0000" arrivalTime="6.479" leaveTime="7.389" arrivalSpeed="13.8900" arrivalSpeedBraking="13.8900" leaveSpeed="13.8900" willPass="1"/>
        </link>
        <link from="SC_1" via=":C_10_0" to="CW_0">
            <approaching id="SW" impatience="0.0000" arrivalTime="6.479" leaveTime="7.389" arrivalSpeed="13.8900" arrivalSpeedBraking="13.8900" leaveSpeed="13.8900" willPass="1"/>
        </link>
    </timestep>
    <timestep id="4.2500">
        <link from="NC_1" via=":C_3_0" to="CE_0">
            <approaching id="NE" impatience="0.0000" arrivalTime="6.479" leaveTime="7.389" arrivalSpeed="13.8900" arrivalSpeedBraking="13.8900" leaveSpeed="13.8900" willPass="1"/>
        </link>
        <link from="SC_1" via=":C_10_0" to="CW_0">
            <approaching id="SW" impatience="0.0000" arrivalTime="6.479" leaveTime="7.389" arrivalSpeed="13.8900" arrivalSpeedBraking="13.8900" leaveSpeed="13.8900" willPass="1"/>
        </link>
    </timestep>
    <timestep id="4.5000">
        <link from="NC_1" via=":C_3_0" to="CE_0">
            <approaching id="NE" impatience="0.0000" arrivalTime="6.479" leaveTime="7.389" arrivalSpeed="13.8900" arrivalSpeedBraking="13.8900" leaveSpeed="13.8900" willPass="1"/>
        </link>
        <link from="SC_1" via=":C_10_0" to="CW_0">
            <approaching id="SW" impatience="0.0000" arrivalTime="6.479" leaveTime="7.389" arrivalSpeed="13.8900" arrivalSpeedBraking="13.8900" leaveSpeed="13.8900" willPass="1"/>
        </link>
    </timestep>
    <timestep id="4.7500">
        <link from="NC_1" via=":C_3_0" to="CE_0">
            <approaching id="NE" impatience="0.0000" arrivalTime="6.479" leaveTime="7.389" arrivalSpeed="13.8900" arrivalSpeedBraking="13.8900" leaveSpeed="13.8900" willPass="1"/>
        </link>
        <link from="SC_1" via=":C_10_0" to="CW_0">
            <approaching id="SW" impatience="0.0000" arrivalTime="6.479" leaveTime="7.389" arrivalSpeed="13.8900" arrivalSpeedBraking="13.8900" leaveSpeed="13.8900" willPass="1"/>
        </link>
    </timestep>
    <timestep id="5.0000">
        <link from="NC_1" via=":C_3_0" to="CE_0">
            <approaching id="NE" impatience="0.0000" arrivalTime="6.479" leaveTime="7.389" arrivalSpeed="13.8900" arrivalSpeedBraking="13.8900" leaveSpeed="13.8900" willPass="1"/>
        </link>
        <link from="SC_1" via=":C_10_0" to="CW_0">
            <approaching id="SW" impatience="0.0000" arrivalTime="6.479" leaveTime="7.389" arrivalSpeed="13.8900" arrivalSpeedBraking="13.8900" leaveSpeed="13.8900" willPass="1"/>
        </link>
    </timestep>
    <timestep id="5.2500">
        <link from="NC_1" via=":C_3_0" to="CE_0">
            <approaching id="NE" impatience="0.0000" arrivalTime="6.479" leaveTime="7.389" arrivalSpeed="13.8900" arrivalSpeedBraking="13.8900" leaveSpeed="13.8900" willPass="1"/>
        </link>
        <link from="SC_1" via=":C_10_0" to="CW_0">
            <approaching id="SW" impatience="0.0000" arrivalTime="6.479" leaveTime="7.389" arrivalSpeed="13.8900" arrivalSpeedBraking="13.8900" leaveSpeed="13.8900" willPass="1"/>
        </link>
    </timestep>
    <timestep id="5.5000">
        <link from="NC_1" via=":C_3_0" to="CE_0">
            <approaching id="NE" impatience="0.0000" arrivalTime="6.479" leaveTime="7.389" arrivalSpeed="13.8900" arrivalSpeedBraking="13.8900" leaveSpeed="13.8900" willPass="1"/>
        </link>
        <link from="SC_1" via=":C_10_0" to="CW_0">
            <approaching id="SW" impatience="0.0000" arrivalTime="6.479" leaveTime="7.389" arrivalSpeed="13.8900" arrivalSpeedBraking="13.8900" leaveSpeed="13.8900" willPass="1"/>
        </link>
    </timestep>
    <timestep id="5.7500">
        <link from="NC_1" via=":C_3_0" to="CE_0">
            <approaching id="NE" impatience="0.0000" arrivalTime="6.479" leaveTime="7.389" arrivalSpeed="13.8900" arrivalSpeedBraking="13.8900" leaveSpeed="13.8900" willPass="1"/>
        </link>
        <link from="SC_1" via=":C_10_0" to="CW_0">
            <approaching id="SW" impatience="0.0000" arrivalTime="6.479" leaveTime="7.389" arrivalSpeed="13.8900" arrivalSpeedBraking="13.8900" leaveSpeed="13.8900" willPass="1"/>
        </link>
    </timestep>
    <timestep id="6.0000">
        <link from="NC_1" via=":C_3_0" to="CE_0">
            <approaching id="NE" impatience="0.0000" arrivalTime="6.479" leaveTime="7.389" arrivalSpeed="13.8900" arrivalSpeedBraking="13.8900" leaveSpeed="13.8900" willPass="1"/>
        </link>
        <link from="SC_1" via=":C_10_0" to="CW_0">
            <approaching id="SW" impatience="0.0000" arrivalTime="6.479" leaveTime="7.389" arrivalSpeed="13.8900" arrivalSpeedBraking="13.8900" leaveSpeed="13.8900" willPass="1"/>
        </link>
    </timestep>
    <timestep id="6.2500">
        <link from="NC_1" via=":C_3_0" to="CE_0">
            <approaching id="NE" impatience="0.0000" arrivalTime="6.479" leaveTime="7.389" arrivalSpeed="13.8900" arrivalSpeedBraking="13.8900" leaveSpeed="13.8900" willPass="1"/>
        </link>
        <link from="SC_1" via=":C_10_0" to="CW_0">
            <approaching id="SW" impatience="0.0000" arrivalTime="6.479" leaveTime="7.389" arrivalSpeed="13.8900" arrivalSpeedBraking="13.8900" leaveSpeed="13.8900" willPass="1"/>
        </link>
    </timestep>
    <timestep id="6.5000">
        <link from=":C_3_0" via=":C_16_0" to="CE_0">
            <approaching id="NE" impatience="0.0000" arrivalTime="7.029" leaveTime="8.028" arrivalSpeed="13.8900" arrivalSpeedBraking="13.8900" leaveSpeed="13.8900" willPass="1"/>
        </link>
        <link from=":C_10_0" via=":C_18_0" to="CW_0">
            <approaching id="SW" impatience="0.0000" arrivalTime="7.029" leaveTime="8.028" arrivalSpeed="13.8900" arrivalSpeedBraking="13.8900" leaveSpeed="13.8900" willPass="1"/>
        </link>
        <link from="NC_1" via=":C_1_0" to="CW_0">
            <approaching id="NW" impatience="0.0000" arrivalTime="8.148" leaveTime="8.899" arrivalSpeed="11.0457" arrivalSpeedBraking="11.0457" leaveSpeed="13.8900" willPass="1"/>
        </link>
        <link from="SC_1" via=":C_8_0" to="CE_0">
            <approaching id="SE" impatience="0.0000" arrivalTime="8.148" leaveTime="8.899" arrivalSpeed="11.0457" arrivalSpeedBraking="11.0457" leaveSpeed="13.8900" willPass="1"/>
        </link>
    </timestep>
    <timestep id="6.7500">
        <link from=":C_3_0" via=":C_16_0" to="CE_0">
            <approaching id="NE" impatience="0.0000" arrivalTime="7.029" leaveTime="8.028" arrivalSpeed="13.8900" arrivalSpeedBraking="13.8900" leaveSpeed="13.8900" willPass="1"/>
        </link>
        <link from=":C_10_0" via=":C_18_0" to="CW_0">
            <approaching id="SW" impatience="0.0000" arrivalTime="7.029" leaveTime="8.028" arrivalSpeed="13.8900" arrivalSpeedBraking="13.8900" leaveSpeed="13.8900" willPass="1"/>
        </link>
        <link from="NC_1" via=":C_1_0" to="CW_0">
            <approaching id="NW" impatience="0.0000" arrivalTime="8.148" leaveTime="8.899" arrivalSpeed="11.0457" arrivalSpeedBraking="11.0457" leaveSpeed="13.8900" willPass="1"/>
        </link>
        <link from="SC_1" via=":C_8_0" to="CE_0">
            <approaching id="SE" impatience="0.0000" arrivalTime="8.148" leaveTime="8.899" arrivalSpeed="11.0457" arrivalSpeedBraking="11.0457" leaveSpeed="13.8900" willPass="1"/>
        </link>
    </timestep>
    <timestep id="7.0000">
        <link from=":C_3_0" via=":C_16_0" to="CE_0">
            <approaching id="NE" impatience="0.0000" arrivalTime="7.029" leaveTime="8.028" arrivalSpeed="13.8900" arrivalSpeedBraking="13.8900" leaveSpeed="13.8900" willPass="1"/>
        </link>
        <link from=":C_10_0" via=":C_18_0" to="CW_0">
            <approaching id="SW" impatience="0.0000" arrivalTime="7.029" leaveTime="8.028" arrivalSpeed="13.8900" arrivalSpeedBraking="13.8900" leaveSpeed="13.8900" willPass="1"/>
        </link>
        <link from="NC_1" via=":C_1_0" to="CW_0">
            <approaching id="NW" impatience="0.0000" arrivalTime="8.148" leaveTime="8.899" arrivalSpeed="11.0457" arrivalSpeedBraking="11.0457" leaveSpeed="13.8900" willPass="1"/>
        </link>
        <link from="SC_1" via=":C_8_0" to="CE_0">
            <approaching id="SE" impatience="0.0000" arrivalTime="8.148" leaveTime="8.899" arrivalSpeed="11.0457" arrivalSpeedBraking="11.0457" leaveSpeed="13.8900" willPass="1"/>
        </link>
    </timestep>
    <timestep id="7.2500">
        <link from=":C_3_0" via=":C_16_0" to="CE_0">
            <approaching id="NE" impatience="0.0056" arrivalTime="7.029" leaveTime="8.028" arrivalSpeed="13.8900" arrivalSpeedBraking="13.8900" leaveSpeed="13.8900" willPass="1"/>
        </link>
        <link from=":C_10_0" via=":C_18_0" to="CW_0">
            <approaching id="SW" impatience="0.0056" arrivalTime="7.029" leaveTime="8.028" arrivalSpeed="13.8900" arrivalSpeedBraking="13.8900" leaveSpeed="13.8900" willPass="1"/>
        </link>
        <link from="NC_1" via=":C_1_0" to="CW_0">
            <approaching id="NW" impatience="0.0000" arrivalTime="8.148" leaveTime="8.899" arrivalSpeed="11.0457" arrivalSpeedBraking="11.0457" leaveSpeed="13.8900" willPass="1"/>
        </link>
        <link from="SC_1" via=":C_8_0" to="CE_0">
            <approaching id="SE" impatience="0.0000" arrivalTime="8.148" leaveTime="8.899" arrivalSpeed="11.0457" arrivalSpeedBraking="11.0457" leaveSpeed="13.8900" willPass="1"/>
        </link>
    </timestep>
    <timestep id="7.5000">
        <link from=":C_3_0" via=":C_16_0" to="CE_0">
            <approaching id="NE" impatience="0.0056" arrivalTime="7.029" leaveTime="8.028" arrivalSpeed="13.8900" arrivalSpeedBraking="13.8900" leaveSpeed="13.8900" willPass="1"/>
        </link>
        <link from=":C_10_0" via=":C_18_0" to="CW_0">
            <approaching id="SW" impatience="0.0056" arrivalTime="7.029" leaveTime="8.028" arrivalSpeed="13.8900" arrivalSpeedBraking="13.8900" leaveSpeed="13.8900" willPass="1"/>
        </link>
        <link from="NC_1" via=":C_1_0" to="CW_0">
            <approaching id="NW" impatience="0.0000" arrivalTime="8.148" leaveTime="8.899" arrivalSpeed="11.0457" arrivalSpeedBraking="11.0457" leaveSpeed="13.8900" willPass="1"/>
        </link>
        <link from="SC_1" via=":C_8_0" to="CE_0">
            <approaching id="SE" impatience="0.0000" arrivalTime="8.148" leaveTime="8.899" arrivalSpeed="11.0457" arrivalSpeedBraking="11.0457" leaveSpeed="13.8900" willPass="1"/>
        </link>
    </timestep>
    <timestep id="7.7500">
        <link from=":C_3_0" via=":C_16_0" to="CE_0">
            <approaching id="NE" impatience="0.0056" arrivalTime="7.029" leaveTime="8.028" arrivalSpeed="13.8900" arrivalSpeedBraking="13.8900" leaveSpeed="13.8900" willPass="1"/>
        </link>
        <link from=":C_10_0" via=":C_18_0" to="CW_0">
            <approaching id="SW" impatience="0.0056" arrivalTime="7.029" leaveTime="8.028" arrivalSpeed="13.8900" arrivalSpeedBraking="13.8900" leaveSpeed="13.8900" willPass="1"/>
        </link>
        <link from="NC_1" via=":C_1_0" to="CW_0">
            <approaching id="NW" impatience="0.0000" arrivalTime="8.148" leaveTime="8.899" arrivalSpeed="11.0457" arrivalSpeedBraking="11.0457" leaveSpeed="13.8900" willPass="1"/>
        </link>
        <link from="SC_1" via=":C_8_0" to="CE_0">
            <approaching id="SE" impatience="0.0000" arrivalTime="8.148" leaveTime="8.899" arrivalSpeed="11.0457" arrivalSpeedBraking="11.0457" leaveSpeed="13.8900" willPass="1"/>
        </link>
    </timestep>
    <timestep id="8.0000">
        <link from=":C_3_0" via=":C_16_0" to="CE_0">
            <approaching id="NE" impatience="0.0056" arrivalTime="7.029" leaveTime="8.028" arrivalSpeed="13.8900" arrivalSpeedBraking="13.8900" leaveSpeed="13.8900" willPass="1"/>
        </link>
        <link from=":C_10_0" via=":C_18_0" to="CW_0">
            <approaching id="SW" impatience="0.0056" arrivalTime="7.029" leaveTime="8.028" arrivalSpeed="13.8900" arrivalSpeedBraking="13.8900" leaveSpeed="13.8900" willPass="1"/>
        </link>
        <link from="NC_1" via=":C_1_0" to="CW_0">
            <approaching id="NW" impatience="0.0000" arrivalTime="8.148" leaveTime="8.899" arrivalSpeed="11.0457" arrivalSpeedBraking="11.0457" leaveSpeed="13.8900" willPass="1"/>
        </link>
        <link from="SC_1" via=":C_8_0" to="CE_0">
            <approaching id="SE" impatience="0.0000" arrivalTime="8.148" leaveTime="8.899" arrivalSpeed="11.0457" arrivalSpeedBraking="11.0457" leaveSpeed="13.8900" willPass="1"/>
        </link>
    </timestep>
    <timestep id="8.2500">
        <link from=":C_1_0" via=":C_15_0" to="CW_0">
            <approaching id="NW" impatience="0.0000" arrivalTime="8.462" leaveTime="9.327" arrivalSpeed="13.8854" arrivalSpeedBraking="13.8854" leaveSpeed="13.8900" willPass="1"/>
        </link>
        <link from=":C_3_0" via=":C_16_0" to="CE_0">
            <approaching id="NE" impatience="0.0111" arrivalTime="7.029" leaveTime="8.028" arrivalSpeed="13.8900" arrivalSpeedBraking="13.8900" leaveSpeed="13.8900" willPass="1"/>
        </link>
        <link from=":C_8_0" via=":C_17_0" to="CE_0">
            <approaching id="SE" impatience="0.0000" arrivalTime="8.462" leaveTime="9.327" arrivalSpeed="13.8854" arrivalSpeedBraking="13.8854" leaveSpeed="13.8900" willPass="1"/>
        </link>
        <link from=":C_10_0" via=":C_18_0" to="CW_0">
            <approaching id="SW" impatience="0.0111" arrivalTime="7.029" leaveTime="8.028" arrivalSpeed="13.8900" arrivalSpeedBraking="13.8900" leaveSpeed="13.8900" willPass="1"/>
        </link>
    </timestep>
    <timestep id="8.5000">
        <link from=":C_3_0" via=":C_16_0" to="CE_0">
            <approaching id="NE" impatience="0.0111" arrivalTime="7.029" leaveTime="8.028" arrivalSpeed="13.8900" arrivalSpeedBraking="13.8900" leaveSpeed="13.8900" willPass="1"/>
        </link>
        <link from=":C_10_0" via=":C_18_0" to="CW_0">
            <approaching id="SW" impatience="0.0111" arrivalTime="7.029" leaveTime="8.028" arrivalSpeed="13.8900" arrivalSpeedBraking="13.8900" leaveSpeed="13.8900" willPass="1"/>
        </link>
    </timestep>
    <timestep id="8.7500">
        <link from=":C_3_0" via=":C_16_0" to="CE_0">
            <approaching id="NE" impatience="0.0111" arrivalTime="7.029" leaveTime="8.028" arrivalSpeed="13.8900" arrivalSpeedBraking="13.8900" leaveSpeed="13.8900" willPass="1"/>
        </link>
        <link from=":C_10_0" via=":C_18_0" to="CW_0">
            <approaching id="SW" impatience="0.0111" arrivalTime="7.029" leaveTime="8.028" arrivalSpeed="13.8900" arrivalSpeedBraking="13.8900" leaveSpeed="13.8900" willPass="1"/>
        </link>
    </timestep>
    <timestep id="9.0000">
        <link from=":C_3_0" via=":C_16_0" to="CE_0">
            <approaching id="NE" impatience="0.0111" arrivalTime="7.029" leaveTime="8.028" arrivalSpeed="13.8900" arrivalSpeedBraking="13.8900" leaveSpeed="13.8900" willPass="1"/>
        </link>
        <link from=":C_10_0" via=":C_18_0" to="CW_0">
            <approaching id="SW" impatience="0.0111" arrivalTime="7.029" leaveTime="8.028" arrivalSpeed="13.8900" arrivalSpeedBraking="13.8900" leaveSpeed="13.8900" willPass="1"/>
        </link>
    </timestep>
    <timestep id="9.2500">
        <link from=":C_3_0" via=":C_16_0" to="CE_0">
            <approaching id="NE" impatience="0.0164" arrivalTime="7.029" leaveTime="8.028" arrivalSpeed="13.8900" arrivalSpeedBraking="13.8900" leaveSpeed="13.8900" willPass="1"/>
        </link>
        <link from=":C_10_0" via=":C_18_0" to="CW_0">
            <approaching id="SW" impatience="0.0164" arrivalTime="7.029" leaveTime="8.028" arrivalSpeed="13.8900" arrivalSpeedBraking="13.8900" leaveSpeed="13.8900" willPass="1"/>
        </link>
    </timestep>
    <timestep id="9.5000">
        <link from=":C_3_0" via=":C_16_0" to="CE_0">
            <approaching id="NE" impatience="0.0164" arrivalTime="7.029" leaveTime="8.028" arrivalSpeed="13.8900" arrivalSpeedBraking="13.8900" leaveSpeed="13.8900" willPass="1"/>
        </link>
        <link from=":C_10_0" via=":C_18_0" to="CW_0">
            <approaching id="SW" impatience="0.0164" arrivalTime="7.029" leaveTime="8.028" arrivalSpeed="13.8900" arrivalSpeedBraking="13.8900" leaveSpeed="13.8900" willPass="1"/>
        </link>
    </timestep>
    <timestep id="9.7500">
        <link from=":C_3_0" via=":C_16_0" to="CE_0">
            <approaching id="NE" impatience="0.0164" arrivalTime="7.029" leaveTime="8.028" arrivalSpeed="13.8900" arrivalSpeedBraking="13.8900" leaveSpeed="13.8900" willPass="1"/>
        </link>
        <link from=":C_10_0" via=":C_18_0" to="CW_0">
            <approaching id="SW" impatience="0.0164" arrivalTime="7.029" leaveTime="8.028" arrivalSpeed="13.8900" arrivalSpeedBraking="13.8900" leaveSpeed="13.8900" willPass="1"/>
        </link>
    </timestep>
    <timestep id="10.0000"/>
    <timestep id="10.2500"/>
    <timestep id="10.5000"/>
    <timestep id="10.7500"/>
    <timestep id="11.0000"/>
    <timestep id="11.2500"/>
    <timestep id="11.5000"/>
    <timestep id="11.7500"/>
    <timestep id="12.0000"/>
    <timestep id="12.2500"/>
    <timestep id="12.5000"/>
    <timestep id="12.7500"/>
    <timestep id="13.0000"/>
    <timestep id="13.2500"/>
    <timestep id="13.5000"/>
    <timestep id="13.7500"/>
    <timestep id="14.0000"/>
    <timestep id="14.2500"/>
    <timestep id="14.5000"/>
    <timestep id="14.7500"/>
    <timestep id="15.0000"/>
    <timestep id="15.2500"/>
    <timestep id="15.5000"/>
    <timestep id="15.7500"/>
    <timestep id="16.0000"/>
    <timestep id="16.2500"/>
    <timestep id="16.5000"/>
    <timestep id="16.7500"/>
</link-output>
