<routes>   
    <vtype id="vtype1" accel="0.8" decel="4.5" sigma="0.5" length="5" maxspeed="30"/>
    <vehicle id="veh0" depart="0" type="vtype1">
        <route edges="e_m4 e_m5 e_m6 e_shape1 e_u1 e_u0"/>
    </vehicle>
</routes>
