<?xml version="1.0" encoding="UTF-8"?>

<!-- generated on 2022-03-30 14:30:16 by Eclipse SUMO netedit Version v1_12_0+1780-f5ffe7631e0
-->

<additional xmlns:xsi="http://www.w3.org/2001/XMLSchema-instance" xsi:noNamespaceSchemaLocation="http://sumo.dlr.de/xsd/additional_file.xsd">
    <!-- Shapes -->
    <poi id="POI_1" color="red" layer="202.00" lane="gneE1_0" pos="38.00" friendlyPos="1"/>
    <poi id="POI_2" color="green" layer="202.00" lane="gneE1_0" pos="44.00" friendlyPos="1"/>
</additional>
