<?xml version="1.0" encoding="UTF-8"?>

<!-- generated on 2026-06-18T07:58:32.806455+01:00 by Eclipse SUMO sumo v1_27_0+0246-77aedaaf8e3
<sumoConfiguration xmlns:xsi="http://www.w3.org/2001/XMLSchema-instance" xsi:noNamespaceSchemaLocation="http://sumo.dlr.de/xsd/sumoConfiguration.xsd">

    <input>
        <net-file value="input_net.net.xml"/>
        <route-files value="input_routes.rou.xml"/>
        <additional-files value="input_additional.add.xml"/>
    </input>

    <output>
        <tripinfo-output value="tripinfo.xml"/>
        <save-state.times value="200"/>
        <save-state.files value="state.xml"/>
    </output>

    <processing>
        <default.departspeed value="0"/>
        <default.departlane value="first"/>
    </processing>

    <report>
        <duration-log.disable value="true"/>
        <no-step-log value="true"/>
    </report>

    <mesoscopic>
        <mesosim value="true"/>
    </mesoscopic>

</sumoConfiguration>
-->

<snapshot type="meso" version="v1_27_0+0246-77aedaaf8e3" time="200.00" xmlns:xsi="http://www.w3.org/2001/XMLSchema-instance" xsi:noNamespaceSchemaLocation="http://sumo.dlr.de/xsd/state_file.xsd">
    <route id="r1" state="1" edges="E0 E1"/>
    <delay number="1" begin="20" end="19" depart="0.00" time="285.00" speedFactor="1.00" decel="4.50"/>
    <vType id="DEFAULT_VEHTYPE" speedFactor="normc(1.00,0.00)" sigma="0"/>
    <vehicle id="v.19" depart="190.00" departSpeed="max" route="r1" distance="100 0" speedFactor="1.0000" state="2256 190000 1 0 0 0 204398 197199 9223372036854774807 0 0">
        <device id="tripinfo_v.19" state="E0_0 13.89 100 0 0 0 0 -1 -1000 NONE -1 0 -1"/>
    </vehicle>
    <flowState id="v" begin="0.00" number="30" period="10" departSpeed="max" next="200.00" route="r1" done="20" index="20"/>
    <segment id="E0:0">
        <vehicles time="198868" blockTime="-9223372036854775808" value=""/>
    </segment>
    <segment id="E1:0">
        <vehicles time="194398" blockTime="198867" value="v.19"/>
    </segment>
    <tlLogic id="J1" programID="0" phase="0" duration="20000" until="262000" cycleTime="20000" active="0"/>
    <tlLogic id="J1" programID="pGreen" phase="0" duration="100000" until="200000" cycleTime="0" active="1"/>
    <tlLogic id="J1" programID="pRed" phase="1" duration="97000" until="200000" cycleTime="0" active="0"/>
    <tlLogic id="J1" programID="pZConfounder" phase="0" duration="5000" until="200000" cycleTime="5000" active="0"/>
</snapshot>
