<?xml version="1.0" encoding="UTF-8"?>

<!-- generated on 2024-10-02 13:13:53 by Eclipse SUMO netconvert Version v1_20_0+2211-a70841d223d
This data file and the accompanying materials
are made available under the terms of the Eclipse Public License v2.0
which accompanies this distribution, and is available at
http://www.eclipse.org/legal/epl-v20.html
This file may also be made available under the following Secondary
Licenses when the conditions for such availability set forth in the Eclipse
Public License 2.0 are satisfied: GNU General Public License, version 2
or later which is available at
https://www.gnu.org/licenses/old-licenses/gpl-2.0-standalone.html
SPDX-License-Identifier: EPL-2.0 OR GPL-2.0-or-later
<netconvertConfiguration xmlns:xsi="http://www.w3.org/2001/XMLSchema-instance" xsi:noNamespaceSchemaLocation="http://sumo.dlr.de/xsd/netconvertConfiguration.xsd">

    <input>
        <node-files value=".\netedit\network\junctions\move\net.nod.xml"/>
        <edge-files value=".\netedit\network\junctions\move\net.edg.xml"/>
        <connection-files value=".\netedit\network\junctions\move\net.con.xml"/>
        <tllogic-files value=".\netedit\network\junctions\move\net.tll.xml"/>
    </input>

    <output>
        <write-license value="true"/>
        <output-file value=".\netedit\network\junctions\move\net.net.xml"/>
    </output>

    <projection>
        <proj value="+proj=merc +a=6378137 +b=6378137 +lat_ts=0.0 +lon_0=0.0 +x_0=0.0 +y_0=0 +k=1.0 +units=m +nadgrids=@null +wktext +no_defs"/>
    </projection>

    <processing>
        <offset.disable-normalization value="true"/>
    </processing>

    <report>
        <verbose value="true"/>
    </report>

</netconvertConfiguration>
-->

<net version="1.20" junctionCornerDetail="5" limitTurnSpeed="5.50" xmlns:xsi="http://www.w3.org/2001/XMLSchema-instance" xsi:noNamespaceSchemaLocation="http://sumo.dlr.de/xsd/net_file.xsd">

    <location netOffset="0.00,0.00" convBoundary="-60.00,-30.00,60.00,30.00" origBoundary="-10000000000.000000,-10000000000.000000,10000000000.000000,10000000000.000000" projParameter="+proj=merc +a=6378137 +b=6378137 +lat_ts=0.0 +lon_0=0.0 +x_0=0.0 +y_0=0 +k=1.0 +units=m +nadgrids=@null +wktext +no_defs"/>

    <edge id=":J0_0" function="internal">
        <lane id=":J0_0_0" index="0" disallow="pedestrian" speed="6.51" length="4.75" shape="-1.60,7.20 -1.95,4.75 -3.00,3.00 -3.20,2.88"/>
    </edge>
    <edge id=":J0_1" function="internal">
        <lane id=":J0_1_0" index="0" disallow="pedestrian" speed="13.89" length="14.40" shape="-1.60,7.20 -1.60,-7.20"/>
    </edge>
    <edge id=":J0_2" function="internal">
        <lane id=":J0_2_0" index="0" disallow="pedestrian" speed="8.00" length="4.07" shape="-1.60,7.20 -1.05,3.35 -0.96,3.20"/>
    </edge>
    <edge id=":J0_12" function="internal">
        <lane id=":J0_12_0" index="0" disallow="pedestrian" speed="6.51" length="4.28" shape="-3.20,2.88 -4.75,1.95 -7.20,1.60"/>
    </edge>
    <edge id=":J0_13" function="internal">
        <lane id=":J0_13_0" index="0" disallow="pedestrian" speed="8.00" length="10.13" shape="-0.96,3.20 0.60,0.60 3.35,-1.05 7.20,-1.60"/>
    </edge>
    <edge id=":J0_3" function="internal">
        <lane id=":J0_3_0" index="0" disallow="pedestrian" speed="6.51" length="4.75" shape="7.20,1.60 4.75,1.95 3.00,3.00 2.88,3.20"/>
    </edge>
    <edge id=":J0_4" function="internal">
        <lane id=":J0_4_0" index="0" disallow="pedestrian" speed="13.89" length="14.40" shape="7.20,1.60 -7.20,1.60"/>
    </edge>
    <edge id=":J0_5" function="internal">
        <lane id=":J0_5_0" index="0" disallow="pedestrian" speed="8.00" length="4.07" shape="7.20,1.60 3.35,1.05 3.20,0.96"/>
    </edge>
    <edge id=":J0_14" function="internal">
        <lane id=":J0_14_0" index="0" disallow="pedestrian" speed="6.51" length="4.28" shape="2.88,3.20 1.95,4.75 1.60,7.20"/>
    </edge>
    <edge id=":J0_15" function="internal">
        <lane id=":J0_15_0" index="0" disallow="pedestrian" speed="8.00" length="10.13" shape="3.20,0.96 0.60,-0.60 -1.05,-3.35 -1.60,-7.20"/>
    </edge>
    <edge id=":J0_6" function="internal">
        <lane id=":J0_6_0" index="0" disallow="pedestrian" speed="6.51" length="4.75" shape="1.60,-7.20 1.95,-4.75 3.00,-3.00 3.20,-2.88"/>
    </edge>
    <edge id=":J0_7" function="internal">
        <lane id=":J0_7_0" index="0" disallow="pedestrian" speed="13.89" length="14.40" shape="1.60,-7.20 1.60,7.20"/>
    </edge>
    <edge id=":J0_8" function="internal">
        <lane id=":J0_8_0" index="0" disallow="pedestrian" speed="8.00" length="4.07" shape="1.60,-7.20 1.05,-3.35 0.96,-3.20"/>
    </edge>
    <edge id=":J0_16" function="internal">
        <lane id=":J0_16_0" index="0" disallow="pedestrian" speed="6.51" length="4.28" shape="3.20,-2.88 4.75,-1.95 7.20,-1.60"/>
    </edge>
    <edge id=":J0_17" function="internal">
        <lane id=":J0_17_0" index="0" disallow="pedestrian" speed="8.00" length="10.13" shape="0.96,-3.20 -0.60,-0.60 -3.35,1.05 -7.20,1.60"/>
    </edge>
    <edge id=":J0_9" function="internal">
        <lane id=":J0_9_0" index="0" disallow="pedestrian" speed="6.51" length="4.75" shape="-7.20,-1.60 -4.75,-1.95 -3.00,-3.00 -2.88,-3.20"/>
    </edge>
    <edge id=":J0_10" function="internal">
        <lane id=":J0_10_0" index="0" disallow="pedestrian" speed="13.89" length="14.40" shape="-7.20,-1.60 7.20,-1.60"/>
    </edge>
    <edge id=":J0_11" function="internal">
        <lane id=":J0_11_0" index="0" disallow="pedestrian" speed="8.00" length="4.07" shape="-7.20,-1.60 -3.35,-1.05 -3.20,-0.96"/>
    </edge>
    <edge id=":J0_18" function="internal">
        <lane id=":J0_18_0" index="0" disallow="pedestrian" speed="6.51" length="4.28" shape="-2.88,-3.20 -1.95,-4.75 -1.60,-7.20"/>
    </edge>
    <edge id=":J0_19" function="internal">
        <lane id=":J0_19_0" index="0" disallow="pedestrian" speed="8.00" length="10.13" shape="-3.20,-0.96 -0.60,0.60 1.05,3.35 1.60,7.20"/>
    </edge>
    <edge id=":J0_c0" function="crossing" crossingEdges="E2 -E2">
        <lane id=":J0_c0_0" index="0" allow="pedestrian" speed="2.78" length="6.40" width="4.00" shape="3.20,5.20 -3.20,5.20" outlineShape="3.20,7.20 -3.20,7.20 -7.20,3.20 -7.20,5.20 -5.20,7.20 -3.20,7.20 -7.20,3.20 7.20,3.20 5.98,3.31 4.98,3.64 4.20,4.20 3.64,4.98 3.31,5.98"/>
    </edge>
    <edge id=":J0_c1" function="crossing" crossingEdges="E1 -E1">
        <lane id=":J0_c1_0" index="0" allow="pedestrian" speed="2.78" length="6.40" width="4.00" shape="5.20,-3.20 5.20,3.20" outlineShape="7.20,-3.20 7.20,3.20 3.20,7.20 5.20,7.20 7.20,5.20 7.20,3.20 3.20,7.20 3.20,-7.20 3.31,-5.98 3.64,-4.98 4.20,-4.20 4.98,-3.64 5.98,-3.31"/>
    </edge>
    <edge id=":J0_c2" function="crossing" crossingEdges="E3 -E3">
        <lane id=":J0_c2_0" index="0" allow="pedestrian" speed="2.78" length="6.40" width="4.00" shape="-3.20,-5.20 3.20,-5.20" outlineShape="-3.20,-7.20 3.20,-7.20 7.20,-3.20 7.20,-5.20 5.20,-7.20 3.20,-7.20 7.20,-3.20 -7.20,-3.20 -5.98,-3.31 -4.98,-3.64 -4.20,-4.20 -3.64,-4.98 -3.31,-5.98"/>
    </edge>
    <edge id=":J0_c3" function="crossing" crossingEdges="E0 -E0">
        <lane id=":J0_c3_0" index="0" allow="pedestrian" speed="2.78" length="6.40" width="4.00" shape="-5.20,3.20 -5.20,-3.20" outlineShape="-7.20,3.20 -7.20,-3.20 -3.20,-7.20 -5.20,-7.20 -7.20,-5.20 -7.20,-3.20 -3.20,-7.20 -3.20,7.20 -3.31,5.98 -3.64,4.98 -4.20,4.20 -4.98,3.64 -5.98,3.31"/>
    </edge>
    <edge id=":J0_w0" function="walkingarea">
        <lane id=":J0_w0_0" index="0" allow="pedestrian" speed="2.78" length="3.30" width="4.00" shape="-7.20,3.20 -7.20,5.20 -5.20,7.20 -3.20,7.20 -3.31,5.98 -3.64,4.98 -4.20,4.20 -4.98,3.64 -5.98,3.31"/>
    </edge>
    <edge id=":J0_w1" function="walkingarea">
        <lane id=":J0_w1_0" index="0" allow="pedestrian" speed="2.78" length="3.30" width="4.00" shape="3.20,7.20 5.20,7.20 7.20,5.20 7.20,3.20 5.98,3.31 4.98,3.64 4.20,4.20 3.64,4.98 3.31,5.98"/>
    </edge>
    <edge id=":J0_w2" function="walkingarea">
        <lane id=":J0_w2_0" index="0" allow="pedestrian" speed="2.78" length="3.30" width="4.00" shape="7.20,-3.20 7.20,-5.20 5.20,-7.20 3.20,-7.20 3.31,-5.98 3.64,-4.98 4.20,-4.20 4.98,-3.64 5.98,-3.31"/>
    </edge>
    <edge id=":J0_w3" function="walkingarea">
        <lane id=":J0_w3_0" index="0" allow="pedestrian" speed="2.78" length="3.30" width="4.00" shape="-3.20,-7.20 -5.20,-7.20 -7.20,-5.20 -7.20,-3.20 -5.98,-3.31 -4.98,-3.64 -4.20,-4.20 -3.64,-4.98 -3.31,-5.98"/>
    </edge>
    <edge id=":J1_w0" function="walkingarea">
        <lane id=":J1_w0_0" index="0" allow="pedestrian" speed="2.78" length="8.40" width="2.00" shape="-25.00,-3.20 -25.00,-5.20 -25.00,5.20 -25.00,3.20"/>
    </edge>
    <edge id=":J2_w0" function="walkingarea">
        <lane id=":J2_w0_0" index="0" allow="pedestrian" speed="2.78" length="8.40" width="2.00" shape="25.00,3.20 25.00,5.20 25.00,-5.20 25.00,-3.20"/>
    </edge>
    <edge id=":J3_w0" function="walkingarea">
        <lane id=":J3_w0_0" index="0" allow="pedestrian" speed="2.78" length="8.40" width="2.00" shape="-3.20,25.00 -5.20,25.00 5.20,25.00 3.20,25.00"/>
    </edge>
    <edge id=":J4_w0" function="walkingarea">
        <lane id=":J4_w0_0" index="0" allow="pedestrian" speed="2.78" length="8.40" width="2.00" shape="3.20,-25.00 5.20,-25.00 -5.20,-25.00 -3.20,-25.00"/>
    </edge>
    <edge id=":JunctionExtern0_0" function="internal">
        <lane id=":JunctionExtern0_0_0" index="0" disallow="pedestrian" speed="3.53" length="4.38" width="3.00" shape="-60.00,1.50 -61.12,0.75 -61.50,0.00 -61.12,-0.75 -60.00,-1.50"/>
    </edge>
    <edge id=":JunctionExtern1_0" function="internal">
        <lane id=":JunctionExtern1_0_0" index="0" disallow="pedestrian" speed="3.53" length="4.38" width="3.00" shape="60.00,-1.50 61.12,-0.75 61.50,0.00 61.12,0.75 60.00,1.50"/>
    </edge>

    <edge id="-E0" from="J1" to="J0" priority="-1">
        <lane id="-E0_0" index="0" allow="pedestrian" speed="13.89" length="17.80" width="2.00" shape="-25.00,-4.20 -7.20,-4.20"/>
        <lane id="-E0_1" index="1" disallow="pedestrian" speed="13.89" length="17.80" shape="-25.00,-1.60 -7.20,-1.60"/>
    </edge>
    <edge id="-E1" from="J2" to="J0" priority="-1">
        <lane id="-E1_0" index="0" allow="pedestrian" speed="13.89" length="17.80" width="2.00" shape="25.00,4.20 7.20,4.20"/>
        <lane id="-E1_1" index="1" disallow="pedestrian" speed="13.89" length="17.80" shape="25.00,1.60 7.20,1.60"/>
    </edge>
    <edge id="-E2" from="J3" to="J0" priority="-1">
        <lane id="-E2_0" index="0" allow="pedestrian" speed="13.89" length="17.80" width="2.00" shape="-4.20,25.00 -4.20,7.20"/>
        <lane id="-E2_1" index="1" disallow="pedestrian" speed="13.89" length="17.80" shape="-1.60,25.00 -1.60,7.20"/>
    </edge>
    <edge id="-E3" from="J4" to="J0" priority="-1">
        <lane id="-E3_0" index="0" allow="pedestrian" speed="13.89" length="17.80" width="2.00" shape="4.20,-25.00 4.20,-7.20"/>
        <lane id="-E3_1" index="1" disallow="pedestrian" speed="13.89" length="17.80" shape="1.60,-25.00 1.60,-7.20"/>
    </edge>
    <edge id="E0" from="J0" to="J1" priority="-1">
        <lane id="E0_0" index="0" allow="pedestrian" speed="13.89" length="17.80" width="2.00" shape="-7.20,4.20 -25.00,4.20"/>
        <lane id="E0_1" index="1" disallow="pedestrian" speed="13.89" length="17.80" shape="-7.20,1.60 -25.00,1.60"/>
    </edge>
    <edge id="E1" from="J0" to="J2" priority="-1">
        <lane id="E1_0" index="0" allow="pedestrian" speed="13.89" length="17.80" width="2.00" shape="7.20,-4.20 25.00,-4.20"/>
        <lane id="E1_1" index="1" disallow="pedestrian" speed="13.89" length="17.80" shape="7.20,-1.60 25.00,-1.60"/>
    </edge>
    <edge id="E2" from="J0" to="J3" priority="-1">
        <lane id="E2_0" index="0" allow="pedestrian" speed="13.89" length="17.80" width="2.00" shape="4.20,7.20 4.20,25.00"/>
        <lane id="E2_1" index="1" disallow="pedestrian" speed="13.89" length="17.80" shape="1.60,7.20 1.60,25.00"/>
    </edge>
    <edge id="E3" from="J0" to="J4" priority="-1">
        <lane id="E3_0" index="0" allow="pedestrian" speed="13.89" length="17.80" width="2.00" shape="-4.20,-7.20 -4.20,-25.00"/>
        <lane id="E3_1" index="1" disallow="pedestrian" speed="13.89" length="17.80" shape="-1.60,-7.20 -1.60,-25.00"/>
    </edge>
    <edge id="EdgeExternBot" from="JunctionExtern0" to="JunctionExtern1" priority="-1" length="175.00" shape="-60.00,0.00 -45.00,0.00 -45.00,-25.00 -40.00,-30.00 40.00,-30.00 45.00,-25.00 45.00,0.00 60.00,0.00">
        <lane id="EdgeExternBot_0" index="0" disallow="pedestrian" speed="13.89" length="175.00" width="3.00" shape="-60.00,-1.50 -46.50,-1.50 -46.50,-25.62 -40.62,-31.50 40.62,-31.50 46.50,-25.62 46.50,-1.50 60.00,-1.50"/>
    </edge>
    <edge id="EdgeExternTop" from="JunctionExtern1" to="JunctionExtern0" priority="-1" length="175.00" shape="60.00,0.00 45.00,0.00 45.00,25.00 40.00,30.00 -40.00,30.00 -45.00,25.00 -45.00,0.00 -60.00,0.00">
        <lane id="EdgeExternTop_0" index="0" disallow="pedestrian" speed="13.89" length="175.00" width="3.00" shape="60.00,1.50 46.50,1.50 46.50,25.62 40.62,31.50 -40.62,31.50 -46.50,25.62 -46.50,1.50 -60.00,1.50"/>
    </edge>

    <tlLogic id="J0" type="static" programID="0" offset="0">
        <phase duration="37" state="gGgrrrgGgrrrrGrG"/>
        <phase duration="5"  state="gGgrrrgGgrrrrrrr"/>
        <phase duration="3"  state="yyyrrryyyrrrrrrr"/>
        <phase duration="37" state="rrrgGgrrrgGgGrGr"/>
        <phase duration="5"  state="rrrgGgrrrgGgrrrr"/>
        <phase duration="3"  state="rrryyyrrryyyrrrr"/>
    </tlLogic>

    <junction id="J0" type="traffic_light" x="0.00" y="0.00" incLanes="-E2_0 -E2_1 -E1_0 -E1_1 -E3_0 -E3_1 -E0_0 -E0_1 :J0_w1_0 :J0_w2_0 :J0_w3_0 :J0_w0_0" intLanes=":J0_12_0 :J0_1_0 :J0_13_0 :J0_14_0 :J0_4_0 :J0_15_0 :J0_16_0 :J0_7_0 :J0_17_0 :J0_18_0 :J0_10_0 :J0_19_0 :J0_c0_0 :J0_c1_0 :J0_c2_0 :J0_c3_0" shape="-5.20,7.20 5.20,7.20 5.42,6.09 5.70,5.70 6.09,5.42 6.59,5.26 7.20,5.20 7.20,-5.20 6.09,-5.42 5.70,-5.70 5.42,-6.09 5.26,-6.59 5.20,-7.20 -5.20,-7.20 -5.42,-6.09 -5.70,-5.70 -6.09,-5.42 -6.59,-5.26 -7.20,-5.20 -7.20,5.20 -6.09,5.42 -5.70,5.70 -5.42,6.09 -5.26,6.59">
        <request index="0"  response="1001000000000000" foes="1001000100010000" cont="1"/>
        <request index="1"  response="0101101000100000" foes="0101111100110000" cont="0"/>
        <request index="2"  response="0011100111100000" foes="0011110111110000" cont="1"/>
        <request index="3"  response="0011000010000000" foes="0011100010000000" cont="1"/>
        <request index="4"  response="1010000110000111" foes="1010100110000111" cont="0"/>
        <request index="5"  response="0110011110000110" foes="0110111110000110" cont="1"/>
        <request index="6"  response="0110000000000000" foes="0110010000000100" cont="1"/>
        <request index="7"  response="0101100000101000" foes="0101110000111100" cont="0"/>
        <request index="8"  response="1100100000100011" foes="1100110000110111" cont="1"/>
        <request index="9"  response="1100000000000010" foes="1100000000100010" cont="1"/>
        <request index="10" response="1010000111000110" foes="1010000111100110" cont="0"/>
        <request index="11" response="1001000110111110" foes="1001000110111110" cont="1"/>
        <request index="12" response="0000000000000000" foes="0000100010001111" cont="0"/>
        <request index="13" response="0000000000000000" foes="0000010001111100" cont="0"/>
        <request index="14" response="0000000000000000" foes="0000001111100010" cont="0"/>
        <request index="15" response="0000000000000000" foes="0000111100010001" cont="0"/>
    </junction>
    <junction id="J1" type="dead_end" x="-25.00" y="0.00" incLanes="E0_0 E0_1" intLanes="" shape="-25.00,0.00 -25.00,5.20 -25.00,0.00"/>
    <junction id="J2" type="dead_end" x="25.00" y="0.00" incLanes="E1_0 E1_1" intLanes="" shape="25.00,0.00 25.00,-5.20 25.00,0.00"/>
    <junction id="J3" type="dead_end" x="0.00" y="25.00" incLanes="E2_0 E2_1" intLanes="" shape="0.00,25.00 5.20,25.00 0.00,25.00"/>
    <junction id="J4" type="dead_end" x="0.00" y="-25.00" incLanes="E3_0 E3_1" intLanes="" shape="0.00,-25.00 -5.20,-25.00 0.00,-25.00"/>
    <junction id="JunctionExtern0" type="priority" x="-60.00" y="0.00" incLanes="EdgeExternTop_0" intLanes=":JunctionExtern0_0_0" shape="-60.00,0.00 -60.00,3.00 -60.00,0.00">
        <request index="0" response="0" foes="0" cont="0"/>
    </junction>
    <junction id="JunctionExtern1" type="priority" x="60.00" y="0.00" incLanes="EdgeExternBot_0" intLanes=":JunctionExtern1_0_0" shape="60.00,0.00 60.00,-3.00 60.00,0.00">
        <request index="0" response="0" foes="0" cont="0"/>
    </junction>

    <junction id=":J0_12_0" type="internal" x="-3.20" y="2.88" incLanes=":J0_0_0" intLanes=":J0_4_0 :J0_8_0 :J0_c0_0 :J0_c3_0"/>
    <junction id=":J0_13_0" type="internal" x="-0.96" y="3.20" incLanes=":J0_2_0 -E3_1" intLanes=":J0_4_0 :J0_5_0 :J0_6_0 :J0_7_0 :J0_10_0 :J0_11_0 :J0_c0_0 :J0_c1_0"/>
    <junction id=":J0_14_0" type="internal" x="2.88" y="3.20" incLanes=":J0_3_0" intLanes=":J0_7_0 :J0_11_0 :J0_c0_0 :J0_c1_0"/>
    <junction id=":J0_15_0" type="internal" x="3.20" y="0.96" incLanes=":J0_5_0 -E0_1" intLanes=":J0_1_0 :J0_2_0 :J0_7_0 :J0_8_0 :J0_9_0 :J0_10_0 :J0_c1_0 :J0_c2_0"/>
    <junction id=":J0_16_0" type="internal" x="3.20" y="-2.88" incLanes=":J0_6_0" intLanes=":J0_2_0 :J0_10_0 :J0_c1_0 :J0_c2_0"/>
    <junction id=":J0_17_0" type="internal" x="0.96" y="-3.20" incLanes=":J0_8_0 -E2_1" intLanes=":J0_0_0 :J0_1_0 :J0_4_0 :J0_5_0 :J0_10_0 :J0_11_0 :J0_c2_0 :J0_c3_0"/>
    <junction id=":J0_18_0" type="internal" x="-2.88" y="-3.20" incLanes=":J0_9_0" intLanes=":J0_1_0 :J0_5_0 :J0_c2_0 :J0_c3_0"/>
    <junction id=":J0_19_0" type="internal" x="-3.20" y="-0.96" incLanes=":J0_11_0 -E1_1" intLanes=":J0_1_0 :J0_2_0 :J0_3_0 :J0_4_0 :J0_7_0 :J0_8_0 :J0_c0_0 :J0_c3_0"/>

    <connection from="-E0" to="E3" fromLane="1" toLane="1" via=":J0_9_0" tl="J0" linkIndex="9" dir="r" state="o"/>
    <connection from="-E0" to="E1" fromLane="1" toLane="1" via=":J0_10_0" tl="J0" linkIndex="10" dir="s" state="o"/>
    <connection from="-E0" to="E2" fromLane="1" toLane="1" via=":J0_11_0" tl="J0" linkIndex="11" dir="l" state="o"/>
    <connection from="-E1" to="E2" fromLane="1" toLane="1" via=":J0_3_0" tl="J0" linkIndex="3" dir="r" state="o"/>
    <connection from="-E1" to="E0" fromLane="1" toLane="1" via=":J0_4_0" tl="J0" linkIndex="4" dir="s" state="o"/>
    <connection from="-E1" to="E3" fromLane="1" toLane="1" via=":J0_5_0" tl="J0" linkIndex="5" dir="l" state="o"/>
    <connection from="-E2" to="E0" fromLane="1" toLane="1" via=":J0_0_0" tl="J0" linkIndex="0" dir="r" state="o"/>
    <connection from="-E2" to="E3" fromLane="1" toLane="1" via=":J0_1_0" tl="J0" linkIndex="1" dir="s" state="o"/>
    <connection from="-E2" to="E1" fromLane="1" toLane="1" via=":J0_2_0" tl="J0" linkIndex="2" dir="l" state="o"/>
    <connection from="-E3" to="E1" fromLane="1" toLane="1" via=":J0_6_0" tl="J0" linkIndex="6" dir="r" state="o"/>
    <connection from="-E3" to="E2" fromLane="1" toLane="1" via=":J0_7_0" tl="J0" linkIndex="7" dir="s" state="o"/>
    <connection from="-E3" to="E0" fromLane="1" toLane="1" via=":J0_8_0" tl="J0" linkIndex="8" dir="l" state="o"/>
    <connection from="EdgeExternBot" to="EdgeExternTop" fromLane="0" toLane="0" via=":JunctionExtern1_0_0" dir="t" state="M"/>
    <connection from="EdgeExternTop" to="EdgeExternBot" fromLane="0" toLane="0" via=":JunctionExtern0_0_0" dir="t" state="M"/>

    <connection from=":J0_0" to="E0" fromLane="0" toLane="1" via=":J0_12_0" dir="r" state="m"/>
    <connection from=":J0_12" to="E0" fromLane="0" toLane="1" dir="r" state="m"/>
    <connection from=":J0_1" to="E3" fromLane="0" toLane="1" dir="s" state="M"/>
    <connection from=":J0_2" to="E1" fromLane="0" toLane="1" via=":J0_13_0" dir="l" state="m"/>
    <connection from=":J0_13" to="E1" fromLane="0" toLane="1" dir="l" state="m"/>
    <connection from=":J0_3" to="E2" fromLane="0" toLane="1" via=":J0_14_0" dir="r" state="m"/>
    <connection from=":J0_14" to="E2" fromLane="0" toLane="1" dir="r" state="m"/>
    <connection from=":J0_4" to="E0" fromLane="0" toLane="1" dir="s" state="M"/>
    <connection from=":J0_5" to="E3" fromLane="0" toLane="1" via=":J0_15_0" dir="l" state="m"/>
    <connection from=":J0_15" to="E3" fromLane="0" toLane="1" dir="l" state="m"/>
    <connection from=":J0_6" to="E1" fromLane="0" toLane="1" via=":J0_16_0" dir="r" state="m"/>
    <connection from=":J0_16" to="E1" fromLane="0" toLane="1" dir="r" state="m"/>
    <connection from=":J0_7" to="E2" fromLane="0" toLane="1" dir="s" state="M"/>
    <connection from=":J0_8" to="E0" fromLane="0" toLane="1" via=":J0_17_0" dir="l" state="m"/>
    <connection from=":J0_17" to="E0" fromLane="0" toLane="1" dir="l" state="m"/>
    <connection from=":J0_9" to="E3" fromLane="0" toLane="1" via=":J0_18_0" dir="r" state="m"/>
    <connection from=":J0_18" to="E3" fromLane="0" toLane="1" dir="r" state="m"/>
    <connection from=":J0_10" to="E1" fromLane="0" toLane="1" dir="s" state="M"/>
    <connection from=":J0_11" to="E2" fromLane="0" toLane="1" via=":J0_19_0" dir="l" state="m"/>
    <connection from=":J0_19" to="E2" fromLane="0" toLane="1" dir="l" state="m"/>
    <connection from=":JunctionExtern0_0" to="EdgeExternBot" fromLane="0" toLane="0" dir="t" state="M"/>
    <connection from=":JunctionExtern1_0" to="EdgeExternTop" fromLane="0" toLane="0" dir="t" state="M"/>

    <connection from=":J0_c0" to=":J0_w0" fromLane="0" toLane="0" dir="s" state="M"/>
    <connection from=":J0_c1" to=":J0_w1" fromLane="0" toLane="0" dir="s" state="M"/>
    <connection from=":J0_c2" to=":J0_w2" fromLane="0" toLane="0" dir="s" state="M"/>
    <connection from=":J0_c3" to=":J0_w3" fromLane="0" toLane="0" dir="s" state="M"/>
    <connection from=":J0_w0" to=":J0_c3" fromLane="0" toLane="0" tl="J0" linkIndex="15" dir="s" state="M"/>
    <connection from=":J0_w0" to="E0" fromLane="0" toLane="0" dir="s" state="M"/>
    <connection from="-E2" to=":J0_w0" fromLane="0" toLane="0" dir="s" state="M"/>
    <connection from=":J0_w1" to=":J0_c0" fromLane="0" toLane="0" tl="J0" linkIndex="12" dir="s" state="M"/>
    <connection from=":J0_w1" to="E2" fromLane="0" toLane="0" dir="s" state="M"/>
    <connection from="-E1" to=":J0_w1" fromLane="0" toLane="0" dir="s" state="M"/>
    <connection from=":J0_w2" to=":J0_c1" fromLane="0" toLane="0" tl="J0" linkIndex="13" dir="s" state="M"/>
    <connection from=":J0_w2" to="E1" fromLane="0" toLane="0" dir="s" state="M"/>
    <connection from="-E3" to=":J0_w2" fromLane="0" toLane="0" dir="s" state="M"/>
    <connection from=":J0_w3" to=":J0_c2" fromLane="0" toLane="0" tl="J0" linkIndex="14" dir="s" state="M"/>
    <connection from=":J0_w3" to="E3" fromLane="0" toLane="0" dir="s" state="M"/>
    <connection from="-E0" to=":J0_w3" fromLane="0" toLane="0" dir="s" state="M"/>
    <connection from=":J1_w0" to="-E0" fromLane="0" toLane="0" dir="s" state="M"/>
    <connection from="E0" to=":J1_w0" fromLane="0" toLane="0" dir="s" state="M"/>
    <connection from=":J2_w0" to="-E1" fromLane="0" toLane="0" dir="s" state="M"/>
    <connection from="E1" to=":J2_w0" fromLane="0" toLane="0" dir="s" state="M"/>
    <connection from=":J3_w0" to="-E2" fromLane="0" toLane="0" dir="s" state="M"/>
    <connection from="E2" to=":J3_w0" fromLane="0" toLane="0" dir="s" state="M"/>
    <connection from=":J4_w0" to="-E3" fromLane="0" toLane="0" dir="s" state="M"/>
    <connection from="E3" to=":J4_w0" fromLane="0" toLane="0" dir="s" state="M"/>
</net>
