<?xml version="1.0" encoding="UTF-8"?>

<!-- generated on 2024-10-02 13:13:53 by Eclipse SUMO netconvert Version v1_20_0+2211-a70841d223d
This data file and the accompanying materials
are made available under the terms of the Eclipse Public License v2.0
which accompanies this distribution, and is available at
http://www.eclipse.org/legal/epl-v20.html
This file may also be made available under the following Secondary
Licenses when the conditions for such availability set forth in the Eclipse
Public License 2.0 are satisfied: GNU General Public License, version 2
or later which is available at
https://www.gnu.org/licenses/old-licenses/gpl-2.0-standalone.html
SPDX-License-Identifier: EPL-2.0 OR GPL-2.0-or-later
-->

<netconvertConfiguration xmlns:xsi="http://www.w3.org/2001/XMLSchema-instance" xsi:noNamespaceSchemaLocation="http://sumo.dlr.de/xsd/netconvertConfiguration.xsd">

    <input>
        <node-files value="net.nod.xml"/>
        <edge-files value="net.edg.xml"/>
        <connection-files value="net.con.xml"/>
        <tllogic-files value="net.tll.xml"/>
    </input>

    <output>
        <write-license value="true"/>
        <output-file value="net.net.xml"/>
    </output>

    <projection>
        <proj value="+proj=merc +a=6378137 +b=6378137 +lat_ts=0.0 +lon_0=0.0 +x_0=0.0 +y_0=0 +k=1.0 +units=m +nadgrids=@null +wktext +no_defs"/>
    </projection>

    <processing>
        <offset.disable-normalization value="true"/>
    </processing>

</netconvertConfiguration>
