<?xml version="1.0"?>

<!-- generated on 06/24/11 15:27:37 by SUMO duarouter Version dev-SVN-r10707
<?xml version="1.0" encoding="iso-8859-1"?>

<configuration xmlns:xsi="http://www.w3.org/2001/XMLSchema-instance" xsi:noNamespaceSchemaLocation="http://sumo.sf.net/xsd/duarouterConfiguration.xsd">

    <input>
        <net-file value="input_net.net.xml"/>
        <alternative-files value="input_alts.rou.alt.xml"/>
    </input>

    <output>
        <output-file value="routes.rou.xml"/>
    </output>

    <report>
        <verbose value="true"/>
        <log value="log.txt"/>
    </report>

</configuration>
-->

<routes xmlns:xsi="http://www.w3.org/2001/XMLSchema-instance" xsi:noNamespaceSchemaLocation="http://sumo.sf.net/xsd/routes_file.xsd">
   <vType id="0" length="3.00" minGap="2.00" maxSpeed="70.00">
      <carFollowing-Krauss accel="2.60" decel="4.50" sigma="0.50"/>
   </vType>
    <vehicle id="0" type="0" depart="0.00" color="1.00,1.00,0.00">
        <route edges="beg middle end rend"/>
    </vehicle>
    <vehicle id="10" type="0" depart="0.00" color="1.00,1.00,0.00">
        <route edges="beg middle end rend"/>
    </vehicle>
</routes>
