<?xml version="1.0" encoding="UTF-8"?>

<!-- generated on 11.12.2018 10:12:17 by Eclipse SUMO netedit Version v1_0_1+1004-6f7c431813
<configuration xmlns:xsi="http://www.w3.org/2001/XMLSchema-instance" xsi:noNamespaceSchemaLocation="https://sumo.dlr.de/xsd/netconvertConfiguration.xsd">

    <input>
        <sumo-net-file value="C:/Users/SUMO-Test/.texttest/tmp/netedit.gui.1_from_10Dec133942.2740/netedit.gui/additionalElements/e2MultiLaneDetector/create/vtypes\input_net.net.xml"/>
    </input>

    <output>
        <output-file value="C:/Users/SUMO-Test/.texttest/tmp/netedit.gui.1_from_10Dec133942.2740/netedit.gui/additionalElements/e2MultiLaneDetector/create/vtypes\net.net.xml"/>
    </output>

    <processing>
        <geometry.max-grade.fix value="false"/>
        <offset.disable-normalization value="true"/>
        <lefthand value="false"/>
    </processing>

    <junctions>
        <no-turnarounds value="true"/>
        <junctions.corner-detail value="5"/>
        <junctions.limit-turn-speed value="5.5"/>
        <rectangular-lane-cut value="false"/>
    </junctions>

    <pedestrian>
        <walkingareas value="false"/>
    </pedestrian>

    <netedit>
        <additionals-output value="C:/Users/SUMO-Test/.texttest/tmp/netedit.gui.1_from_10Dec133942.2740/netedit.gui/additionalElements/e2MultiLaneDetector/create/vtypes\additionals.xml"/>
        <shapes-output value="C:/Users/SUMO-Test/.texttest/tmp/netedit.gui.1_from_10Dec133942.2740/netedit.gui/additionalElements/e2MultiLaneDetector/create/vtypes\shapes.xml"/>
    </netedit>

    <visualisation>
        <gui-settings-file value="C:/Users/SUMO-Test/.texttest/tmp/netedit.gui.1_from_10Dec133942.2740/netedit.gui/additionalElements/e2MultiLaneDetector/create/vtypes\gui-settings.xml"/>
        <window-size value="700,500"/>
        <window-pos value="50,50"/>
        <gui-testing value="true"/>
        <gui-testing-debug value="true"/>
    </visualisation>

    <report>
        <no-warnings value="true"/>
        <error-log value="C:/Users/SUMO-Test/.texttest/tmp/netedit.gui.1_from_10Dec133942.2740/netedit.gui/additionalElements/e2MultiLaneDetector/create/vtypes\log.txt"/>
    </report>

</configuration>
-->

<additional xmlns:xsi="http://www.w3.org/2001/XMLSchema-instance" xsi:noNamespaceSchemaLocation="https://sumo.dlr.de/xsd/additional_file.xsd">
    <e2Detector id="e2MultilaneDetector_0" vTypes="private passenger taxi bus" lanes="gneE2_0 gneE3_0" pos="11.00" freq="900.00" file="e2MultilaneDetector_0.xml" endPos="11.00"/>
</additional>
