<?xml version="1.0" encoding="UTF-8"?>

<!-- generated on 2022-11-25 08:28:19 by Eclipse SUMO netedit Version v1_15_0+0595-bcadc7f
<configuration xmlns:xsi="http://www.w3.org/2001/XMLSchema-instance" xsi:noNamespaceSchemaLocation="http://sumo.dlr.de/xsd/netconvertConfiguration.xsd">

    <input>
        <sumo-net-file value="net2.net.xml"/>
    </input>

    <output>
        <output-file value="net2.net.xml"/>
    </output>

    <processing>
        <geometry.min-radius.fix.railways value="false"/>
        <geometry.max-grade.fix value="false"/>
        <offset.disable-normalization value="true"/>
        <lefthand value="0"/>
    </processing>

    <junctions>
        <no-turnarounds value="true"/>
        <junctions.corner-detail value="0"/>
        <junctions.limit-turn-speed value="-1.00"/>
        <rectangular-lane-cut value="0"/>
    </junctions>

    <pedestrian>
        <walkingareas value="0"/>
    </pedestrian>

</configuration>
-->

<net version="1.9" xmlns:xsi="http://www.w3.org/2001/XMLSchema-instance" xsi:noNamespaceSchemaLocation="http://sumo.dlr.de/xsd/net_file.xsd">

    <location netOffset="100.00,100.00" convBoundary="-0.36,0.00,200.13,109.71" origBoundary="-10000000000.00,-10000000000.00,10000000000.00,10000000000.00" projParameter="!"/>

    <edge id=":C_0" function="internal">
        <lane id=":C_0_0" index="0" speed="13.89" length="9.11" shape="104.80,89.06 105.16,91.57 106.23,93.31 108.01,94.28 110.50,94.47"/>
        <lane id=":C_0_1" index="1" speed="13.89" length="14.53" shape="101.60,89.06 102.17,93.05 103.88,95.82 106.73,97.36 110.72,97.66"/>
    </edge>
    <edge id=":C_2" function="internal">
        <lane id=":C_2_0" index="0" speed="13.89" length="9.04" shape="89.48,94.32 91.98,94.17 93.77,93.24 94.84,91.54 95.20,89.06"/>
        <lane id=":C_2_1" index="1" speed="13.89" length="11.88" shape="89.48,94.32 93.38,94.27 96.17,93.37 97.84,91.63 98.40,89.06"/>
    </edge>
    <edge id=":C_4" function="internal">
        <lane id=":C_4_0" index="0" speed="13.89" length="21.29" shape="89.48,94.32 95.57,94.79 99.99,94.96 104.41,94.85 110.50,94.47"/>
        <lane id=":C_4_1" index="1" speed="13.89" length="21.29" shape="89.22,97.51 95.38,97.98 99.97,98.15 104.55,98.04 110.72,97.66"/>
    </edge>
    <edge id=":E_0" function="internal">
        <lane id=":E_0_0" index="0" speed="13.89" length="0.30" shape="204.80,99.93 204.80,100.23"/>
        <lane id=":E_0_1" index="1" speed="13.89" length="0.30" shape="201.60,99.87 201.60,100.18"/>
    </edge>
    <edge id=":J1_0" function="internal">
        <lane id=":J1_0_0" index="0" speed="13.89" length="0.28" shape="99.64,113.17 99.38,113.17"/>
        <lane id=":J1_0_1" index="1" speed="13.89" length="0.28" shape="99.65,109.97 99.34,109.97"/>
    </edge>
    <edge id=":S_0" function="internal">
        <lane id=":S_0_0" index="0" speed="13.89" length="4.67" shape="98.40,0.00 99.20,-1.20 100.00,-1.60 100.80,-1.20 101.60,0.00"/>
    </edge>
    <edge id=":W_0" function="internal">
        <lane id=":W_0_0" index="0" speed="13.89" length="0.29" shape="-4.79,100.32 -4.80,100.05"/>
        <lane id=":W_0_1" index="1" speed="13.89" length="0.29" shape="-1.59,100.22 -1.61,99.90"/>
    </edge>

    <edge id="CE" from="C" to="E" priority="2" shape="100.00,100.00 200.13,93.11 200.00,100.00">
        <lane id="CE_0" index="0" speed="13.89" length="103.23" shape="110.50,94.47 205.03,87.96 204.80,99.93"/>
        <lane id="CE_1" index="1" speed="13.89" length="103.23" shape="110.72,97.66 201.76,91.39 201.60,99.87"/>
    </edge>
    <edge id="CS" from="C" to="S" priority="0">
        <lane id="CS_0" index="0" speed="13.89" length="89.06" shape="95.20,89.06 95.20,0.00"/>
        <lane id="CS_1" index="1" speed="13.89" length="89.06" shape="98.40,89.06 98.40,0.00"/>
    </edge>
    <edge id="CW" from="J1" to="W" priority="2" shape="99.49,108.37 0.31,109.71 0.00,100.00">
        <lane id="CW_0" index="0" speed="13.89" length="114.85" shape="99.38,113.17 -4.34,114.57 -4.79,100.32"/>
        <lane id="CW_1" index="1" speed="13.89" length="114.85" shape="99.34,109.97 -1.24,111.33 -1.59,100.22"/>
    </edge>
    <edge id="EC" from="E" to="J1" priority="2" shape="200.00,100.00 199.87,108.87 99.49,108.37">
        <lane id="EC_0" index="0" speed="13.89" length="115.26" shape="204.80,100.23 204.60,113.69 99.64,113.17"/>
        <lane id="EC_1" index="1" speed="13.89" length="115.26" shape="201.60,100.18 201.45,110.48 99.65,109.97"/>
    </edge>
    <edge id="SC" from="S" to="C" priority="0">
        <lane id="SC_0" index="0" speed="13.89" length="89.06" shape="104.80,0.00 104.80,89.06"/>
        <lane id="SC_1" index="1" speed="13.89" length="89.06" shape="101.60,0.00 101.60,89.06"/>
    </edge>
    <edge id="WC" from="W" to="C" priority="2" shape="0.00,100.00 -0.36,91.80 100.00,100.00">
        <lane id="WC_0" index="0" speed="13.89" length="105.05" shape="-4.80,100.05 -5.39,86.57 89.48,94.32"/>
        <lane id="WC_1" index="1" speed="13.89" length="105.05" shape="-1.61,99.90 -2.04,90.06 89.22,97.51"/>
    </edge>

    <junction id="C" type="priority" x="100.00" y="100.00" incLanes="SC_0 SC_1 WC_0 WC_1" intLanes=":C_0_0 :C_0_1 :C_2_0 :C_2_1 :C_4_0 :C_4_1" shape="110.83,99.25 110.39,92.87 106.40,89.06 93.60,89.06 89.61,92.73 89.09,99.11">
        <request index="0" response="110000" foes="110000" cont="0"/>
        <request index="1" response="110000" foes="110000" cont="0"/>
        <request index="2" response="000000" foes="000000" cont="0"/>
        <request index="3" response="000000" foes="000000" cont="0"/>
        <request index="4" response="000000" foes="000011" cont="0"/>
        <request index="5" response="000000" foes="000011" cont="0"/>
    </junction>
    <junction id="E" type="priority" x="200.00" y="100.00" incLanes="CE_0 CE_1" intLanes=":E_0_0 :E_0_1" shape="206.40,99.96 200.00,99.84 200.00,100.16 206.40,100.25">
        <request index="0" response="00" foes="00" cont="0"/>
        <request index="1" response="00" foes="00" cont="0"/>
    </junction>
    <junction id="J1" type="priority" x="99.49" y="108.37" incLanes="EC_0 EC_1" intLanes=":J1_0_0 :J1_0_1" shape="99.63,114.77 99.66,108.37 99.32,108.37 99.41,114.77">
        <request index="0" response="00" foes="00" cont="0"/>
        <request index="1" response="00" foes="00" cont="0"/>
    </junction>
    <junction id="S" type="priority" x="100.00" y="0.00" incLanes="CS_0 CS_1" intLanes=":S_0_0" shape="100.00,0.00 93.60,0.00 100.00,0.00">
        <request index="0" response="0" foes="0" cont="0"/>
    </junction>
    <junction id="W" type="priority" x="0.00" y="100.00" incLanes="CW_0 CW_1" intLanes=":W_0_0 :W_0_1" shape="-6.39,100.37 0.01,100.17 -0.01,99.83 -6.40,100.12">
        <request index="0" response="00" foes="00" cont="0"/>
        <request index="1" response="00" foes="00" cont="0"/>
    </junction>

    <connection from="CE" to="EC" fromLane="0" toLane="0" via=":E_0_0" dir="s" state="M"/>
    <connection from="CE" to="EC" fromLane="1" toLane="1" via=":E_0_1" dir="s" state="M"/>
    <connection from="CS" to="SC" fromLane="1" toLane="1" via=":S_0_0" dir="t" state="M"/>
    <connection from="CW" to="WC" fromLane="0" toLane="0" via=":W_0_0" dir="s" state="M"/>
    <connection from="CW" to="WC" fromLane="1" toLane="1" via=":W_0_1" dir="s" state="M"/>
    <connection from="EC" to="CW" fromLane="0" toLane="0" via=":J1_0_0" dir="s" state="M"/>
    <connection from="EC" to="CW" fromLane="1" toLane="1" via=":J1_0_1" dir="s" state="M"/>
    <connection from="SC" to="CE" fromLane="0" toLane="0" via=":C_0_0" dir="r" state="m"/>
    <connection from="SC" to="CE" fromLane="1" toLane="1" via=":C_0_1" dir="r" state="m"/>
    <connection from="WC" to="CS" fromLane="0" toLane="0" via=":C_2_0" dir="r" state="M"/>
    <connection from="WC" to="CS" fromLane="0" toLane="1" via=":C_2_1" dir="r" state="M"/>
    <connection from="WC" to="CE" fromLane="0" toLane="0" via=":C_4_0" dir="s" state="M"/>
    <connection from="WC" to="CE" fromLane="1" toLane="1" via=":C_4_1" dir="s" state="M"/>

    <connection from=":C_0" to="CE" fromLane="0" toLane="0" dir="r" state="M"/>
    <connection from=":C_0" to="CE" fromLane="1" toLane="1" dir="r" state="M"/>
    <connection from=":C_2" to="CS" fromLane="0" toLane="0" dir="r" state="M"/>
    <connection from=":C_2" to="CS" fromLane="1" toLane="1" dir="r" state="M"/>
    <connection from=":C_4" to="CE" fromLane="0" toLane="0" dir="s" state="M"/>
    <connection from=":C_4" to="CE" fromLane="1" toLane="1" dir="s" state="M"/>
    <connection from=":E_0" to="EC" fromLane="0" toLane="0" dir="s" state="M"/>
    <connection from=":E_0" to="EC" fromLane="1" toLane="1" dir="s" state="M"/>
    <connection from=":J1_0" to="CW" fromLane="0" toLane="0" dir="s" state="M"/>
    <connection from=":J1_0" to="CW" fromLane="1" toLane="1" dir="s" state="M"/>
    <connection from=":S_0" to="SC" fromLane="0" toLane="1" dir="t" state="M"/>
    <connection from=":W_0" to="WC" fromLane="0" toLane="0" dir="s" state="M"/>
    <connection from=":W_0" to="WC" fromLane="1" toLane="1" dir="s" state="M"/>

</net>
