<?xml version="1.0" encoding="UTF-8"?>

<!-- generated on 2022-02-14 14:16:21 by Eclipse SUMO netconvert Version v1_12_0+0543-4bedf2f
This data file and the accompanying materials
are made available under the terms of the Eclipse Public License v2.0
which accompanies this distribution, and is available at
http://www.eclipse.org/legal/epl-v20.html
This file may also be made available under the following Secondary
Licenses when the conditions for such availability set forth in the Eclipse
Public License 2.0 are satisfied: GNU General Public License, version 2
or later which is available at
https://www.gnu.org/licenses/old-licenses/gpl-2.0-standalone.html
SPDX-License-Identifier: EPL-2.0 OR GPL-2.0-or-later
<configuration xmlns:xsi="http://www.w3.org/2001/XMLSchema-instance" xsi:noNamespaceSchemaLocation="http://sumo.dlr.de/xsd/netconvertConfiguration.xsd">

    <input>
        <sumo-net-file value="input_net.net.xml"/>
        <node-files value="input_plain.nod.xml"/>
    </input>

    <output>
        <write-license value="true"/>
        <output-file value="net.net.xml"/>
    </output>

    <processing>
        <geometry.min-radius.fix.railways value="false"/>
        <geometry.max-grade.fix value="false"/>
        <offset.disable-normalization value="true"/>
        <lefthand value="false"/>
    </processing>

    <junctions>
        <no-turnarounds value="true"/>
        <junctions.corner-detail value="5"/>
        <junctions.limit-turn-speed value="5.5"/>
        <rectangular-lane-cut value="false"/>
    </junctions>

    <pedestrian>
        <walkingareas value="false"/>
    </pedestrian>

    <report>
        <xml-validation value="never"/>
        <aggregate-warnings value="5"/>
    </report>

</configuration>
-->

<net version="1.16" junctionCornerDetail="5" limitTurnSpeed="5.50" xmlns:xsi="http://www.w3.org/2001/XMLSchema-instance" xsi:noNamespaceSchemaLocation="http://sumo.dlr.de/xsd/net_file.xsd">

    <location netOffset="0.00,0.00" convBoundary="0.00,0.00,200.00,200.00" origBoundary="0.00,0.00,200.00,200.00" projParameter="!"/>

    <edge id=":C_0" function="internal">
        <lane id=":C_0_0" index="0" speed="4.82" length="9.86" shape="4.60,111.39 9.79,103.00"/>
    </edge>
    <edge id=":C_1" function="internal">
        <lane id=":C_1_0" index="0" speed="11.93" length="32.81" shape="4.60,111.39 0.69,105.33 0.35,98.56 3.57,91.07 10.36,82.85"/>
        <lane id=":C_1_1" index="1" speed="11.31" length="29.41" shape="8.51,110.77 4.73,105.13 4.15,98.97 6.78,92.30 12.62,85.11"/>
    </edge>
    <edge id=":C_3" function="internal">
        <lane id=":C_3_0" index="0" speed="7.34" length="4.17" shape="8.51,110.77 7.80,107.20 8.09,106.75"/>
    </edge>
    <edge id=":C_4" function="internal">
        <lane id=":C_4_0" index="0" speed="3.93" length="1.78" shape="8.51,110.77 9.25,109.15"/>
    </edge>
    <edge id=":C_20" function="internal">
        <lane id=":C_20_0" index="0" speed="7.34" length="14.65" shape="8.09,106.75 10.46,103.13 14.87,99.79 19.45,98.40"/>
    </edge>
    <edge id=":C_21" function="internal">
        <lane id=":C_21_0" index="0" speed="3.93" length="4.00" shape="9.25,109.15 10.15,108.51 11.21,108.84 12.42,110.15"/>
    </edge>
    <edge id=":C_5" function="internal">
        <lane id=":C_5_0" index="0" speed="5.31" length="9.05" shape="19.45,104.80 16.31,105.10 14.74,105.98 14.74,107.46 16.33,109.54"/>
    </edge>
    <edge id=":C_6" function="internal">
        <lane id=":C_6_0" index="0" speed="5.50" length="9.83" shape="19.45,104.80 9.79,103.00"/>
        <lane id=":C_6_1" index="1" speed="6.52" length="14.51" shape="19.45,101.60 12.81,101.78 8.47,102.31 6.43,103.20 6.70,104.44"/>
    </edge>
    <edge id=":C_8" function="internal">
        <lane id=":C_8_0" index="0" speed="8.14" length="23.57" shape="19.45,101.60 13.22,100.01 9.69,95.99 9.34,90.65 12.62,85.11"/>
    </edge>
    <edge id=":C_9" function="internal">
        <lane id=":C_9_0" index="0" speed="3.65" length="4.67" shape="19.45,101.60 18.25,100.80 17.85,100.00 18.25,99.20 19.45,98.40"/>
    </edge>
    <edge id=":C_10" function="internal">
        <lane id=":C_10_0" index="0" speed="5.47" length="9.74" shape="17.15,89.64 15.21,92.07 14.94,93.81 16.36,94.85 19.45,95.20"/>
    </edge>
    <edge id=":C_11" function="internal">
        <lane id=":C_11_0" index="0" speed="9.99" length="22.70" shape="17.15,89.64 13.21,94.77 11.76,99.79 12.80,104.72 16.33,109.54"/>
        <lane id=":C_11_1" index="1" speed="10.67" length="26.03" shape="14.89,87.38 10.00,93.53 7.96,99.38 8.76,104.92 12.42,110.15"/>
    </edge>
    <edge id=":C_13" function="internal">
        <lane id=":C_13_0" index="0" speed="9.49" length="20.37" shape="14.89,87.38 9.64,93.18 6.53,97.95 5.55,101.71 6.70,104.44"/>
    </edge>
    <edge id=":C_14" function="internal">
        <lane id=":C_14_0" index="0" speed="3.65" length="1.33" shape="14.89,87.38 13.58,87.64"/>
    </edge>
    <edge id=":C_22" function="internal">
        <lane id=":C_22_0" index="0" speed="3.65" length="3.34" shape="13.58,87.64 13.47,87.66 12.62,87.38 12.34,86.53 12.62,85.11"/>
    </edge>
    <edge id=":C_15" function="internal">
        <lane id=":C_15_0" index="0" speed="11.20" length="28.81" shape="0.53,107.32 -1.60,103.05 -0.67,97.54 3.32,90.81 10.36,82.85"/>
    </edge>
    <edge id=":C_16" function="internal">
        <lane id=":C_16_0" index="0" speed="9.03" length="29.38" shape="0.53,107.32 -1.99,101.70 2.00,97.95 9.99,95.85 19.45,95.20"/>
    </edge>
    <edge id=":C_17" function="internal">
        <lane id=":C_17_0" index="0" speed="4.80" length="9.78" shape="3.62,105.88 12.42,110.15"/>
    </edge>
    <edge id=":C_18" function="internal">
        <lane id=":C_18_0" index="0" speed="3.73" length="4.97" shape="3.62,105.88 3.85,104.36 4.44,103.62 5.39,103.64 6.70,104.44"/>
    </edge>
    <edge id=":C_19" function="internal">
        <lane id=":C_19_0" index="0" speed="7.92" length="22.23" shape="3.62,105.88 2.09,102.08 5.55,99.80 12.00,98.69 19.45,98.40"/>
    </edge>
    <edge id=":E_0" function="internal">
        <lane id=":E_0_0" index="0" speed="3.65" length="4.67" shape="200.00,98.40 201.20,99.20 201.60,100.00 201.20,100.80 200.00,101.60"/>
    </edge>
    <edge id=":N_0" function="internal">
        <lane id=":N_0_0" index="0" speed="3.65" length="4.67" shape="101.13,198.87 101.41,200.28 101.13,201.13 100.28,201.41 98.87,201.13"/>
    </edge>
    <edge id=":S_0" function="internal">
        <lane id=":S_0_0" index="0" speed="3.65" length="4.67" shape="98.87,-1.13 100.28,-1.41 101.13,-1.13 101.41,-0.28 101.13,1.13"/>
    </edge>
    <edge id=":W_0" function="internal">
        <lane id=":W_0_0" index="0" speed="3.73" length="4.97" shape="6.84,104.58 6.61,106.10 6.02,106.84 5.07,106.82 3.76,106.02"/>
    </edge>

    <edge id="CE" from="C" to="E" priority="2">
        <lane id="CE_0" index="0" speed="13.89" length="180.55" shape="19.45,95.20 200.00,95.20"/>
        <lane id="CE_1" index="1" speed="13.89" length="180.55" shape="19.45,98.40 200.00,98.40"/>
    </edge>
    <edge id="CN" from="C" to="N" priority="2">
        <lane id="CN_0" index="0" speed="13.89" length="124.30" shape="16.33,109.54 103.39,196.61"/>
        <lane id="CN_1" index="1" speed="13.89" length="124.30" shape="12.42,110.15 101.13,198.87"/>
    </edge>
    <edge id="CS" from="C" to="S" priority="2">
        <lane id="CS_0" index="0" speed="13.89" length="121.97" shape="10.36,82.85 96.61,-3.39"/>
        <lane id="CS_1" index="1" speed="13.89" length="121.97" shape="12.62,85.11 98.87,-1.13"/>
    </edge>
    <edge id="CW" from="C" to="W" priority="2" shape="0.00,100.00 0.10,100.10">
        <lane id="CW_0" index="0" speed="13.89" length="0.20" shape="9.79,103.00 9.93,103.14"/>
        <lane id="CW_1" index="1" speed="13.89" length="0.20" shape="6.70,104.44 6.84,104.58"/>
    </edge>
    <edge id="EC" from="E" to="C" priority="2">
        <lane id="EC_0" index="0" speed="13.89" length="180.55" shape="200.00,104.80 19.45,104.80"/>
        <lane id="EC_1" index="1" speed="13.89" length="180.55" shape="200.00,101.60 19.45,101.60"/>
    </edge>
    <edge id="NC" from="N" to="C" priority="2">
        <lane id="NC_0" index="0" speed="13.89" length="128.95" shape="96.61,203.39 4.60,111.39"/>
        <lane id="NC_1" index="1" speed="13.89" length="128.95" shape="98.87,201.13 8.51,110.77"/>
    </edge>
    <edge id="SC" from="S" to="C" priority="2">
        <lane id="SC_0" index="0" speed="13.89" length="121.97" shape="103.39,3.39 17.15,89.64"/>
        <lane id="SC_1" index="1" speed="13.89" length="121.97" shape="101.13,1.13 14.89,87.38"/>
    </edge>
    <edge id="WC" from="W" to="C" priority="2" shape="0.10,100.10 0.00,100.00">
        <lane id="WC_0" index="0" speed="13.89" length="0.20" shape="0.67,107.46 0.53,107.32"/>
        <lane id="WC_1" index="1" speed="13.89" length="0.20" shape="3.76,106.02 3.62,105.88"/>
    </edge>

    <junction id="C" type="priority" x="0.00" y="100.00" incLanes="NC_0 NC_1 EC_0 EC_1 SC_0 SC_1 WC_0 WC_1" intLanes=":C_0_0 :C_1_0 :C_1_1 :C_20_0 :C_21_0 :C_5_0 :C_6_0 :C_6_1 :C_8_0 :C_9_0 :C_10_0 :C_11_0 :C_11_1 :C_13_0 :C_22_0 :C_15_0 :C_16_0 :C_17_0 :C_18_0 :C_19_0" shape="2.65,111.70 18.28,109.23 17.15,107.66 17.16,107.11 17.54,106.71 18.31,106.48 19.45,106.40 19.45,93.60 17.54,93.29 17.16,92.89 17.15,92.34 17.53,91.64 18.28,90.77 9.23,81.72">
        <request index="0"  response="00100000000000000000" foes="00100010000011000000" cont="0"/>
        <request index="1"  response="00000000000000000000" foes="10111110000111000000" cont="0"/>
        <request index="2"  response="00000000000000000000" foes="10111110000111000000" cont="0"/>
        <request index="3"  response="00000001100000000000" foes="10110001101111000000" cont="1"/>
        <request index="4"  response="00100001100000000000" foes="00100001100000000000" cont="1"/>
        <request index="5"  response="00000001100000000000" foes="00100001100000000000" cont="0"/>
        <request index="6"  response="00000011100000001111" foes="01100011100000001111" cont="0"/>
        <request index="7"  response="00000011100000001111" foes="01100011100000001111" cont="0"/>
        <request index="8"  response="10010011100000001110" foes="10010111100000001110" cont="0"/>
        <request index="9"  response="10010000000000001000" foes="10010000000000001000" cont="0"/>
        <request index="10" response="00000000000000000000" foes="10010000000000000000" cont="0"/>
        <request index="11" response="00000000000000000000" foes="10110000000111111000" cont="0"/>
        <request index="12" response="00000000000000000000" foes="10110000000111111000" cont="0"/>
        <request index="13" response="00000000000000000111" foes="11110000000111000111" cont="0"/>
        <request index="14" response="00000000000100000110" foes="00000000000100000110" cont="1"/>
        <request index="15" response="00100000000000000110" foes="00100000000000000110" cont="0"/>
        <request index="16" response="00100011110000001110" foes="00100011111100001110" cont="0"/>
        <request index="17" response="00000011100011101110" foes="00000011100011111111" cont="0"/>
        <request index="18" response="00000010000011000000" foes="00000010000011000000" cont="0"/>
        <request index="19" response="00000011110000001110" foes="00000011111100001110" cont="0"/>
    </junction>
    <junction id="E" type="priority" x="200.00" y="100.00" incLanes="CE_0 CE_1" intLanes=":E_0_0" shape="200.00,100.00 200.00,93.60 200.00,100.00">
        <request index="0" response="0" foes="0" cont="0"/>
    </junction>
    <junction id="N" type="priority" x="100.00" y="200.00" incLanes="CN_0 CN_1" intLanes=":N_0_0" shape="100.00,200.00 104.53,195.47 100.00,200.00">
        <request index="0" response="0" foes="0" cont="0"/>
    </junction>
    <junction id="S" type="priority" x="100.00" y="0.00" incLanes="CS_0 CS_1" intLanes=":S_0_0" shape="100.00,0.00 95.47,-4.53 100.00,0.00">
        <request index="0" response="0" foes="0" cont="0"/>
    </junction>
    <junction id="W" type="priority" x="0.00" y="100.00" incLanes="CW_0 CW_1" intLanes=":W_0_0" shape="0.00,100.00 4.53,95.47 0.00,100.00">
        <request index="0" response="0" foes="0" cont="0"/>
    </junction>

    <junction id=":C_20_0" type="internal" x="8.09" y="106.75" incLanes=":C_3_0 SC_0 SC_1" intLanes=":C_6_0 :C_6_1 :C_8_0 :C_9_0 :C_10_0 :C_11_0 :C_11_1 :C_16_0 :C_17_0 :C_19_0"/>
    <junction id=":C_21_0" type="internal" x="9.25" y="109.15" incLanes=":C_4_0 EC_0 SC_0 SC_1 WC_1" intLanes=":C_5_0 :C_11_0 :C_11_1 :C_17_0"/>
    <junction id=":C_22_0" type="internal" x="13.58" y="87.64" incLanes=":C_14_0 EC_1 NC_0 NC_1 WC_0" intLanes=":C_1_0 :C_1_1 :C_8_0 :C_15_0"/>

    <connection from="CE" to="EC" fromLane="1" toLane="1" via=":E_0_0" dir="t" state="M"/>
    <connection from="CN" to="NC" fromLane="1" toLane="1" via=":N_0_0" dir="t" state="M"/>
    <connection from="CS" to="SC" fromLane="1" toLane="1" via=":S_0_0" dir="t" state="M"/>
    <connection from="CW" to="WC" fromLane="1" toLane="1" via=":W_0_0" dir="t" state="M"/>
    <connection from="EC" to="CN" fromLane="0" toLane="0" via=":C_5_0" dir="r" state="m"/>
    <connection from="EC" to="CW" fromLane="0" toLane="0" via=":C_6_0" dir="r" state="m"/>
    <connection from="EC" to="CW" fromLane="1" toLane="1" via=":C_6_1" dir="r" state="m"/>
    <connection from="EC" to="CS" fromLane="1" toLane="1" via=":C_8_0" dir="l" state="m"/>
    <connection from="EC" to="CE" fromLane="1" toLane="1" via=":C_9_0" dir="t" state="m"/>
    <connection from="NC" to="CW" fromLane="0" toLane="0" via=":C_0_0" dir="l" state="m"/>
    <connection from="NC" to="CS" fromLane="0" toLane="0" via=":C_1_0" dir="L" state="M"/>
    <connection from="NC" to="CS" fromLane="1" toLane="1" via=":C_1_1" dir="L" state="M"/>
    <connection from="NC" to="CE" fromLane="1" toLane="1" via=":C_3_0" dir="l" state="m"/>
    <connection from="NC" to="CN" fromLane="1" toLane="1" via=":C_4_0" dir="t" state="m"/>
    <connection from="SC" to="CE" fromLane="0" toLane="0" via=":C_10_0" dir="r" state="M"/>
    <connection from="SC" to="CN" fromLane="0" toLane="0" via=":C_11_0" dir="R" state="M"/>
    <connection from="SC" to="CN" fromLane="1" toLane="1" via=":C_11_1" dir="R" state="M"/>
    <connection from="SC" to="CW" fromLane="1" toLane="1" via=":C_13_0" dir="r" state="m"/>
    <connection from="SC" to="CS" fromLane="1" toLane="1" via=":C_14_0" dir="t" state="m"/>
    <connection from="WC" to="CS" fromLane="0" toLane="0" via=":C_15_0" dir="l" state="m"/>
    <connection from="WC" to="CE" fromLane="0" toLane="0" via=":C_16_0" dir="l" state="m"/>
    <connection from="WC" to="CN" fromLane="1" toLane="1" via=":C_17_0" dir="l" state="m"/>
    <connection from="WC" to="CW" fromLane="1" toLane="1" via=":C_18_0" dir="t" state="m"/>
    <connection from="WC" to="CE" fromLane="1" toLane="1" via=":C_19_0" dir="l" state="m"/>

    <connection from=":C_0" to="CW" fromLane="0" toLane="0" dir="l" state="M"/>
    <connection from=":C_1" to="CS" fromLane="0" toLane="0" dir="L" state="M"/>
    <connection from=":C_1" to="CS" fromLane="1" toLane="1" dir="L" state="M"/>
    <connection from=":C_3" to="CE" fromLane="0" toLane="1" via=":C_20_0" dir="l" state="m"/>
    <connection from=":C_20" to="CE" fromLane="0" toLane="1" dir="l" state="M"/>
    <connection from=":C_4" to="CN" fromLane="0" toLane="1" via=":C_21_0" dir="t" state="m"/>
    <connection from=":C_21" to="CN" fromLane="0" toLane="1" dir="t" state="M"/>
    <connection from=":C_5" to="CN" fromLane="0" toLane="0" dir="r" state="M"/>
    <connection from=":C_6" to="CW" fromLane="0" toLane="0" dir="r" state="M"/>
    <connection from=":C_6" to="CW" fromLane="1" toLane="1" dir="r" state="M"/>
    <connection from=":C_8" to="CS" fromLane="0" toLane="1" dir="l" state="M"/>
    <connection from=":C_9" to="CE" fromLane="0" toLane="1" dir="t" state="M"/>
    <connection from=":C_10" to="CE" fromLane="0" toLane="0" dir="r" state="M"/>
    <connection from=":C_11" to="CN" fromLane="0" toLane="0" dir="R" state="M"/>
    <connection from=":C_11" to="CN" fromLane="1" toLane="1" dir="R" state="M"/>
    <connection from=":C_13" to="CW" fromLane="0" toLane="1" dir="r" state="M"/>
    <connection from=":C_14" to="CS" fromLane="0" toLane="1" via=":C_22_0" dir="t" state="m"/>
    <connection from=":C_22" to="CS" fromLane="0" toLane="1" dir="t" state="M"/>
    <connection from=":C_15" to="CS" fromLane="0" toLane="0" dir="l" state="M"/>
    <connection from=":C_16" to="CE" fromLane="0" toLane="0" dir="l" state="M"/>
    <connection from=":C_17" to="CN" fromLane="0" toLane="1" dir="l" state="M"/>
    <connection from=":C_18" to="CW" fromLane="0" toLane="1" dir="t" state="M"/>
    <connection from=":C_19" to="CE" fromLane="0" toLane="1" dir="l" state="M"/>
    <connection from=":E_0" to="EC" fromLane="0" toLane="1" dir="t" state="M"/>
    <connection from=":N_0" to="NC" fromLane="0" toLane="1" dir="t" state="M"/>
    <connection from=":S_0" to="SC" fromLane="0" toLane="1" dir="t" state="M"/>
    <connection from=":W_0" to="WC" fromLane="0" toLane="1" dir="t" state="M"/>

</net>
