<additional>
    <e2Detector id="detect_0" lane="1si_1" pos="225" length="10.00" freq="300.00" file="NUL"/>
</additional>
