<?xml version="1.0"?>

<!-- generated on 01/12/11 13:07:02 by SUMO netconvert Version dev-SVN-r9534
<?xml version="1.0" encoding="iso-8859-1"?>

<configuration xmlns:xsi="http://www.w3.org/2001/XMLSchema-instance" xsi:noNamespaceSchemaLocation="http://sumo.sf.net/xsd/netconvertConfiguration.xsd">

    <input>
        <xml-node-files value="./dfrouter/messstrecke.nod.xml"/>
        <xml-edge-files value="./dfrouter/messstrecke.edg.xml"/>
        <xml-connection-files value="./dfrouter/messstrecke.con.xml"/>
    </input>

    <output>
        <output-file value="./dfrouter/input_messstrecke.net.xml"/>
    </output>

    <processing>
        <no-turnarounds value="true"/>
        <no-internal-links value="true"/>
    </processing>

    <report>
        <verbose value="true"/>
    </report>

</configuration>
-->

<net>

    <location netOffset="100.00,200.00" convBoundary="0.00,0.00,2125.42,400.00" origBoundary="-100.00,-200.00,2025.42,200.00" projParameter="!"/>

    <edge id="AltglienickerBreitN" from="AltglienickerBreit" to="ErnstRuskaAltglienicker" priority="-1">
        <lane id="AltglienickerBreitN_0" depart="1" maxSpeed="14.00" length="10.45" shape="1913.42,181.50 1913.42,191.95"/>
        <lane id="AltglienickerBreitN_1" depart="0" maxSpeed="14.00" length="10.45" shape="1910.12,181.50 1910.12,191.95"/>
    </edge>
    <edge id="AltglienickerBreitS" from="ErnstRuskaAltglienicker" to="AltglienickerBreit" priority="-1">
        <lane id="AltglienickerBreitS_0" depart="1" maxSpeed="14.00" length="10.45" shape="1906.82,191.95 1906.82,181.50"/>
    </edge>
    <edge id="AltglienickerN" from="AltglienickerEnd" to="AltglienickerBreit" priority="-1">
        <lane id="AltglienickerN_0" depart="1" maxSpeed="14.00" length="78.50" shape="1910.12,100.00 1910.12,178.50"/>
    </edge>
    <edge id="AltglienickerS" from="AltglienickerBreit" to="AltglienickerEnd" priority="-1">
        <lane id="AltglienickerS_0" depart="1" maxSpeed="14.00" length="78.50" shape="1906.82,178.50 1906.82,100.00"/>
    </edge>
    <edge id="AltglienickerSinkN" from="AltglienickerSinkEnd" to="AltglienickerEnd" priority="-1">
        <lane id="AltglienickerSinkN_0" depart="1" maxSpeed="14.00" length="100.00" shape="1910.12,0.00 1910.12,100.00"/>
    </edge>
    <edge id="AltglienickerSinkS" from="AltglienickerEnd" to="AltglienickerSinkEnd" priority="-1">
        <lane id="AltglienickerSinkS_0" depart="1" maxSpeed="14.00" length="100.00" shape="1906.82,100.00 1906.82,0.00"/>
    </edge>
    <edge id="EinsteinN" from="ErnstRuskaEinstein" to="EinsteinEnd" priority="-1">
        <lane id="EinsteinN_0" depart="1" maxSpeed="14.00" length="91.95" shape="296.56,208.05 296.56,300.00"/>
    </edge>
    <edge id="EinsteinS" from="EinsteinEnd" to="ErnstRuskaEinstein" priority="-1">
        <lane id="EinsteinS_0" depart="1" maxSpeed="14.00" length="91.95" shape="293.26,300.00 293.26,208.05"/>
    </edge>
    <edge id="EinsteinSinkN" from="EinsteinEnd" to="EinsteinSinkEnd" priority="-1">
        <lane id="EinsteinSinkN_0" depart="1" maxSpeed="14.00" length="100.00" shape="296.56,300.00 296.56,400.00"/>
    </edge>
    <edge id="EinsteinSinkS" from="EinsteinSinkEnd" to="EinsteinEnd" priority="-1">
        <lane id="EinsteinSinkS_0" depart="1" maxSpeed="14.00" length="100.00" shape="293.26,400.00 293.26,300.00"/>
    </edge>
    <edge id="ErnstRuska1O" from="ErnstRuskaEnd1" to="ErnstRuskaEinstein" priority="1">
        <lane id="ErnstRuska1O_0" depart="1" maxSpeed="19.00" length="190.17" shape="100.00,195.05 290.17,195.05"/>
        <lane id="ErnstRuska1O_1" depart="0" maxSpeed="19.00" length="190.17" shape="100.00,198.35 290.17,198.35"/>
    </edge>
    <edge id="ErnstRuska1W" from="ErnstRuskaEinstein" to="ErnstRuskaEnd1" priority="1">
        <lane id="ErnstRuska1W_0" depart="1" maxSpeed="19.00" length="190.17" shape="290.17,204.95 100.00,204.95"/>
        <lane id="ErnstRuska1W_1" depart="0" maxSpeed="19.00" length="190.17" shape="290.17,201.65 100.00,201.65"/>
    </edge>
    <edge id="ErnstRuska231O" from="ErnstRuskaHavestadtDiv1" to="ErnstRuskaHavestadt" priority="1">
        <lane id="ErnstRuska231O_0" depart="1" maxSpeed="19.00" length="20.45" shape="986.75,191.75 1007.20,191.75"/>
        <lane id="ErnstRuska231O_1" depart="0" maxSpeed="19.00" length="20.45" shape="986.75,195.05 1007.20,195.05"/>
        <lane id="ErnstRuska231O_2" depart="0" maxSpeed="19.00" length="20.45" shape="986.75,198.35 1007.20,198.35"/>
    </edge>
    <edge id="ErnstRuska231W" from="ErnstRuskaHavestadt" to="ErnstRuskaHavestadtDiv1" priority="1">
        <lane id="ErnstRuska231W_0" depart="1" maxSpeed="19.00" length="20.45" shape="1007.20,204.95 986.75,204.95"/>
        <lane id="ErnstRuska231W_1" depart="0" maxSpeed="19.00" length="20.45" shape="1007.20,201.65 986.75,201.65"/>
    </edge>
    <edge id="ErnstRuska232O" from="ErnstRuskaHavestadt" to="ErnstRuskaHavestadtDiv2" priority="1">
        <lane id="ErnstRuska232O_0" depart="1" maxSpeed="19.00" length="20.45" shape="1023.30,191.75 1043.75,191.75"/>
        <lane id="ErnstRuska232O_1" depart="0" maxSpeed="19.00" length="20.45" shape="1023.30,195.05 1043.75,195.05"/>
        <lane id="ErnstRuska232O_2" depart="0" maxSpeed="19.00" length="20.45" shape="1023.30,198.35 1043.75,198.35"/>
    </edge>
    <edge id="ErnstRuska232W" from="ErnstRuskaHavestadtDiv2" to="ErnstRuskaHavestadt" priority="1">
        <lane id="ErnstRuska232W_0" depart="1" maxSpeed="19.00" length="20.45" shape="1043.75,204.95 1023.30,204.95"/>
        <lane id="ErnstRuska232W_1" depart="0" maxSpeed="19.00" length="20.45" shape="1043.75,201.65 1023.30,201.65"/>
    </edge>
    <edge id="ErnstRuska2O" from="ErnstRuskaEinstein" to="ErnstRuskaHavestadtDiv1" priority="1">
        <lane id="ErnstRuska2O_0" depart="1" maxSpeed="19.00" length="684.08" shape="299.67,195.05 983.75,195.05"/>
        <lane id="ErnstRuska2O_1" depart="0" maxSpeed="19.00" length="684.08" shape="299.67,198.35 983.75,198.35"/>
    </edge>
    <edge id="ErnstRuska2W" from="ErnstRuskaHavestadtDiv1" to="ErnstRuskaEinstein" priority="1">
        <lane id="ErnstRuska2W_0" depart="1" maxSpeed="19.00" length="684.08" shape="983.75,204.95 299.67,204.95"/>
        <lane id="ErnstRuska2W_1" depart="0" maxSpeed="19.00" length="684.08" shape="983.75,201.65 299.67,201.65"/>
    </edge>
    <edge id="ErnstRuska3O" from="ErnstRuskaHavestadtDiv2" to="ErnstRuskaVolmer" priority="1">
        <lane id="ErnstRuska3O_0" depart="1" maxSpeed="19.00" length="533.25" shape="1046.75,195.05 1580.00,195.05"/>
        <lane id="ErnstRuska3O_1" depart="0" maxSpeed="19.00" length="533.25" shape="1046.75,198.35 1580.00,198.35"/>
    </edge>
    <edge id="ErnstRuska3W" from="ErnstRuskaVolmer" to="ErnstRuskaHavestadtDiv2" priority="1">
        <lane id="ErnstRuska3W_0" depart="1" maxSpeed="19.00" length="533.25" shape="1580.00,204.95 1046.75,204.95"/>
        <lane id="ErnstRuska3W_1" depart="0" maxSpeed="19.00" length="533.25" shape="1580.00,201.65 1046.75,201.65"/>
    </edge>
    <edge id="ErnstRuska4O" from="ErnstRuskaVolmer" to="ErnstRuskaAltglienicker" priority="1">
        <lane id="ErnstRuska4O_0" depart="1" maxSpeed="19.00" length="314.22" shape="1589.50,195.05 1903.72,195.05"/>
        <lane id="ErnstRuska4O_1" depart="0" maxSpeed="19.00" length="314.22" shape="1589.50,198.35 1903.72,198.35"/>
    </edge>
    <edge id="ErnstRuska4W" from="ErnstRuskaAltglienicker" to="ErnstRuskaVolmer" priority="1">
        <lane id="ErnstRuska4W_0" depart="1" maxSpeed="19.00" length="314.22" shape="1903.72,204.95 1589.50,204.95"/>
        <lane id="ErnstRuska4W_1" depart="0" maxSpeed="19.00" length="314.22" shape="1903.72,201.65 1589.50,201.65"/>
    </edge>
    <edge id="ErnstRuska5O" from="ErnstRuskaAltglienicker" to="ErnstRuskaEnd2" priority="1">
        <lane id="ErnstRuska5O_0" depart="1" maxSpeed="19.00" length="107.40" shape="1916.52,195.05 2023.92,195.05"/>
        <lane id="ErnstRuska5O_1" depart="0" maxSpeed="19.00" length="107.40" shape="1916.52,198.35 2023.92,198.35"/>
    </edge>
    <edge id="ErnstRuska5W" from="ErnstRuskaEnd2" to="ErnstRuskaAltglienicker" priority="1">
        <lane id="ErnstRuska5W_0" depart="1" maxSpeed="19.00" length="107.40" shape="2023.92,208.25 1916.52,208.25"/>
        <lane id="ErnstRuska5W_1" depart="0" maxSpeed="19.00" length="107.40" shape="2023.92,204.95 1916.52,204.95"/>
        <lane id="ErnstRuska5W_2" depart="0" maxSpeed="19.00" length="107.40" shape="2023.92,201.65 1916.52,201.65"/>
    </edge>
    <edge id="ErnstRuskaSink1O" from="ErnstRuskaSink1" to="ErnstRuskaEnd1" priority="1">
        <lane id="ErnstRuskaSink1O_0" depart="1" maxSpeed="19.00" length="100.00" shape="0.00,195.05 100.00,195.05"/>
        <lane id="ErnstRuskaSink1O_1" depart="0" maxSpeed="19.00" length="100.00" shape="0.00,198.35 100.00,198.35"/>
    </edge>
    <edge id="ErnstRuskaSink1W" from="ErnstRuskaEnd1" to="ErnstRuskaSink1" priority="1">
        <lane id="ErnstRuskaSink1W_0" depart="1" maxSpeed="19.00" length="100.00" shape="100.00,204.95 0.00,204.95"/>
        <lane id="ErnstRuskaSink1W_1" depart="0" maxSpeed="19.00" length="100.00" shape="100.00,201.65 0.00,201.65"/>
    </edge>
    <edge id="ErnstRuskaSink5O" from="ErnstRuskaEnd2" to="ErnstRuskaSink2" priority="1">
        <lane id="ErnstRuskaSink5O_0" depart="1" maxSpeed="19.00" length="98.50" shape="2026.92,195.05 2125.42,195.05"/>
        <lane id="ErnstRuskaSink5O_1" depart="0" maxSpeed="19.00" length="98.50" shape="2026.92,198.35 2125.42,198.35"/>
    </edge>
    <edge id="ErnstRuskaSink5W" from="ErnstRuskaSink2" to="ErnstRuskaEnd2" priority="1">
        <lane id="ErnstRuskaSink5W_0" depart="1" maxSpeed="19.00" length="98.50" shape="2125.42,204.95 2026.92,204.95"/>
        <lane id="ErnstRuskaSink5W_1" depart="0" maxSpeed="19.00" length="98.50" shape="2125.42,201.65 2026.92,201.65"/>
    </edge>
    <edge id="HavestadtN" from="ErnstRuskaHavestadt" to="HavestadtEnd" priority="-1">
        <lane id="HavestadtN_0" depart="1" maxSpeed="14.00" length="91.95" shape="1020.20,208.05 1020.20,300.00"/>
        <lane id="HavestadtN_1" depart="0" maxSpeed="14.00" length="91.95" shape="1016.90,208.05 1016.90,300.00"/>
    </edge>
    <edge id="HavestadtS" from="HavestadtEnd" to="ErnstRuskaHavestadt" priority="-1">
        <lane id="HavestadtS_0" depart="1" maxSpeed="14.00" length="91.95" shape="1010.30,300.00 1010.30,208.05"/>
        <lane id="HavestadtS_1" depart="0" maxSpeed="14.00" length="91.95" shape="1013.60,300.00 1013.60,208.05"/>
    </edge>
    <edge id="HavestadtSinkN" from="HavestadtEnd" to="HavestadtSinkEnd" priority="-1">
        <lane id="HavestadtSinkN_0" depart="1" maxSpeed="14.00" length="100.00" shape="1020.20,300.00 1020.20,400.00"/>
        <lane id="HavestadtSinkN_1" depart="0" maxSpeed="14.00" length="100.00" shape="1016.90,300.00 1016.90,400.00"/>
    </edge>
    <edge id="HavestadtSinkS" from="HavestadtSinkEnd" to="HavestadtEnd" priority="-1">
        <lane id="HavestadtSinkS_0" depart="1" maxSpeed="14.00" length="100.00" shape="1010.30,400.00 1010.30,300.00"/>
        <lane id="HavestadtSinkS_1" depart="0" maxSpeed="14.00" length="100.00" shape="1013.60,400.00 1013.60,300.00"/>
    </edge>
    <edge id="VolmerN" from="ErnstRuskaVolmer" to="VolmerEnd" priority="-1">
        <lane id="VolmerN_0" depart="1" maxSpeed="14.00" length="91.95" shape="1586.40,208.05 1586.40,300.00"/>
    </edge>
    <edge id="VolmerS" from="VolmerEnd" to="ErnstRuskaVolmer" priority="-1">
        <lane id="VolmerS_0" depart="1" maxSpeed="14.00" length="91.95" shape="1583.10,300.00 1583.10,208.05"/>
    </edge>
    <edge id="VolmerSinkN" from="VolmerEnd" to="VolmerSinkEnd" priority="-1">
        <lane id="VolmerSinkN_0" depart="1" maxSpeed="14.00" length="100.00" shape="1586.40,300.00 1586.40,400.00"/>
    </edge>
    <edge id="VolmerSinkS" from="VolmerSinkEnd" to="VolmerEnd" priority="-1">
        <lane id="VolmerSinkS_0" depart="1" maxSpeed="14.00" length="100.00" shape="1583.10,400.00 1583.10,300.00"/>
    </edge>

    <ROWLogic id="AltglienickerBreit" requestSize="3">
        <logicitem request="0" response="000" foes="000"/>
        <logicitem request="1" response="000" foes="000"/>
        <logicitem request="2" response="000" foes="000"/>
    </ROWLogic>
    <ROWLogic id="AltglienickerEnd" requestSize="2">
        <logicitem request="0" response="00" foes="00"/>
        <logicitem request="1" response="00" foes="00"/>
    </ROWLogic>
    <ROWLogic id="AltglienickerSinkEnd" requestSize="1">
        <logicitem request="0" response="1" foes="0"/>
    </ROWLogic>
    <ROWLogic id="EinsteinEnd" requestSize="2">
        <logicitem request="0" response="00" foes="00"/>
        <logicitem request="1" response="00" foes="00"/>
    </ROWLogic>
    <ROWLogic id="EinsteinSinkEnd" requestSize="1">
        <logicitem request="0" response="1" foes="0"/>
    </ROWLogic>
    <ROWLogic id="ErnstRuskaAltglienicker" requestSize="8">
        <logicitem request="0" response="00000000" foes="00010000"/>
        <logicitem request="1" response="00000000" foes="00010000"/>
        <logicitem request="2" response="00000000" foes="11110000"/>
        <logicitem request="3" response="00000000" foes="11000000"/>
        <logicitem request="4" response="00000111" foes="11000111"/>
        <logicitem request="5" response="00000100" foes="00000100"/>
        <logicitem request="6" response="00011100" foes="00011100"/>
        <logicitem request="7" response="00011100" foes="00011100"/>
    </ROWLogic>
    <ROWLogic id="ErnstRuskaEinstein" requestSize="8">
        <logicitem request="0" response="00011000" foes="00011000"/>
        <logicitem request="1" response="11111000" foes="11111000"/>
        <logicitem request="2" response="00000000" foes="10000000"/>
        <logicitem request="3" response="00000000" foes="10000011"/>
        <logicitem request="4" response="00000000" foes="10000011"/>
        <logicitem request="5" response="00000000" foes="00000010"/>
        <logicitem request="6" response="00000000" foes="00000010"/>
        <logicitem request="7" response="00011100" foes="00011110"/>
    </ROWLogic>
    <ROWLogic id="ErnstRuskaEnd1" requestSize="4">
        <logicitem request="0" response="0000" foes="0000"/>
        <logicitem request="1" response="0000" foes="0000"/>
        <logicitem request="2" response="0000" foes="0000"/>
        <logicitem request="3" response="0000" foes="0000"/>
    </ROWLogic>
    <ROWLogic id="ErnstRuskaEnd2" requestSize="5">
        <logicitem request="0" response="00000" foes="00000"/>
        <logicitem request="1" response="00000" foes="00000"/>
        <logicitem request="2" response="00000" foes="00000"/>
        <logicitem request="3" response="00000" foes="00000"/>
        <logicitem request="4" response="00000" foes="00000"/>
    </ROWLogic>
    <ROWLogic id="ErnstRuskaHavestadt" requestSize="9">
        <logicitem request="0" response="000000000" foes="000110000"/>
        <logicitem request="1" response="111000000" foes="111110000"/>
        <logicitem request="2" response="111000000" foes="111110000"/>
        <logicitem request="3" response="100000000" foes="100000000"/>
        <logicitem request="4" response="100000111" foes="100000111"/>
        <logicitem request="5" response="100000111" foes="100000111"/>
        <logicitem request="6" response="000000000" foes="000000110"/>
        <logicitem request="7" response="000000000" foes="000000110"/>
        <logicitem request="8" response="000000000" foes="000111110"/>
    </ROWLogic>
    <ROWLogic id="ErnstRuskaHavestadtDiv1" requestSize="5">
        <logicitem request="0" response="00000" foes="00000"/>
        <logicitem request="1" response="00000" foes="00000"/>
        <logicitem request="2" response="00000" foes="00000"/>
        <logicitem request="3" response="00000" foes="00000"/>
        <logicitem request="4" response="00000" foes="00000"/>
    </ROWLogic>
    <ROWLogic id="ErnstRuskaHavestadtDiv2" requestSize="5">
        <logicitem request="0" response="00000" foes="00000"/>
        <logicitem request="1" response="00000" foes="00000"/>
        <logicitem request="2" response="00000" foes="00000"/>
        <logicitem request="3" response="00000" foes="00000"/>
        <logicitem request="4" response="11111" foes="00000"/>
    </ROWLogic>
    <ROWLogic id="ErnstRuskaSink1" requestSize="2">
        <logicitem request="0" response="11" foes="00"/>
        <logicitem request="1" response="11" foes="00"/>
    </ROWLogic>
    <ROWLogic id="ErnstRuskaSink2" requestSize="2">
        <logicitem request="0" response="11" foes="00"/>
        <logicitem request="1" response="11" foes="00"/>
    </ROWLogic>
    <ROWLogic id="ErnstRuskaVolmer" requestSize="8">
        <logicitem request="0" response="00011000" foes="00011000"/>
        <logicitem request="1" response="11111000" foes="11111000"/>
        <logicitem request="2" response="00000000" foes="10000000"/>
        <logicitem request="3" response="00000000" foes="10000011"/>
        <logicitem request="4" response="00000000" foes="10000011"/>
        <logicitem request="5" response="00000000" foes="00000010"/>
        <logicitem request="6" response="00000000" foes="00000010"/>
        <logicitem request="7" response="00011100" foes="00011110"/>
    </ROWLogic>
    <ROWLogic id="HavestadtEnd" requestSize="4">
        <logicitem request="0" response="0000" foes="0000"/>
        <logicitem request="1" response="0000" foes="0000"/>
        <logicitem request="2" response="0000" foes="0000"/>
        <logicitem request="3" response="0000" foes="0000"/>
    </ROWLogic>
    <ROWLogic id="HavestadtSinkEnd" requestSize="2">
        <logicitem request="0" response="11" foes="00"/>
        <logicitem request="1" response="11" foes="00"/>
    </ROWLogic>
    <ROWLogic id="VolmerEnd" requestSize="2">
        <logicitem request="0" response="00" foes="00"/>
        <logicitem request="1" response="00" foes="00"/>
    </ROWLogic>
    <ROWLogic id="VolmerSinkEnd" requestSize="1">
        <logicitem request="0" response="1" foes="0"/>
    </ROWLogic>

    <tlLogic id="ErnstRuskaAltglienicker" type="static" programID="0" offset="0">
        <phase duration="31" state="GGGrrggg"/>
        <phase duration="6" state="yyyrrggg"/>
        <phase duration="6" state="rrrrrGGG"/>
        <phase duration="6" state="rrrrryyy"/>
        <phase duration="31" state="rrrGGGrr"/>
        <phase duration="6" state="rrryyyrr"/>
    </tlLogic>

    <junction id="AltglienickerBreit" type="priority" x="1908.47" y="180.00" incLanes="AltglienickerBreitS_0 AltglienickerN_0" intLanes="" shape="1905.22,181.50 1915.02,181.50 1911.72,178.50 1905.22,178.50"/>
    <junction id="AltglienickerEnd" type="priority" x="1908.47" y="100.00" incLanes="AltglienickerS_0 AltglienickerSinkN_0" intLanes="" shape="1905.22,100.00 1911.72,100.00 1905.22,100.00"/>
    <junction id="AltglienickerSinkEnd" type="priority" x="1908.47" y="0.00" incLanes="AltglienickerSinkS_0" intLanes="" shape="1908.52,0.00 1911.72,0.00 1905.22,-0.00 1908.42,-0.00"/>
    <junction id="EinsteinEnd" type="priority" x="294.91" y="300.00" incLanes="EinsteinSinkS_0 EinsteinN_0" intLanes="" shape="291.66,300.00 298.16,300.00 291.66,300.00"/>
    <junction id="EinsteinSinkEnd" type="priority" x="294.91" y="400.00" incLanes="EinsteinSinkN_0" intLanes="" shape="294.86,400.00 291.66,400.00 298.16,400.00 294.96,400.00"/>
    <junction id="ErnstRuskaAltglienicker" type="priority" x="1908.47" y="200.00" incLanes="ErnstRuska5W_0 ErnstRuska5W_1 ErnstRuska5W_2 AltglienickerBreitN_0 AltglienickerBreitN_1 ErnstRuska4O_0 ErnstRuska4O_1" intLanes="" shape="1916.52,209.85 1916.52,193.45 1915.02,191.95 1905.22,191.95 1903.72,193.45 1903.72,206.55"/>
    <junction id="ErnstRuskaEinstein" type="priority" x="294.91" y="200.00" incLanes="EinsteinS_0 ErnstRuska2W_0 ErnstRuska2W_1 ErnstRuska1O_0 ErnstRuska1O_1" intLanes="" shape="291.66,208.05 298.16,208.05 299.67,206.55 299.67,193.45 290.17,193.45 290.17,206.55"/>
    <junction id="ErnstRuskaEnd1" type="priority" x="100.00" y="200.00" incLanes="ErnstRuska1W_0 ErnstRuska1W_1 ErnstRuskaSink1O_0 ErnstRuskaSink1O_1" intLanes="" shape="100.00,206.55 100.00,193.45 100.00,206.55"/>
    <junction id="ErnstRuskaEnd2" type="priority" x="2025.42" y="200.00" incLanes="ErnstRuskaSink5W_0 ErnstRuskaSink5W_1 ErnstRuska5O_0 ErnstRuska5O_1" intLanes="" shape="2026.92,206.55 2026.92,193.45 2023.92,193.45 2023.92,209.85"/>
    <junction id="ErnstRuskaHavestadt" type="priority" x="1015.25" y="200.00" incLanes="HavestadtS_0 HavestadtS_1 ErnstRuska232W_0 ErnstRuska232W_1 ErnstRuska231O_0 ErnstRuska231O_1 ErnstRuska231O_2" intLanes="" shape="1008.70,208.05 1021.80,208.05 1023.30,206.55 1023.30,190.15 1007.20,190.15 1007.20,206.55"/>
    <junction id="ErnstRuskaHavestadtDiv1" type="priority" x="985.25" y="200.00" incLanes="ErnstRuska231W_0 ErnstRuska231W_1 ErnstRuska2O_0 ErnstRuska2O_1" intLanes="" shape="986.75,206.55 986.75,190.15 983.75,193.45 983.75,206.55"/>
    <junction id="ErnstRuskaHavestadtDiv2" type="priority" x="1045.25" y="200.00" incLanes="ErnstRuska3W_0 ErnstRuska3W_1 ErnstRuska232O_0 ErnstRuska232O_1 ErnstRuska232O_2" intLanes="" shape="1046.75,206.55 1046.75,193.45 1043.75,190.15 1043.75,206.55"/>
    <junction id="ErnstRuskaSink1" type="priority" x="0.00" y="200.00" incLanes="ErnstRuskaSink1W_0 ErnstRuskaSink1W_1" intLanes="" shape="0.00,199.95 0.00,193.45 -0.00,206.55 -0.00,200.05"/>
    <junction id="ErnstRuskaSink2" type="priority" x="2125.42" y="200.00" incLanes="ErnstRuskaSink5O_0 ErnstRuskaSink5O_1" intLanes="" shape="2125.42,200.05 2125.42,206.55 2125.42,193.45 2125.42,199.95"/>
    <junction id="ErnstRuskaVolmer" type="priority" x="1584.75" y="200.00" incLanes="VolmerS_0 ErnstRuska4W_0 ErnstRuska4W_1 ErnstRuska3O_0 ErnstRuska3O_1" intLanes="" shape="1581.50,208.05 1588.00,208.05 1589.50,206.55 1589.50,193.45 1580.00,193.45 1580.00,206.55"/>
    <junction id="HavestadtEnd" type="priority" x="1015.25" y="300.00" incLanes="HavestadtSinkS_0 HavestadtSinkS_1 HavestadtN_0 HavestadtN_1" intLanes="" shape="1008.70,300.00 1021.80,300.00 1008.70,300.00"/>
    <junction id="HavestadtSinkEnd" type="priority" x="1015.25" y="400.00" incLanes="HavestadtSinkN_0 HavestadtSinkN_1" intLanes="" shape="1015.20,400.00 1008.70,400.00 1021.80,400.00 1015.30,400.00"/>
    <junction id="VolmerEnd" type="priority" x="1584.75" y="300.00" incLanes="VolmerSinkS_0 VolmerN_0" intLanes="" shape="1581.50,300.00 1588.00,300.00 1581.50,300.00"/>
    <junction id="VolmerSinkEnd" type="priority" x="1584.75" y="400.00" incLanes="VolmerSinkN_0" intLanes="" shape="1584.70,400.00 1581.50,400.00 1588.00,400.00 1584.80,400.00"/>

    <connection from="AltglienickerBreitN" to="ErnstRuska5O" lane="0:0" tl="ErnstRuskaAltglienicker" linkIdx="3" dir="r" state="o"/>
    <connection from="AltglienickerBreitN" to="ErnstRuska4W" lane="1:1" tl="ErnstRuskaAltglienicker" linkIdx="4" dir="l" state="o"/>
    <connection from="AltglienickerBreitS" to="AltglienickerS" lane="0:0" dir="s" state="M"/>
    <connection from="AltglienickerN" to="AltglienickerBreitN" lane="0:0" dir="s" state="M"/>
    <connection from="AltglienickerN" to="AltglienickerBreitN" lane="0:1" dir="s" state="M"/>
    <connection from="AltglienickerS" to="AltglienickerSinkS" lane="0:0" dir="s" state="M"/>
    <connection from="AltglienickerSinkN" to="AltglienickerN" lane="0:0" dir="s" state="M"/>
    <connection from="EinsteinN" to="EinsteinSinkN" lane="0:0" dir="s" state="M"/>
    <connection from="EinsteinS" to="ErnstRuska1W" lane="0:0" dir="r" state="m"/>
    <connection from="EinsteinS" to="ErnstRuska2O" lane="0:1" dir="l" state="m"/>
    <connection from="EinsteinSinkS" to="EinsteinS" lane="0:0" dir="s" state="M"/>
    <connection from="ErnstRuska1O" to="ErnstRuska2O" lane="0:0" dir="s" state="M"/>
    <connection from="ErnstRuska1O" to="ErnstRuska2O" lane="1:1" dir="s" state="M"/>
    <connection from="ErnstRuska1O" to="EinsteinN" lane="1:0" dir="l" state="m"/>
    <connection from="ErnstRuska1W" to="ErnstRuskaSink1W" lane="0:0" dir="s" state="M"/>
    <connection from="ErnstRuska1W" to="ErnstRuskaSink1W" lane="1:1" dir="s" state="M"/>
    <connection from="ErnstRuska231O" to="ErnstRuska232O" lane="0:0" dir="s" state="M"/>
    <connection from="ErnstRuska231O" to="ErnstRuska232O" lane="1:1" dir="s" state="M"/>
    <connection from="ErnstRuska231O" to="HavestadtN" lane="2:0" dir="l" state="M"/>
    <connection from="ErnstRuska231W" to="ErnstRuska2W" lane="0:0" dir="s" state="M"/>
    <connection from="ErnstRuska231W" to="ErnstRuska2W" lane="1:1" dir="s" state="M"/>
    <connection from="ErnstRuska232O" to="ErnstRuska3O" lane="0:0" dir="s" state="M"/>
    <connection from="ErnstRuska232O" to="ErnstRuska3O" lane="1:1" dir="s" state="M"/>
    <connection from="ErnstRuska232W" to="HavestadtN" lane="0:0" dir="r" state="m"/>
    <connection from="ErnstRuska232W" to="ErnstRuska231W" lane="0:0" dir="s" state="m"/>
    <connection from="ErnstRuska232W" to="ErnstRuska231W" lane="1:1" dir="s" state="m"/>
    <connection from="ErnstRuska2O" to="ErnstRuska231O" lane="0:0" dir="s" state="M"/>
    <connection from="ErnstRuska2O" to="ErnstRuska231O" lane="1:1" dir="s" state="M"/>
    <connection from="ErnstRuska2O" to="ErnstRuska231O" lane="1:2" dir="s" state="M"/>
    <connection from="ErnstRuska2W" to="EinsteinN" lane="0:0" dir="r" state="M"/>
    <connection from="ErnstRuska2W" to="ErnstRuska1W" lane="0:0" dir="s" state="M"/>
    <connection from="ErnstRuska2W" to="ErnstRuska1W" lane="1:1" dir="s" state="M"/>
    <connection from="ErnstRuska3O" to="ErnstRuska4O" lane="0:0" dir="s" state="M"/>
    <connection from="ErnstRuska3O" to="ErnstRuska4O" lane="1:1" dir="s" state="M"/>
    <connection from="ErnstRuska3O" to="VolmerN" lane="1:0" dir="l" state="m"/>
    <connection from="ErnstRuska3W" to="ErnstRuska232W" lane="0:0" dir="s" state="M"/>
    <connection from="ErnstRuska3W" to="ErnstRuska232W" lane="1:1" dir="s" state="M"/>
    <connection from="ErnstRuska4O" to="AltglienickerBreitS" lane="0:0" tl="ErnstRuskaAltglienicker" linkIdx="5" dir="r" state="o"/>
    <connection from="ErnstRuska4O" to="ErnstRuska5O" lane="0:0" tl="ErnstRuskaAltglienicker" linkIdx="6" dir="s" state="o"/>
    <connection from="ErnstRuska4O" to="ErnstRuska5O" lane="1:1" tl="ErnstRuskaAltglienicker" linkIdx="7" dir="s" state="o"/>
    <connection from="ErnstRuska4W" to="VolmerN" lane="0:0" dir="r" state="M"/>
    <connection from="ErnstRuska4W" to="ErnstRuska3W" lane="0:0" dir="s" state="M"/>
    <connection from="ErnstRuska4W" to="ErnstRuska3W" lane="1:1" dir="s" state="M"/>
    <connection from="ErnstRuska5O" to="ErnstRuskaSink5O" lane="0:0" dir="s" state="M"/>
    <connection from="ErnstRuska5O" to="ErnstRuskaSink5O" lane="1:1" dir="s" state="M"/>
    <connection from="ErnstRuska5W" to="ErnstRuska4W" lane="0:0" tl="ErnstRuskaAltglienicker" linkIdx="0" dir="s" state="o"/>
    <connection from="ErnstRuska5W" to="ErnstRuska4W" lane="1:1" tl="ErnstRuskaAltglienicker" linkIdx="1" dir="s" state="o"/>
    <connection from="ErnstRuska5W" to="AltglienickerBreitS" lane="2:0" tl="ErnstRuskaAltglienicker" linkIdx="2" dir="l" state="o"/>
    <connection from="ErnstRuskaSink1O" to="ErnstRuska1O" lane="0:0" dir="s" state="M"/>
    <connection from="ErnstRuskaSink1O" to="ErnstRuska1O" lane="1:1" dir="s" state="M"/>
    <connection from="ErnstRuskaSink5W" to="ErnstRuska5W" lane="0:0" dir="s" state="M"/>
    <connection from="ErnstRuskaSink5W" to="ErnstRuska5W" lane="1:1" dir="s" state="M"/>
    <connection from="ErnstRuskaSink5W" to="ErnstRuska5W" lane="1:2" dir="s" state="M"/>
    <connection from="HavestadtN" to="HavestadtSinkN" lane="0:0" dir="s" state="M"/>
    <connection from="HavestadtN" to="HavestadtSinkN" lane="1:1" dir="s" state="M"/>
    <connection from="HavestadtS" to="ErnstRuska231W" lane="0:0" dir="r" state="M"/>
    <connection from="HavestadtS" to="ErnstRuska232O" lane="1:1" dir="l" state="m"/>
    <connection from="HavestadtS" to="ErnstRuska232O" lane="1:2" dir="l" state="m"/>
    <connection from="HavestadtSinkS" to="HavestadtS" lane="0:0" dir="s" state="M"/>
    <connection from="HavestadtSinkS" to="HavestadtS" lane="1:1" dir="s" state="M"/>
    <connection from="VolmerN" to="VolmerSinkN" lane="0:0" dir="s" state="M"/>
    <connection from="VolmerS" to="ErnstRuska3W" lane="0:0" dir="r" state="m"/>
    <connection from="VolmerS" to="ErnstRuska4O" lane="0:1" dir="l" state="m"/>
    <connection from="VolmerSinkS" to="VolmerS" lane="0:0" dir="s" state="M"/>

</net>
