<?xml version="1.0" encoding="UTF-8"?>

<!-- generated on Fri Nov 25 12:29:46 2011 by SUMO netconvert Version dev-SVN-r11539
This data file and the accompanying materials
are made available under the terms of the Eclipse Public License v2.0
which accompanies this distribution, and is available at
http://www.eclipse.org/legal/epl-v20.html
SPDX-License-Identifier: EPL-2.0
<configuration xmlns:xsi="http://www.w3.org/2001/XMLSchema-instance" xsi:noNamespaceSchemaLocation="http://sumo.dlr.de/xsd/netconvertConfiguration.xsd">

    <input>
        <sumo-net-file value="koelnHighways.net.xml"/>
    </input>

    <output>
        <plain-output-prefix value="koelnHighways"/>
    </output>

    <processing>
        <no-turnarounds value="true"/>
        <offset.disable-normalization value="true"/>
    </processing>

</configuration>
-->

<tlLogics version="0.13" xmlns:xsi="http://www.w3.org/2001/XMLSchema-instance" xsi:noNamespaceSchemaLocation="http://sumo.dlr.de/xsd/tllogic_file.xsd">
    <tlLogic id="joinedS_3" type="static" programID="0" offset="0">
        <phase duration="31" state="GGGrrrrGGGrrrr"/>
        <phase duration="4" state="yyyrrrryyyrrrr"/>
        <phase duration="31" state="rrrGGrrrrrGgGr"/>
        <phase duration="4" state="rrryyrrrrryyyr"/>
        <phase duration="31" state="rrrGrGgrrrrrGG"/>
        <phase duration="4" state="rrryryyrrrrryy"/>
    </tlLogic>
</tlLogics>
