<?xml version="1.0" encoding="UTF-8"?>

<!-- generated on Mon Nov 28 14:38:19 2016 by SUMO netconvert Version dev-SVN-r22106
<?xml version="1.0" encoding="UTF-8"?>

<configuration xmlns:xsi="http://www.w3.org/2001/XMLSchema-instance" xsi:noNamespaceSchemaLocation="http://sumo.dlr.de/xsd/netconvertConfiguration.xsd">

    <input>
        <visum-file value="visum.net"/>
    </input>

    <output>
        <output-file value="net.net.xml"/>
    </output>

    <processing>
        <geometry.junction-mismatch-threshold value="100"/>
    </processing>

    <report>
        <verbose value="true"/>
        <xml-validation value="never"/>
    </report>

</configuration>
-->

<net version="0.27" xmlns:xsi="http://www.w3.org/2001/XMLSchema-instance" xsi:noNamespaceSchemaLocation="http://sumo.dlr.de/xsd/net_file.xsd">

    <location netOffset="-414.00,1203.00" convBoundary="0.00,0.00,2523.00,826.00" origBoundary="414.00,-1203.00,2937.00,-354.00" projParameter="!"/>

    <type id="0" priority="999" numLanes="56" speed="13.89" oneway="0"/>
    <type id="1" priority="999" numLanes="56" speed="13.89" oneway="0"/>
    <type id="10" priority="998" numLanes="56" speed="13.89" oneway="0"/>
    <type id="11" priority="998" numLanes="56" speed="13.89" oneway="0"/>
    <type id="12" priority="998" numLanes="56" speed="13.89" oneway="0"/>
    <type id="13" priority="998" numLanes="56" speed="13.89" oneway="0"/>
    <type id="14" priority="998" numLanes="56" speed="13.89" oneway="0"/>
    <type id="15" priority="998" numLanes="56" speed="13.89" oneway="0"/>
    <type id="16" priority="998" numLanes="56" speed="13.89" oneway="0"/>
    <type id="17" priority="998" numLanes="56" speed="13.89" oneway="0"/>
    <type id="18" priority="998" numLanes="56" speed="13.89" oneway="0"/>
    <type id="19" priority="998" numLanes="56" speed="13.89" oneway="0"/>
    <type id="2" priority="999" numLanes="56" speed="13.89" oneway="0"/>
    <type id="20" priority="997" numLanes="56" speed="13.89" oneway="0"/>
    <type id="21" priority="997" numLanes="56" speed="13.89" oneway="0"/>
    <type id="22" priority="997" numLanes="56" speed="13.89" oneway="0"/>
    <type id="23" priority="997" numLanes="56" speed="13.89" oneway="0"/>
    <type id="24" priority="997" numLanes="56" speed="13.89" oneway="0"/>
    <type id="25" priority="997" numLanes="56" speed="13.89" oneway="0"/>
    <type id="26" priority="997" numLanes="56" speed="13.89" oneway="0"/>
    <type id="27" priority="997" numLanes="56" speed="13.89" oneway="0"/>
    <type id="28" priority="997" numLanes="56" speed="13.89" oneway="0"/>
    <type id="29" priority="997" numLanes="56" speed="13.89" oneway="0"/>
    <type id="3" priority="999" numLanes="56" speed="13.89" oneway="0"/>
    <type id="30" priority="996" numLanes="56" speed="13.89" oneway="0"/>
    <type id="31" priority="996" numLanes="56" speed="13.89" oneway="0"/>
    <type id="32" priority="996" numLanes="56" speed="13.89" oneway="0"/>
    <type id="33" priority="996" numLanes="56" speed="13.89" oneway="0"/>
    <type id="34" priority="996" numLanes="56" speed="13.89" oneway="0"/>
    <type id="35" priority="996" numLanes="56" speed="13.89" oneway="0"/>
    <type id="36" priority="996" numLanes="56" speed="13.89" oneway="0"/>
    <type id="37" priority="996" numLanes="56" speed="13.89" oneway="0"/>
    <type id="38" priority="996" numLanes="56" speed="13.89" oneway="0"/>
    <type id="39" priority="996" numLanes="56" speed="13.89" oneway="0"/>
    <type id="4" priority="999" numLanes="56" speed="13.89" oneway="0"/>
    <type id="40" priority="995" numLanes="56" speed="13.89" oneway="0"/>
    <type id="41" priority="995" numLanes="56" speed="13.89" oneway="0"/>
    <type id="42" priority="995" numLanes="56" speed="13.89" oneway="0"/>
    <type id="43" priority="995" numLanes="56" speed="13.89" oneway="0"/>
    <type id="44" priority="995" numLanes="56" speed="13.89" oneway="0"/>
    <type id="45" priority="995" numLanes="56" speed="13.89" oneway="0"/>
    <type id="46" priority="995" numLanes="56" speed="13.89" oneway="0"/>
    <type id="47" priority="995" numLanes="56" speed="13.89" oneway="0"/>
    <type id="48" priority="995" numLanes="56" speed="13.89" oneway="0"/>
    <type id="49" priority="995" numLanes="56" speed="13.89" oneway="0"/>
    <type id="5" priority="999" numLanes="56" speed="13.89" oneway="0"/>
    <type id="50" priority="994" numLanes="56" speed="13.89" oneway="0"/>
    <type id="51" priority="994" numLanes="56" speed="13.89" oneway="0"/>
    <type id="52" priority="994" numLanes="56" speed="13.89" oneway="0"/>
    <type id="53" priority="994" numLanes="56" speed="13.89" oneway="0"/>
    <type id="54" priority="994" numLanes="56" speed="13.89" oneway="0"/>
    <type id="55" priority="994" numLanes="56" speed="13.89" oneway="0"/>
    <type id="56" priority="994" numLanes="56" speed="13.89" oneway="0"/>
    <type id="57" priority="994" numLanes="56" speed="13.89" oneway="0"/>
    <type id="58" priority="994" numLanes="56" speed="13.89" oneway="0"/>
    <type id="59" priority="994" numLanes="56" speed="13.89" oneway="0"/>
    <type id="6" priority="999" numLanes="56" speed="13.89" oneway="0"/>
    <type id="60" priority="993" numLanes="56" speed="13.89" oneway="0"/>
    <type id="61" priority="993" numLanes="56" speed="13.89" oneway="0"/>
    <type id="62" priority="993" numLanes="56" speed="13.89" oneway="0"/>
    <type id="63" priority="993" numLanes="56" speed="13.89" oneway="0"/>
    <type id="64" priority="993" numLanes="56" speed="13.89" oneway="0"/>
    <type id="65" priority="993" numLanes="56" speed="13.89" oneway="0"/>
    <type id="66" priority="993" numLanes="56" speed="13.89" oneway="0"/>
    <type id="67" priority="993" numLanes="56" speed="13.89" oneway="0"/>
    <type id="68" priority="993" numLanes="56" speed="13.89" oneway="0"/>
    <type id="69" priority="993" numLanes="56" speed="13.89" oneway="0"/>
    <type id="7" priority="999" numLanes="56" speed="13.89" oneway="0"/>
    <type id="70" priority="992" numLanes="56" speed="13.89" oneway="0"/>
    <type id="71" priority="992" numLanes="56" speed="13.89" oneway="0"/>
    <type id="72" priority="992" numLanes="56" speed="13.89" oneway="0"/>
    <type id="73" priority="992" numLanes="56" speed="13.89" oneway="0"/>
    <type id="74" priority="992" numLanes="56" speed="13.89" oneway="0"/>
    <type id="75" priority="992" numLanes="56" speed="13.89" oneway="0"/>
    <type id="76" priority="992" numLanes="56" speed="13.89" oneway="0"/>
    <type id="77" priority="992" numLanes="56" speed="13.89" oneway="0"/>
    <type id="78" priority="992" numLanes="56" speed="13.89" oneway="0"/>
    <type id="79" priority="992" numLanes="56" speed="13.89" oneway="0"/>
    <type id="8" priority="999" numLanes="56" speed="13.89" oneway="0"/>
    <type id="80" priority="991" numLanes="56" speed="13.89" oneway="0"/>
    <type id="81" priority="991" numLanes="56" speed="13.89" oneway="0"/>
    <type id="82" priority="991" numLanes="56" speed="13.89" oneway="0"/>
    <type id="83" priority="991" numLanes="56" speed="13.89" oneway="0"/>
    <type id="84" priority="991" numLanes="56" speed="13.89" oneway="0"/>
    <type id="85" priority="991" numLanes="56" speed="13.89" oneway="0"/>
    <type id="86" priority="991" numLanes="56" speed="13.89" oneway="0"/>
    <type id="87" priority="991" numLanes="56" speed="13.89" oneway="0"/>
    <type id="88" priority="991" numLanes="56" speed="13.89" oneway="0"/>
    <type id="89" priority="991" numLanes="56" speed="13.89" oneway="0"/>
    <type id="9" priority="999" numLanes="56" speed="13.89" oneway="0"/>
    <type id="90" priority="990" numLanes="56" speed="13.89" oneway="0"/>
    <type id="91" priority="990" numLanes="56" speed="13.89" oneway="0"/>
    <type id="92" priority="990" numLanes="56" speed="13.89" oneway="0"/>
    <type id="93" priority="990" numLanes="56" speed="13.89" oneway="0"/>
    <type id="94" priority="990" numLanes="56" speed="13.89" oneway="0"/>
    <type id="95" priority="990" numLanes="56" speed="13.89" oneway="0"/>
    <type id="96" priority="990" numLanes="56" speed="13.89" oneway="0"/>
    <type id="97" priority="990" numLanes="56" speed="13.89" oneway="0"/>
    <type id="98" priority="990" numLanes="56" speed="13.89" oneway="0"/>
    <type id="99" priority="990" numLanes="56" speed="13.89" oneway="0"/>

    <edge id=":1_0" function="internal">
        <lane id=":1_0_0" index="0" speed="19.44" length="4.82" shape="4.65,742.91 3.89,744.19 3.09,744.65 2.24,744.28 1.35,743.09"/>
    </edge>
    <edge id=":10_0" function="internal">
        <lane id=":10_0_0" index="0" speed="19.44" length="4.82" shape="2524.18,824.84 2524.46,826.30 2524.16,827.18 2523.28,827.46 2521.82,827.16"/>
    </edge>
    <edge id=":11_0" function="internal">
        <lane id=":11_0_0" index="0" speed="13.89" length="4.82" shape="427.62,748.33 426.56,749.38 425.67,749.62 424.94,749.05 424.38,747.67"/>
    </edge>
    <edge id=":12_0" function="internal">
        <lane id=":12_0_0" index="0" speed="13.89" length="4.82" shape="899.65,808.98 898.84,810.23 898.02,810.65 897.19,810.25 896.35,809.02"/>
    </edge>
    <edge id=":13_0" function="internal">
        <lane id=":13_0_0" index="0" speed="13.89" length="4.82" shape="850.40,170.38 850.91,168.99 851.62,168.40 852.52,168.60 853.60,169.62"/>
    </edge>
    <edge id=":14_0" function="internal">
        <lane id=":14_0_0" index="0" speed="13.89" length="4.82" shape="1308.05,798.73 1308.48,800.15 1308.27,801.05 1307.43,801.42 1305.95,801.27"/>
    </edge>
    <edge id=":15_0" function="internal">
        <lane id=":15_0_0" index="0" speed="13.89" length="3.66" shape="1534.86,554.39 1533.78,554.50 1533.04,554.67 1532.40,555.06 1531.62,555.79"/>
    </edge>
    <edge id=":15_1" function="internal">
        <lane id=":15_1_0" index="0" speed="13.89" length="3.33" shape="1534.86,554.39 1532.89,554.16 1531.83,553.34"/>
    </edge>
    <edge id=":15_4" function="internal">
        <lane id=":15_4_0" index="0" speed="13.89" length="5.46" shape="1531.83,553.34 1531.48,553.06 1530.63,551.09 1530.35,548.24"/>
    </edge>
    <edge id=":15_2" function="internal">
        <lane id=":15_2_0" index="0" speed="13.89" length="6.28" shape="1529.23,553.52 1529.72,552.22 1528.88,551.17 1527.67,549.98 1527.05,548.24"/>
    </edge>
    <edge id=":15_3" function="internal">
        <lane id=":15_3_0" index="0" speed="13.89" length="6.06" shape="1529.23,553.52 1530.50,552.29 1531.56,551.62 1532.78,551.30 1534.55,551.10"/>
    </edge>
    <edge id=":16_0" function="internal">
        <lane id=":16_0_0" index="0" speed="13.89" length="8.78" shape="1568.83,556.19 1566.35,554.24 1564.27,552.88 1562.59,552.10 1561.31,551.91"/>
    </edge>
    <edge id=":16_1" function="internal">
        <lane id=":16_1_0" index="0" speed="13.89" length="9.88" shape="1568.24,544.61 1568.43,547.57 1568.48,549.75 1569.09,551.63 1570.94,553.66"/>
    </edge>
    <edge id=":16_2" function="internal">
        <lane id=":16_2_0" index="0" speed="13.89" length="6.19" shape="1564.97,545.07 1565.08,547.90 1564.51,549.98 1563.69,550.85"/>
    </edge>
    <edge id=":16_4" function="internal">
        <lane id=":16_4_0" index="0" speed="13.89" length="2.67" shape="1563.69,550.85 1563.25,551.32 1561.31,551.91"/>
    </edge>
    <edge id=":16_3" function="internal">
        <lane id=":16_3_0" index="0" speed="13.89" length="11.37" shape="1561.00,548.62 1562.95,548.81 1565.25,549.72 1567.92,551.33 1570.94,553.66"/>
    </edge>
    <edge id=":17_0" function="internal">
        <lane id=":17_0_0" index="0" speed="13.89" length="4.82" shape="1737.06,692.73 1737.48,694.16 1737.27,695.06 1736.42,695.43 1734.94,695.27"/>
    </edge>
    <edge id=":18_0" function="internal">
        <lane id=":18_0_0" index="0" speed="13.89" length="4.82" shape="1418.20,675.14 1416.75,675.47 1415.86,675.20 1415.55,674.33 1415.80,672.86"/>
    </edge>
    <edge id=":19_0" function="internal">
        <lane id=":19_0_0" index="0" speed="13.89" length="4.82" shape="1804.20,660.13 1802.76,660.47 1801.87,660.20 1801.55,659.34 1801.80,657.87"/>
    </edge>
    <edge id=":2_0" function="internal">
        <lane id=":2_0_0" index="0" speed="16.67" length="6.74" shape="464.36,580.66 463.13,581.08 462.11,582.07 461.29,583.64 460.69,585.80"/>
    </edge>
    <edge id=":2_1" function="internal">
        <lane id=":2_1_0" index="0" speed="19.44" length="10.08" shape="464.36,580.66 454.47,581.99"/>
        <lane id=":2_1_1" index="1" speed="19.44" length="10.08" shape="464.06,577.38 453.97,578.73"/>
    </edge>
    <edge id=":2_3" function="internal">
        <lane id=":2_3_0" index="0" speed="19.44" length="10.47" shape="452.99,572.20 463.46,570.80"/>
        <lane id=":2_3_1" index="1" speed="19.44" length="10.47" shape="453.48,575.47 463.76,574.09"/>
    </edge>
    <edge id=":2_5" function="internal">
        <lane id=":2_5_0" index="0" speed="16.67" length="5.63" shape="453.48,575.47 457.53,575.57 458.83,576.46"/>
    </edge>
    <edge id=":2_8" function="internal">
        <lane id=":2_8_0" index="0" speed="16.67" length="10.17" shape="458.83,576.46 460.09,577.32 461.14,580.73 460.69,585.80"/>
    </edge>
    <edge id=":2_6" function="internal">
        <lane id=":2_6_0" index="0" speed="16.67" length="5.49" shape="457.46,585.14 457.55,583.55 457.09,582.50 456.06,581.98 454.47,581.99"/>
    </edge>
    <edge id=":2_7" function="internal">
        <lane id=":2_7_0" index="0" speed="16.67" length="13.38" shape="457.46,585.14 458.66,580.45 460.12,577.04 461.82,574.92 463.76,574.09"/>
    </edge>
    <edge id=":20_0" function="internal">
        <lane id=":20_0_0" index="0" speed="13.89" length="4.82" shape="1749.45,0.56 1749.81,-0.89 1750.44,-1.55 1751.36,-1.44 1752.55,-0.56"/>
    </edge>
    <edge id=":22_0" function="internal">
        <lane id=":22_0_0" index="0" speed="19.44" length="0.16" shape="625.44,565.93 625.32,565.94"/>
        <lane id=":22_0_1" index="1" speed="19.44" length="0.16" shape="625.23,562.64 625.02,562.65"/>
    </edge>
    <edge id=":22_2" function="internal">
        <lane id=":22_2_0" index="0" speed="19.44" length="0.35" shape="624.42,556.08 624.82,556.05"/>
        <lane id=":22_2_1" index="1" speed="19.44" length="0.35" shape="624.72,559.37 625.03,559.35"/>
    </edge>
    <edge id=":23_0" function="internal">
        <lane id=":23_0_0" index="0" speed="19.44" length="4.00" shape="1000.22,535.66 997.60,539.37"/>
        <lane id=":23_0_1" index="1" speed="19.44" length="4.00" shape="999.70,532.40 997.17,536.10"/>
        <lane id=":23_0_2" index="2" speed="19.44" length="4.00" shape="999.70,532.40 996.75,532.83"/>
    </edge>
    <edge id=":23_3" function="internal">
        <lane id=":23_3_0" index="0" speed="19.44" length="2.83" shape="995.90,526.28 998.64,525.88"/>
        <lane id=":23_3_1" index="1" speed="19.44" length="2.83" shape="996.32,529.55 999.17,529.14"/>
    </edge>
    <edge id=":24_0" function="internal">
        <lane id=":24_0_0" index="0" speed="13.89" length="4.89" shape="894.37,649.44 887.78,646.37"/>
        <lane id=":24_0_1" index="1" speed="13.89" length="4.89" shape="894.37,649.44 891.08,646.43"/>
        <lane id=":24_0_2" index="2" speed="13.89" length="4.89" shape="894.37,649.44 894.38,646.49"/>
    </edge>
    <edge id=":24_3" function="internal">
        <lane id=":24_3_0" index="0" speed="13.89" length="2.85" shape="897.68,646.56 897.67,649.40"/>
    </edge>
    <edge id=":25_0" function="internal">
        <lane id=":25_0_0" index="0" speed="13.89" length="0.10" shape="893.35,434.04 893.35,434.12"/>
    </edge>
    <edge id=":25_1" function="internal">
        <lane id=":25_1_0" index="0" speed="13.89" length="0.10" shape="896.65,433.88 896.65,433.96"/>
    </edge>
    <edge id=":3_0" function="internal">
        <lane id=":3_0_0" index="0" speed="16.67" length="6.68" shape="904.46,551.48 902.28,551.94 900.72,552.68 899.77,553.70 899.44,555.00"/>
    </edge>
    <edge id=":3_1" function="internal">
        <lane id=":3_1_0" index="0" speed="19.44" length="18.14" shape="904.46,551.48 899.12,551.61 895.46,550.81 891.79,549.89 886.41,549.68"/>
        <lane id=":3_1_1" index="1" speed="19.44" length="18.14" shape="904.03,548.21 898.76,548.33 895.14,547.52 891.52,546.60 886.21,546.39"/>
    </edge>
    <edge id=":3_3" function="internal">
        <lane id=":3_3_0" index="0" speed="16.67" length="5.05" shape="903.60,544.94 900.44,544.70 898.91,543.62"/>
    </edge>
    <edge id=":3_15" function="internal">
        <lane id=":3_15_0" index="0" speed="16.67" length="8.76" shape="898.91,543.62 898.13,543.08 896.69,540.05 896.12,535.63"/>
    </edge>
    <edge id=":3_4" function="internal">
        <lane id=":3_4_0" index="0" speed="16.67" length="5.13" shape="899.42,535.54 899.66,536.95 900.30,537.89 901.33,538.37 902.75,538.39"/>
    </edge>
    <edge id=":3_5" function="internal">
        <lane id=":3_5_0" index="0" speed="13.89" length="19.46" shape="899.42,535.54 899.44,555.00"/>
    </edge>
    <edge id=":3_6" function="internal">
        <lane id=":3_6_0" index="0" speed="16.67" length="19.23" shape="899.42,535.54 898.70,539.97 896.25,543.26 892.09,545.39 886.21,546.39"/>
    </edge>
    <edge id=":3_7" function="internal">
        <lane id=":3_7_0" index="0" speed="16.67" length="11.90" shape="885.80,539.80 890.35,539.30 893.59,538.43 895.51,537.21 896.12,535.63"/>
    </edge>
    <edge id=":3_8" function="internal">
        <lane id=":3_8_0" index="0" speed="19.44" length="17.12" shape="885.80,539.80 902.75,538.39"/>
        <lane id=":3_8_1" index="1" speed="19.44" length="17.12" shape="886.00,543.09 903.18,541.66"/>
    </edge>
    <edge id=":3_10" function="internal">
        <lane id=":3_10_0" index="0" speed="16.67" length="11.38" shape="886.00,543.09 891.97,543.52 896.20,545.65 896.56,546.20"/>
    </edge>
    <edge id=":3_16" function="internal">
        <lane id=":3_16_0" index="0" speed="16.67" length="9.48" shape="896.56,546.20 898.69,549.47 899.44,555.00"/>
    </edge>
    <edge id=":3_11" function="internal">
        <lane id=":3_11_0" index="0" speed="16.67" length="9.64" shape="889.54,554.81 889.38,552.49 888.81,550.86 887.82,549.93 886.41,549.68"/>
        <lane id=":3_11_1" index="1" speed="16.67" length="9.64" shape="892.84,554.88 892.49,551.00 891.27,548.30 889.17,546.76 886.21,546.39"/>
    </edge>
    <edge id=":3_13" function="internal">
        <lane id=":3_13_0" index="0" speed="13.89" length="19.57" shape="892.84,554.88 893.45,548.45 894.60,543.47 895.69,539.37 896.12,535.63"/>
    </edge>
    <edge id=":3_14" function="internal">
        <lane id=":3_14_0" index="0" speed="16.67" length="16.36" shape="896.14,554.94 896.67,549.46 898.02,545.42 900.19,542.82 903.18,541.66"/>
    </edge>
    <edge id=":4_0" function="internal">
        <lane id=":4_0_0" index="0" speed="16.67" length="6.13" shape="1064.04,525.66 1062.77,526.03 1061.80,526.91 1061.14,528.31 1060.78,530.23"/>
    </edge>
    <edge id=":4_1" function="internal">
        <lane id=":4_1_0" index="0" speed="19.44" length="9.95" shape="1064.04,525.66 1054.31,526.93"/>
        <lane id=":4_1_1" index="1" speed="19.44" length="9.95" shape="1063.79,522.37 1053.78,523.67"/>
    </edge>
    <edge id=":4_3" function="internal">
        <lane id=":4_3_0" index="0" speed="19.44" length="10.52" shape="1052.73,517.16 1063.30,515.79"/>
        <lane id=":4_3_1" index="1" speed="19.44" length="10.52" shape="1053.26,520.42 1063.55,519.08"/>
    </edge>
    <edge id=":4_5" function="internal">
        <lane id=":4_5_0" index="0" speed="16.67" length="5.40" shape="1053.26,520.42 1056.95,520.51 1058.37,521.46"/>
    </edge>
    <edge id=":4_8" function="internal">
        <lane id=":4_8_0" index="0" speed="16.67" length="9.58" shape="1058.37,521.46 1059.43,522.18 1060.71,525.42 1060.78,530.23"/>
    </edge>
    <edge id=":4_6" function="internal">
        <lane id=":4_6_0" index="0" speed="16.67" length="5.34" shape="1057.49,529.92 1057.42,528.40 1056.87,527.39 1055.83,526.91 1054.31,526.93"/>
    </edge>
    <edge id=":4_7" function="internal">
        <lane id=":4_7_0" index="0" speed="16.67" length="13.38" shape="1057.49,529.92 1058.25,525.32 1059.50,521.98 1061.27,519.90 1063.55,519.08"/>
    </edge>
    <edge id=":5_0" function="internal">
        <lane id=":5_0_0" index="0" speed="16.67" length="5.09" shape="1527.05,494.55 1526.85,493.16 1526.25,492.20 1525.24,491.67 1523.84,491.57"/>
    </edge>
    <edge id=":5_1" function="internal">
        <lane id=":5_1_0" index="0" speed="16.67" length="11.35" shape="1530.35,494.55 1530.54,490.09 1531.12,486.90 1532.09,484.99 1533.45,484.35"/>
    </edge>
    <edge id=":5_2" function="internal">
        <lane id=":5_2_0" index="0" speed="19.44" length="9.76" shape="1533.45,490.95 1523.84,491.57"/>
        <lane id=":5_2_1" index="1" speed="19.44" length="9.76" shape="1533.45,487.65 1523.59,488.28"/>
    </edge>
    <edge id=":5_4" function="internal">
        <lane id=":5_4_0" index="0" speed="19.44" length="10.24" shape="1523.10,481.70 1533.45,481.05"/>
        <lane id=":5_4_1" index="1" speed="19.44" length="10.24" shape="1523.35,484.99 1533.45,484.35"/>
    </edge>
    <edge id=":6_0" function="internal">
        <lane id=":6_0_0" index="0" speed="16.67" length="5.06" shape="1563.79,490.16 1562.43,490.49 1561.53,491.17 1561.07,492.20 1561.07,493.60"/>
    </edge>
    <edge id=":6_1" function="internal">
        <lane id=":6_1_0" index="0" speed="19.44" length="10.48" shape="1563.79,490.16 1560.65,490.49 1558.50,490.74 1556.35,490.90 1553.20,490.95"/>
        <lane id=":6_1_1" index="1" speed="19.44" length="10.48" shape="1563.49,486.87 1560.44,487.20 1558.35,487.44 1556.26,487.60 1553.20,487.65"/>
    </edge>
    <edge id=":6_3" function="internal">
        <lane id=":6_3_0" index="0" speed="19.44" length="9.87" shape="1553.20,481.05 1556.08,481.00 1558.05,480.84 1560.01,480.61 1562.88,480.30"/>
        <lane id=":6_3_1" index="1" speed="19.44" length="9.87" shape="1553.20,484.35 1556.17,484.30 1558.20,484.14 1560.22,483.90 1563.18,483.59"/>
    </edge>
    <edge id=":6_5" function="internal">
        <lane id=":6_5_0" index="0" speed="16.67" length="2.90" shape="1553.20,484.35 1554.70,484.96 1555.43,486.01"/>
    </edge>
    <edge id=":6_6" function="internal">
        <lane id=":6_6_0" index="0" speed="16.67" length="8.46" shape="1555.43,486.01 1555.97,486.78 1557.00,489.81 1557.80,494.06"/>
    </edge>
    <edge id=":7_0" function="internal">
        <lane id=":7_0_0" index="0" speed="16.67" length="5.41" shape="1923.76,460.58 1923.31,459.05 1922.57,458.00 1921.53,457.42 1920.19,457.32"/>
    </edge>
    <edge id=":7_1" function="internal">
        <lane id=":7_1_0" index="0" speed="16.67" length="13.82" shape="1923.76,460.58 1923.47,456.13 1924.31,452.88 1926.26,450.85 1929.34,450.02"/>
    </edge>
    <edge id=":7_2" function="internal">
        <lane id=":7_2_0" index="0" speed="16.67" length="5.13" shape="1929.74,456.61 1928.35,456.90 1927.43,457.56 1926.98,458.61 1927.01,460.04"/>
    </edge>
    <edge id=":7_3" function="internal">
        <lane id=":7_3_0" index="0" speed="19.44" length="9.63" shape="1929.74,456.61 1920.19,457.32"/>
        <lane id=":7_3_1" index="1" speed="19.44" length="9.63" shape="1929.54,453.31 1919.89,454.04"/>
    </edge>
    <edge id=":7_5" function="internal">
        <lane id=":7_5_0" index="0" speed="19.44" length="9.83" shape="1919.29,447.46 1929.13,446.72"/>
        <lane id=":7_5_1" index="1" speed="19.44" length="9.83" shape="1919.59,450.75 1929.34,450.02"/>
    </edge>
    <edge id=":7_7" function="internal">
        <lane id=":7_7_0" index="0" speed="16.67" length="4.32" shape="1919.59,450.75 1922.22,451.13 1923.52,452.16"/>
    </edge>
    <edge id=":7_8" function="internal">
        <lane id=":7_8_0" index="0" speed="16.67" length="8.81" shape="1923.52,452.16 1924.34,452.80 1925.93,455.77 1927.01,460.04"/>
    </edge>
    <edge id=":8_0" function="internal">
        <lane id=":8_0_0" index="0" speed="19.44" length="15.13" shape="2145.82,477.64 2142.46,474.88 2140.22,472.82 2137.80,471.14 2133.85,469.50"/>
        <lane id=":8_0_1" index="1" speed="19.44" length="15.13" shape="2147.78,474.98 2144.16,472.04 2141.75,469.87 2139.13,468.10 2134.89,466.37"/>
    </edge>
    <edge id=":8_2" function="internal">
        <lane id=":8_2_0" index="0" speed="16.67" length="3.32" shape="2149.73,472.32 2148.41,470.40 2148.37,469.41"/>
    </edge>
    <edge id=":8_8" function="internal">
        <lane id=":8_8_0" index="0" speed="16.67" length="11.54" shape="2148.37,469.41 2148.30,467.46 2149.41,463.50 2151.73,458.54"/>
    </edge>
    <edge id=":8_3" function="internal">
        <lane id=":8_3_0" index="0" speed="16.67" length="4.83" shape="2154.64,460.09 2154.19,461.31 2154.20,462.43 2154.67,463.44 2155.60,464.35"/>
    </edge>
    <edge id=":8_4" function="internal">
        <lane id=":8_4_0" index="0" speed="16.67" length="22.81" shape="2154.64,460.09 2151.21,464.58 2146.78,467.12 2141.34,467.72 2134.89,466.37"/>
    </edge>
    <edge id=":8_5" function="internal">
        <lane id=":8_5_0" index="0" speed="16.67" length="16.01" shape="2136.98,460.11 2142.33,461.49 2146.57,461.68 2149.70,460.70 2151.73,458.54"/>
    </edge>
    <edge id=":8_6" function="internal">
        <lane id=":8_6_0" index="0" speed="19.44" length="17.68" shape="2136.98,460.11 2142.17,461.64 2145.80,462.62 2149.18,464.08 2153.64,467.01"/>
        <lane id=":8_6_1" index="1" speed="19.44" length="17.68" shape="2135.94,463.24 2140.84,464.67 2144.27,465.57 2147.47,466.91 2151.69,469.66"/>
    </edge>
    <edge id=":9_0" function="internal">
        <lane id=":9_0_0" index="0" speed="19.44" length="2.77" shape="2232.07,537.09 2229.42,539.13"/>
        <lane id=":9_0_1" index="1" speed="19.44" length="2.77" shape="2234.43,534.77 2231.37,536.48"/>
        <lane id=":9_0_2" index="2" speed="19.44" length="2.77" shape="2234.43,534.77 2234.12,534.46 2233.91,534.26 2233.67,534.08 2233.33,533.82"/>
    </edge>
    <edge id=":9_3" function="internal">
        <lane id=":9_3_0" index="0" speed="19.44" length="4.14" shape="2239.19,525.84 2239.14,530.15"/>
        <lane id=":9_3_1" index="1" speed="19.44" length="4.14" shape="2237.24,528.50 2236.78,532.46"/>
    </edge>

    <edge id="-1" from="2" to="1" priority="-1" type="0" shape="461.00,576.00 196.00,616.00 69.00,636.00 26.00,656.00 0.00,688.00 3.00,743.00">
        <lane id="-1_0" index="0" speed="19.44" length="527.93" shape="454.47,581.99 196.75,620.89 70.46,640.78 29.12,660.01 5.05,689.64 7.94,742.73"/>
        <lane id="-1_1" index="1" speed="19.44" length="527.93" shape="453.97,578.73 196.25,617.63 69.49,637.59 27.04,657.34 1.68,688.55 4.65,742.91"/>
    </edge>
    <edge id="-10" from="11" to="2" priority="-1" type="0">
        <lane id="-10_0" index="0" speed="13.89" length="165.86" shape="424.38,747.67 457.46,585.14"/>
    </edge>
    <edge id="-13" from="14" to="4" priority="-1" type="0" shape="1307.00,800.00 1091.00,622.00 1054.00,584.00 1060.00,521.00">
        <lane id="-13_0" index="0" speed="13.89" length="388.81" shape="1305.95,801.27 1089.88,623.22 1052.29,584.60 1057.49,529.92"/>
    </edge>
    <edge id="-14" from="18" to="15" priority="-1" type="0">
        <lane id="-14_0" index="0" speed="13.89" length="164.65" shape="1415.80,672.86 1529.23,553.52"/>
    </edge>
    <edge id="-15" from="17" to="16" priority="-1" type="0">
        <lane id="-15_0" index="0" speed="13.89" length="216.65" shape="1734.94,695.27 1568.83,556.19"/>
    </edge>
    <edge id="-16" from="16" to="15" priority="-1" type="0">
        <lane id="-16_0" index="0" speed="13.89" length="26.57" shape="1561.31,551.91 1534.86,554.39"/>
    </edge>
    <edge id="-19" from="19" to="7" priority="-1" type="0" shape="1803.00,659.00 1935.00,518.00 1924.00,452.00">
        <lane id="-19_0" index="0" speed="13.89" length="250.00" shape="1801.80,657.87 1933.24,517.47 1923.76,460.58"/>
    </edge>
    <edge id="-20" from="20" to="8" priority="-1" type="0" shape="1751.00,0.00 1785.00,95.00 1829.00,135.00 1875.00,147.00 1973.00,247.00 2050.00,328.00 2079.00,342.00 2131.00,377.00 2171.00,426.00 2148.00,469.00">
        <lane id="-20_0" index="0" speed="13.89" length="657.22" shape="1752.55,-0.56 1786.41,94.06 1829.81,133.51 1875.86,145.52 1974.19,245.85 2050.99,326.64 2079.82,340.57 2132.12,375.77 2172.97,425.81 2154.64,460.09"/>
    </edge>
    <edge id="-21" from="22" to="3" priority="-1" type="0">
        <lane id="-21_0" index="0" speed="19.44" length="261.48" shape="624.82,556.05 885.80,539.80"/>
        <lane id="-21_1" index="1" speed="19.44" length="261.48" shape="625.03,559.35 886.00,543.09"/>
    </edge>
    <edge id="-22" from="22" to="2" priority="-1" type="0">
        <lane id="-22_0" index="0" speed="19.44" length="161.63" shape="625.32,565.94 464.36,580.66"/>
        <lane id="-22_1" index="1" speed="19.44" length="161.63" shape="625.02,562.65 464.06,577.38"/>
    </edge>
    <edge id="-23" from="23" to="4" priority="-1" type="0">
        <lane id="-23_0" index="0" speed="19.44" length="54.79" shape="998.64,525.88 1052.73,517.16"/>
        <lane id="-23_1" index="1" speed="19.44" length="54.79" shape="999.17,529.14 1053.26,520.42"/>
    </edge>
    <edge id="-24" from="23" to="3" priority="-1" type="0">
        <lane id="-24_0" index="0" speed="19.44" length="93.93" shape="997.60,539.37 904.46,551.48"/>
        <lane id="-24_1" index="1" speed="19.44" length="93.93" shape="997.17,536.10 904.03,548.21"/>
        <lane id="-24_2" index="2" speed="19.44" length="93.93" shape="996.75,532.83 903.60,544.94"/>
    </edge>
    <edge id="-25" from="24" to="12" priority="-1" type="0">
        <lane id="-25_0" index="0" speed="13.89" length="159.59" shape="897.67,649.40 899.65,808.98"/>
    </edge>
    <edge id="-26" from="24" to="3" priority="-1" type="0">
        <lane id="-26_0" index="0" speed="13.89" length="91.57" shape="887.78,646.37 889.54,554.81"/>