<?xml version="1.0" encoding="UTF-8"?>

<!-- generated on Tue May  7 15:49:12 2013 by SUMO netconvert Version dev-SVN-rUNKNOWN
<?xml version="1.0" encoding="UTF-8"?>

<configuration xmlns:xsi="http://www.w3.org/2001/XMLSchema-instance" xsi:noNamespaceSchemaLocation="http://sumo-sim.org/xsd/netconvertConfiguration.xsd">

    <input>
        <node-files value="./tests/sumo/bugs/ticket331/input_nodes.nod.xml"/>
        <edge-files value="./tests/sumo/bugs/ticket331/input_edges.edg.xml"/>
    </input>

    <output>
        <output-file value="./tests/sumo/bugs/ticket331/net.net.xml"/>
    </output>

    <report>
        <verbose value="true"/>
    </report>

</configuration>
-->

<net version="0.13" xmlns:xsi="http://www.w3.org/2001/XMLSchema-instance" xsi:noNamespaceSchemaLocation="http://sumo-sim.org/xsd/net_file.xsd">

    <location netOffset="0.00,0.00" convBoundary="0.00,0.00,11.00,0.00" origBoundary="0.00,0.00,11.00,0.00" projParameter="!"/>

    <edge id="0" from="SUMOGenerated0" to="SUMOGenerated1" priority="-1">
        <lane id="0_0" index="0" speed="13.90" length="2.00" shape="0.00,-1.65 2.00,-1.65"/>
    </edge>
    <edge id="1" from="SUMOGenerated2" to="SUMOGenerated3" priority="-1">
        <lane id="1_0" index="0" speed="13.90" length="9.00" shape="2.00,-1.65 11.00,-1.65"/>
    </edge>

    <junction id="SUMOGenerated0" type="unregulated" x="0.00" y="0.00" incLanes="" intLanes="" shape="-0.00,-0.05 -0.00,-3.25"/>
    <junction id="SUMOGenerated1" type="unregulated" x="2.00" y="0.00" incLanes="0_0" intLanes="" shape="2.00,-3.25 2.00,-0.05"/>
    <junction id="SUMOGenerated2" type="unregulated" x="2.00" y="0.00" incLanes="" intLanes="" shape="2.00,-0.05 2.00,-3.25"/>
    <junction id="SUMOGenerated3" type="unregulated" x="11.00" y="0.00" incLanes="1_0" intLanes="" shape="11.00,-3.25 11.00,-0.05"/>

</net>
