<net>

   <edges no="16">a1 a2 a3 a4 a5 a6 a7 a8 b1 b2 b3 b4 b5 b6 b7 b8</edges>
   <node_count>7</node_count>


   <edge id="a1" Length="980.30" Speed="13.89" Name="a1" NoLanes="3" XFrom="0.00" YFrom="1000.00" XTo="0.00" YTo="0.00" From="1" To="2" Priority="74" Angle="0.00" Type="" function="normal">
      <lanes>
         <lane id="a1_0" depart="1" maxspeed="13.89" length="980.30" changeurge="0">-8.25,990.15 -8.25,9.85</lane>
         <lane id="a1_1" depart="0" maxspeed="13.89" length="980.30" changeurge="0">-4.95,990.15 -4.95,9.85</lane>
         <lane id="a1_2" depart="0" maxspeed="13.89" length="980.30" changeurge="0">-1.65,990.15 -1.65,9.85</lane>
      </lanes>
      <cedge id="a2" via=":2">a1_0 a1_1 a1_2</cedge>
      <cedge id="b8" via=":2">a1_2</cedge>
   </edge>

   <edge id="a2" Length="980.30" Speed="13.89" Name="a2" NoLanes="3" XFrom="0.00" YFrom="0.00" XTo="1000.00" YTo="0.00" From="2" To="3" Priority="74" Angle="270.00" Type="" function="normal">
      <lanes>
         <lane id="a2_0" depart="1" maxspeed="13.89" length="980.30" changeurge="0">9.85,-8.25 990.15,-8.25</lane>
         <lane id="a2_1" depart="0" maxspeed="13.89" length="980.30" changeurge="0">9.85,-4.95 990.15,-4.95</lane>
         <lane id="a2_2" depart="0" maxspeed="13.89" length="980.30" changeurge="0">9.85,-1.65 990.15,-1.65</lane>
      </lanes>
      <cedge id="a3" via=":3">a2_0 a2_1 a2_2</cedge>
      <cedge id="b7" via=":3">a2_2</cedge>
   </edge>

   <edge id="a3" Length="978.80" Speed="13.89" Name="a3" NoLanes="3" XFrom="1000.00" YFrom="0.00" XTo="1000.00" YTo="1000.00" From="3" To="4" Priority="74" Angle="180.00" Type="" function="normal">
      <lanes>
         <lane id="a3_0" depart="1" maxspeed="13.89" length="978.80" changeurge="0">1008.25,9.85 1008.25,988.65</lane>
         <lane id="a3_1" depart="0" maxspeed="13.89" length="978.80" changeurge="0">1004.95,9.85 1004.95,988.65</lane>
         <lane id="a3_2" depart="0" maxspeed="13.89" length="978.80" changeurge="0">1001.65,9.85 1001.65,988.65</lane>
      </lanes>
      <cedge id="b2" via=":4">a3_0</cedge>
      <cedge id="a4" via=":4">a3_0 a3_1</cedge>
      <cedge id="a8" via=":4">a3_2</cedge>
      <cedge id="b6" via=":4">a3_2</cedge>
   </edge>

   <edge id="a4" Length="978.80" Speed="13.89" Name="a4" NoLanes="3" XFrom="1000.00" YFrom="1000.00" XTo="1000.00" YTo="2000.00" From="4" To="5" Priority="74" Angle="180.00" Type="" function="normal">
      <lanes>
         <lane id="a4_0" depart="1" maxspeed="13.89" length="978.80" changeurge="0">1008.25,1011.35 1008.25,1990.15</lane>
         <lane id="a4_1" depart="0" maxspeed="13.89" length="978.80" changeurge="0">1004.95,1011.35 1004.95,1990.15</lane>
         <lane id="a4_2" depart="0" maxspeed="13.89" length="978.80" changeurge="0">1001.65,1011.35 1001.65,1990.15</lane>
      </lanes>
      <cedge id="a5" via=":5">a4_0 a4_1 a4_2</cedge>
      <cedge id="b5" via=":5">a4_2</cedge>
   </edge>

   <edge id="a5" Length="980.30" Speed="13.89" Name="a5" NoLanes="3" XFrom="1000.00" YFrom="2000.00" XTo="2000.00" YTo="2000.00" From="5" To="6" Priority="74" Angle="270.00" Type="" function="normal">
      <lanes>
         <lane id="a5_0" depart="1" maxspeed="13.89" length="980.30" changeurge="0">1009.85,1991.75 1990.15,1991.75</lane>
         <lane id="a5_1" depart="0" maxspeed="13.89" length="980.30" changeurge="0">1009.85,1995.05 1990.15,1995.05</lane>
         <lane id="a5_2" depart="0" maxspeed="13.89" length="980.30" changeurge="0">1009.85,1998.35 1990.15,1998.35</lane>
      </lanes>
      <cedge id="a6" via=":6">a5_0 a5_1 a5_2</cedge>
      <cedge id="b4" via=":6">a5_2</cedge>
   </edge>

   <edge id="a6" Length="980.30" Speed="13.89" Name="a6" NoLanes="3" XFrom="2000.00" YFrom="2000.00" XTo="2000.00" YTo="1000.00" From="6" To="7" Priority="74" Angle="0.00" Type="" function="normal">
      <lanes>
         <lane id="a6_0" depart="1" maxspeed="13.89" length="980.30" changeurge="0">1991.75,1990.15 1991.75,1009.85</lane>
         <lane id="a6_1" depart="0" maxspeed="13.89" length="980.30" changeurge="0">1995.05,1990.15 1995.05,1009.85</lane>
         <lane id="a6_2" depart="0" maxspeed="13.89" length="980.30" changeurge="0">1998.35,1990.15 1998.35,1009.85</lane>
      </lanes>
      <cedge id="a7" via=":7">a6_0 a6_1 a6_2</cedge>
      <cedge id="b3" via=":7">a6_2</cedge>
   </edge>

   <edge id="a7" Length="978.80" Speed="13.89" Name="a7" NoLanes="3" XFrom="2000.00" YFrom="1000.00" XTo="1000.00" YTo="1000.00" From="7" To="4" Priority="74" Angle="90.00" Type="" function="normal">
      <lanes>
         <lane id="a7_0" depart="1" maxspeed="13.89" length="978.80" changeurge="0">1990.15,1008.25 1011.35,1008.25</lane>
         <lane id="a7_1" depart="0" maxspeed="13.89" length="978.80" changeurge="0">1990.15,1004.95 1011.35,1004.95</lane>
         <lane id="a7_2" depart="0" maxspeed="13.89" length="978.80" changeurge="0">1990.15,1001.65 1011.35,1001.65</lane>
      </lanes>
      <cedge id="a4" via=":4">a7_0</cedge>
      <cedge id="a8" via=":4">a7_0 a7_1</cedge>
      <cedge id="b6" via=":4">a7_2</cedge>
      <cedge id="b2" via=":4">a7_2</cedge>
   </edge>

   <edge id="a8" Length="978.80" Speed="13.89" Name="a8" NoLanes="3" XFrom="1000.00" YFrom="1000.00" XTo="0.00" YTo="1000.00" From="4" To="1" Priority="74" Angle="90.00" Type="" function="normal">
      <lanes>
         <lane id="a8_0" depart="1" maxspeed="13.89" length="978.80" changeurge="0">988.65,1008.25 9.85,1008.25</lane>
         <lane id="a8_1" depart="0" maxspeed="13.89" length="978.80" changeurge="0">988.65,1004.95 9.85,1004.95</lane>
         <lane id="a8_2" depart="0" maxspeed="13.89" length="978.80" changeurge="0">988.65,1001.65 9.85,1001.65</lane>
      </lanes>
      <cedge id="a1" via=":1">a8_0 a8_1 a8_2</cedge>
      <cedge id="b1" via=":1">a8_2</cedge>
   </edge>

   <edge id="b1" Length="978.80" Speed="13.89" Name="b1" NoLanes="3" XFrom="0.00" YFrom="1000.00" XTo="1000.00" YTo="1000.00" From="1" To="4" Priority="74" Angle="270.00" Type="" function="normal">
      <lanes>
         <lane id="b1_0" depart="1" maxspeed="13.89" length="978.80" changeurge="0">9.85,991.75 988.65,991.75</lane>
         <lane id="b1_1" depart="0" maxspeed="13.89" length="978.80" changeurge="0">9.85,995.05 988.65,995.05</lane>
         <lane id="b1_2" depart="0" maxspeed="13.89" length="978.80" changeurge="0">9.85,998.35 988.65,998.35</lane>
      </lanes>
      <cedge id="b6" via=":4">b1_0</cedge>
      <cedge id="b2" via=":4">b1_0 b1_1</cedge>
      <cedge id="a4" via=":4">b1_2</cedge>
      <cedge id="a8" via=":4">b1_2</cedge>
   </edge>

   <edge id="b2" Length="978.80" Speed="13.89" Name="b2" NoLanes="3" XFrom="1000.00" YFrom="1000.00" XTo="2000.00" YTo="1000.00" From="4" To="7" Priority="74" Angle="270.00" Type="" function="normal">
      <lanes>
         <lane id="b2_0" depart="1" maxspeed="13.89" length="978.80" changeurge="0">1011.35,991.75 1990.15,991.75</lane>
         <lane id="b2_1" depart="0" maxspeed="13.89" length="978.80" changeurge="0">1011.35,995.05 1990.15,995.05</lane>
         <lane id="b2_2" depart="0" maxspeed="13.89" length="978.80" changeurge="0">1011.35,998.35 1990.15,998.35</lane>
      </lanes>
      <cedge id="b3" via=":7">b2_0 b2_1 b2_2</cedge>
      <cedge id="a7" via=":7">b2_2</cedge>
   </edge>

   <edge id="b3" Length="980.30" Speed="13.89" Name="b3" NoLanes="3" XFrom="2000.00" YFrom="1000.00" XTo="2000.00" YTo="2000.00" From="7" To="6" Priority="74" Angle="180.00" Type="" function="normal">
      <lanes>
         <lane id="b3_0" depart="1" maxspeed="13.89" length="980.30" changeurge="0">2008.25,1009.85 2008.25,1990.15</lane>
         <lane id="b3_1" depart="0" maxspeed="13.89" length="980.30" changeurge="0">2004.95,1009.85 2004.95,1990.15</lane>
         <lane id="b3_2" depart="0" maxspeed="13.89" length="980.30" changeurge="0">2001.65,1009.85 2001.65,1990.15</lane>
      </lanes>
      <cedge id="b4" via=":6">b3_0 b3_1 b3_2</cedge>
      <cedge id="a6" via=":6">b3_2</cedge>
   </edge>

   <edge id="b4" Length="980.30" Speed="13.89" Name="b4" NoLanes="3" XFrom="2000.00" YFrom="2000.00" XTo="1000.00" YTo="2000.00" From="6" To="5" Priority="74" Angle="90.00" Type="" function="normal">
      <lanes>
         <lane id="b4_0" depart="1" maxspeed="13.89" length="980.30" changeurge="0">1990.15,2008.25 1009.85,2008.25</lane>
         <lane id="b4_1" depart="0" maxspeed="13.89" length="980.30" changeurge="0">1990.15,2004.95 1009.85,2004.95</lane>
         <lane id="b4_2" depart="0" maxspeed="13.89" length="980.30" changeurge="0">1990.15,2001.65 1009.85,2001.65</lane>
      </lanes>
      <cedge id="b5" via=":5">b4_0 b4_1 b4_2</cedge>
      <cedge id="a5" via=":5">b4_2</cedge>
   </edge>

   <edge id="b5" Length="978.80" Speed="13.89" Name="b5" NoLanes="3" XFrom="1000.00" YFrom="2000.00" XTo="1000.00" YTo="1000.00" From="5" To="4" Priority="74" Angle="0.00" Type="" function="normal">
      <lanes>
         <lane id="b5_0" depart="1" maxspeed="13.89" length="978.80" changeurge="0">991.75,1990.15 991.75,1011.35</lane>
         <lane id="b5_1" depart="0" maxspeed="13.89" length="978.80" changeurge="0">995.05,1990.15 995.05,1011.35</lane>
         <lane id="b5_2" depart="0" maxspeed="13.89" length="978.80" changeurge="0">998.35,1990.15 998.35,1011.35</lane>
      </lanes>
      <cedge id="a8" via=":4">b5_0</cedge>
      <cedge id="b6" via=":4">b5_0 b5_1</cedge>
      <cedge id="b2" via=":4">b5_2</cedge>
      <cedge id="a4" via=":4">b5_2</cedge>
   </edge>

   <edge id="b6" Length="978.80" Speed="13.89" Name="b6" NoLanes="3" XFrom="1000.00" YFrom="1000.00" XTo="1000.00" YTo="0.00" From="4" To="3" Priority="74" Angle="0.00" Type="" function="normal">
      <lanes>
         <lane id="b6_0" depart="1" maxspeed="13.89" length="978.80" changeurge="0">991.75,988.65 991.75,9.85</lane>
         <lane id="b6_1" depart="0" maxspeed="13.89" length="978.80" changeurge="0">995.05,988.65 995.05,9.85</lane>
         <lane id="b6_2" depart="0" maxspeed="13.89" length="978.80" changeurge="0">998.35,988.65 998.35,9.85</lane>
      </lanes>
      <cedge id="b7" via=":3">b6_0 b6_1 b6_2</cedge>
      <cedge id="a3" via=":3">b6_2</cedge>
   </edge>

   <edge id="b7" Length="980.30" Speed="13.89" Name="b7" NoLanes="3" XFrom="1000.00" YFrom="0.00" XTo="0.00" YTo="0.00" From="3" To="2" Priority="74" Angle="90.00" Type="" function="normal">
      <lanes>
         <lane id="b7_0" depart="1" maxspeed="13.89" length="980.30" changeurge="0">990.15,8.25 9.85,8.25</lane>
         <lane id="b7_1" depart="0" maxspeed="13.89" length="980.30" changeurge="0">990.15,4.95 9.85,4.95</lane>
         <lane id="b7_2" depart="0" maxspeed="13.89" length="980.30" changeurge="0">990.15,1.65 9.85,1.65</lane>
      </lanes>
      <cedge id="b8" via=":2">b7_0 b7_1 b7_2</cedge>
      <cedge id="a2" via=":2">b7_2</cedge>
   </edge>

   <edge id="b8" Length="980.30" Speed="13.89" Name="b8" NoLanes="3" XFrom="0.00" YFrom="0.00" XTo="0.00" YTo="1000.00" From="2" To="1" Priority="74" Angle="180.00" Type="" function="normal">
      <lanes>
         <lane id="b8_0" depart="1" maxspeed="13.89" length="980.30" changeurge="0">8.25,9.85 8.25,990.15</lane>
         <lane id="b8_1" depart="0" maxspeed="13.89" length="980.30" changeurge="0">4.95,9.85 4.95,990.15</lane>
         <lane id="b8_2" depart="0" maxspeed="13.89" length="980.30" changeurge="0">1.65,9.85 1.65,990.15</lane>
      </lanes>
      <cedge id="b1" via=":1">b8_0 b8_1 b8_2</cedge>
      <cedge id="a1" via=":1">b8_2</cedge>
   </edge>


   <row-logic>
      <key>1</key>
      <requestsize>8</requestsize>
      <lanenumber>6</lanenumber>
      <logic>
         <logicitem request="0" response="00000000" foes="10000000"/>
         <logicitem request="1" response="00000000" foes="10000000"/>
         <logicitem request="2" response="00000000" foes="10000000"/>
         <logicitem request="3" response="01000000" foes="01110000"/>
         <logicitem request="4" response="00000000" foes="00001000"/>
         <logicitem request="5" response="00000000" foes="00001000"/>
         <logicitem request="6" response="00000000" foes="00001000"/>
         <logicitem request="7" response="00000100" foes="00000111"/>
      </logic>
   </row-logic>

   <row-logic>
      <key>2</key>
      <requestsize>8</requestsize>
      <lanenumber>6</lanenumber>
      <logic>
         <logicitem request="0" response="00000000" foes="10000000"/>
         <logicitem request="1" response="00000000" foes="10000000"/>
         <logicitem request="2" response="00000000" foes="10000000"/>
         <logicitem request="3" response="01000000" foes="01110000"/>
         <logicitem request="4" response="00000000" foes="00001000"/>
         <logicitem request="5" response="00000000" foes="00001000"/>
         <logicitem request="6" response="00000000" foes="00001000"/>
         <logicitem request="7" response="00000100" foes="00000111"/>
      </logic>
   </row-logic>

   <row-logic>
      <key>3</key>
      <requestsize>8</requestsize>
      <lanenumber>6</lanenumber>
      <logic>
         <logicitem request="0" response="00000000" foes="10000000"/>
         <logicitem request="1" response="00000000" foes="10000000"/>
         <logicitem request="2" response="00000000" foes="10000000"/>
         <logicitem request="3" response="01000000" foes="01110000"/>
         <logicitem request="4" response="00000000" foes="00001000"/>
         <logicitem request="5" response="00000000" foes="00001000"/>
         <logicitem request="6" response="00000000" foes="00001000"/>
         <logicitem request="7" response="00000100" foes="00000111"/>
      </logic>
   </row-logic>

   <row-logic>
      <key>4</key>
      <requestsize>20</requestsize>
      <lanenumber>12</lanenumber>
      <logic>
         <logicitem request="0" response="00000000000000000000" foes="10000010000011000000"/>
         <logicitem request="1" response="00010000000000000000" foes="01111110000111000000"/>
         <logicitem request="2" response="01100000000000000000" foes="01111110000111000000"/>
         <logicitem request="3" response="01100001000000000000" foes="01110001111111000000"/>
         <logicitem request="4" response="01000001000000000000" foes="01000001100000100000"/>
         <logicitem request="5" response="00000000000000000000" foes="01000001100000010000"/>
         <logicitem request="6" response="00000000000000000010" foes="11000011100000001111"/>
         <logicitem request="7" response="00000000000000001100" foes="11000011100000001111"/>
         <logicitem request="8" response="00100000000000001100" foes="00111111100000001110"/>
         <logicitem request="9" response="00100000000000001000" foes="00110000010000001000"/>
         <logicitem request="10" response="00000000000000000000" foes="00110000001000001000"/>
         <logicitem request="11" response="00000000000001000000" foes="01110000000111111000"/>
         <logicitem request="12" response="00000000000110000000" foes="01110000000111111000"/>
         <logicitem request="13" response="00000000000110000100" foes="11110000000111000111"/>
         <logicitem request="14" response="00000000000100000100" foes="00001000000100000110"/>
         <logicitem request="15" response="00000000000000000000" foes="00000100000100000110"/>
         <logicitem request="16" response="00000000100000000000" foes="00000011111100001110"/>
         <logicitem request="17" response="00000011000000000000" foes="00000011111100001110"/>
         <logicitem request="18" response="00000011000010000000" foes="00000011100011111110"/>
         <logicitem request="19" response="00000010000010000000" foes="00000010000011000001"/>
      </logic>
   </row-logic>

   <row-logic>
      <key>5</key>
      <requestsize>8</requestsize>
      <lanenumber>6</lanenumber>
      <logic>
         <logicitem request="0" response="00000000" foes="10000000"/>
         <logicitem request="1" response="00000000" foes="10000000"/>
         <logicitem request="2" response="00000000" foes="10000000"/>
         <logicitem request="3" response="01000000" foes="01110000"/>
         <logicitem request="4" response="00000000" foes="00001000"/>
         <logicitem request="5" response="00000000" foes="00001000"/>
         <logicitem request="6" response="00000000" foes="00001000"/>
         <logicitem request="7" response="00000100" foes="00000111"/>
      </logic>
   </row-logic>

   <row-logic>
      <key>6</key>
      <requestsize>8</requestsize>
      <lanenumber>6</lanenumber>
      <logic>
         <logicitem request="0" response="00000000" foes="10000000"/>
         <logicitem request="1" response="00000000" foes="10000000"/>
         <logicitem request="2" response="00000000" foes="10000000"/>
         <logicitem request="3" response="01000000" foes="01110000"/>
         <logicitem request="4" response="00000000" foes="00001000"/>
         <logicitem request="5" response="00000000" foes="00001000"/>
         <logicitem request="6" response="00000000" foes="00001000"/>
         <logicitem request="7" response="00000100" foes="00000111"/>
      </logic>
   </row-logic>

   <row-logic>
      <key>7</key>
      <requestsize>8</requestsize>
      <lanenumber>6</lanenumber>
      <logic>
         <logicitem request="0" response="00000000" foes="10000000"/>
         <logicitem request="1" response="00000000" foes="10000000"/>
         <logicitem request="2" response="00000000" foes="10000000"/>
         <logicitem request="3" response="01000000" foes="01110000"/>
         <logicitem request="4" response="00000000" foes="00001000"/>
         <logicitem request="5" response="00000000" foes="00001000"/>
         <logicitem request="6" response="00000000" foes="00001000"/>
         <logicitem request="7" response="00000100" foes="00000111"/>
      </logic>
   </row-logic>


   <tl-logic type="static">
      <key>4</key>
      <logicno>0</logicno>
      <phaseno>8</phaseno>
      <offset>0</offset>
      <inclanes>a3_0 a3_1 a3_2 a7_0 a7_1 a7_2 b1_0 b1_1 b1_2 b5_0 b5_1 b5_2</inclanes>
      <phase duration="20" phase="00000111110000011111" brake="11111110001111111000" yellow="00000000000000000000"/>
      <phase duration="4" phase="00000110000000011000" brake="11111111111111111111" yellow="00000001110000000111"/>
      <phase duration="3" phase="00000110000000011000" brake="11111001111111100111" yellow="00000000000000000000"/>
      <phase duration="4" phase="00000000000000000000" brake="11111111111111111111" yellow="00000110000000011000"/>
      <phase duration="20" phase="11111000001111100000" brake="11000111111100011111" yellow="00000000000000000000"/>
      <phase duration="4" phase="11000000001100000000" brake="11111111111111111111" yellow="00111000000011100000"/>
      <phase duration="3" phase="11000000001100000000" brake="00111111110011111111" yellow="00000000000000000000"/>
      <phase duration="4" phase="00000000000000000000" brake="11111111111111111111" yellow="11000000001100000000"/>
   </tl-logic>


   <junction id="1" type="priority" x="0.00" y="1000.00">
      <inclanes>a8_0 a8_1 a8_2 b8_0 b8_1 b8_2</inclanes>
      <shape>9.85,1009.85 9.85,990.15 -9.85,990.15</shape>
   </junction>

   <junction id="2" type="priority" x="0.00" y="0.00">
      <inclanes>a1_0 a1_1 a1_2 b7_0 b7_1 b7_2</inclanes>
      <shape>-9.85,9.85 9.85,9.85 9.85,-9.85</shape>
   </junction>

   <junction id="3" type="priority" x="1000.00" y="0.00">
      <inclanes>b6_0 b6_1 b6_2 a2_0 a2_1 a2_2</inclanes>
      <shape>990.15,9.85 1009.85,9.85 990.15,-9.85 990.15,9.85</shape>
   </junction>

   <junction id="4" type="priority" x="1000.00" y="1000.00">
      <inclanes>b5_0 b5_1 b5_2 a7_0 a7_1 a7_2 a3_0 a3_1 a3_2 b1_0 b1_1 b1_2</inclanes>
      <shape>990.15,1011.35 1009.85,1011.35 1011.35,1009.85 1011.35,990.15 1009.85,988.65 990.15,988.65 988.65,990.15 988.65,1009.85</shape>
   </junction>

   <junction id="5" type="priority" x="1000.00" y="2000.00">
      <inclanes>b4_0 b4_1 b4_2 a4_0 a4_1 a4_2</inclanes>
      <shape>1009.85,2009.85 1009.85,1990.15 990.15,1990.15</shape>
   </junction>

   <junction id="6" type="priority" x="2000.00" y="2000.00">
      <inclanes>b3_0 b3_1 b3_2 a5_0 a5_1 a5_2</inclanes>
      <shape>2009.85,1990.15 1990.15,1990.15 1990.15,2009.85</shape>
   </junction>

   <junction id="7" type="priority" x="2000.00" y="1000.00">
      <inclanes>a6_0 a6_1 a6_2 b2_0 b2_1 b2_2</inclanes>
      <shape>1990.15,1009.85 2009.85,1009.85 1990.15,990.15 1990.15,1009.85</shape>
   </junction>


   <succ edge="a1" lane="a1_0" junction="2">
      <succlane lane="a2_0" via=":2_0_0" yield="0" dir="l" state="M"/>
   </succ>

   <succ edge="a1" lane="a1_1" junction="2">
      <succlane lane="a2_1" via=":2_1_0" yield="0" dir="l" state="M"/>
   </succ>

   <succ edge="a1" lane="a1_2" junction="2">
      <succlane lane="a2_2" via=":2_2_0" yield="0" dir="l" state="M"/>
      <succlane lane="b8_2" via=":2_3_0" yield="1" dir="t" state="m"/>
   </succ>

   <succ edge="a2" lane="a2_0" junction="3">
      <succlane lane="a3_0" via=":3_4_0" yield="0" dir="l" state="M"/>
   </succ>

   <succ edge="a2" lane="a2_1" junction="3">
      <succlane lane="a3_1" via=":3_5_0" yield="0" dir="l" state="M"/>
   </succ>

   <succ edge="a2" lane="a2_2" junction="3">
      <succlane lane="a3_2" via=":3_6_0" yield="0" dir="l" state="M"/>
      <succlane lane="b7_2" via=":3_7_0" yield="1" dir="t" state="m"/>
   </succ>

   <succ edge="a3" lane="a3_0" junction="4">
      <succlane lane="b2_0" via=":4_10_0" tl="4" linkno="10" yield="1" dir="r" state="t"/>
      <succlane lane="a4_1" via=":4_11_0" tl="4" linkno="11" yield="1" dir="s" state="t"/>
   </succ>

   <succ edge="a3" lane="a3_1" junction="4">
      <succlane lane="a4_2" via=":4_12_0" tl="4" linkno="12" yield="1" dir="s" state="t"/>
   </succ>

   <succ edge="a3" lane="a3_2" junction="4">
      <succlane lane="a8_2" via=":4_13_0" tl="4" linkno="13" yield="1" dir="l" state="t"/>
      <succlane lane="b6_2" via=":4_14_0" tl="4" linkno="14" yield="1" dir="t" state="t"/>
   </succ>

   <succ edge="a4" lane="a4_0" junction="5">
      <succlane lane="a5_0" via=":5_4_0" yield="0" dir="r" state="M"/>
   </succ>

   <succ edge="a4" lane="a4_1" junction="5">
      <succlane lane="a5_1" via=":5_5_0" yield="0" dir="r" state="M"/>
   </succ>

   <succ edge="a4" lane="a4_2" junction="5">
      <succlane lane="a5_2" via=":5_6_0" yield="0" dir="r" state="M"/>
      <succlane lane="b5_2" via=":5_7_0" yield="1" dir="t" state="m"/>
   </succ>

   <succ edge="a5" lane="a5_0" junction="6">
      <succlane lane="a6_0" via=":6_4_0" yield="0" dir="r" state="M"/>
   </succ>

   <succ edge="a5" lane="a5_1" junction="6">
      <succlane lane="a6_1" via=":6_5_0" yield="0" dir="r" state="M"/>
   </succ>

   <succ edge="a5" lane="a5_2" junction="6">
      <succlane lane="a6_2" via=":6_6_0" yield="0" dir="r" state="M"/>
      <succlane lane="b4_2" via=":6_7_0" yield="1" dir="t" state="m"/>
   </succ>

   <succ edge="a6" lane="a6_0" junction="7">
      <succlane lane="a7_0" via=":7_0_0" yield="0" dir="r" state="M"/>
   </succ>

   <succ edge="a6" lane="a6_1" junction="7">
      <succlane lane="a7_1" via=":7_1_0" yield="0" dir="r" state="M"/>
   </succ>

   <succ edge="a6" lane="a6_2" junction="7">
      <succlane lane="a7_2" via=":7_2_0" yield="0" dir="r" state="M"/>
      <succlane lane="b3_2" via=":7_3_0" yield="1" dir="t" state="m"/>
   </succ>

   <succ edge="a7" lane="a7_0" junction="4">
      <succlane lane="a4_0" via=":4_5_0" tl="4" linkno="5" yield="1" dir="r" state="t"/>
      <succlane lane="a8_1" via=":4_6_0" tl="4" linkno="6" yield="1" dir="s" state="t"/>
   </succ>

   <succ edge="a7" lane="a7_1" junction="4">
      <succlane lane="a8_2" via=":4_7_0" tl="4" linkno="7" yield="1" dir="s" state="t"/>
   </succ>

   <succ edge="a7" lane="a7_2" junction="4">
      <succlane lane="b6_2" via=":4_8_0" tl="4" linkno="8" yield="1" dir="l" state="t"/>
      <succlane lane="b2_2" via=":4_9_0" tl="4" linkno="9" yield="1" dir="t" state="t"/>
   </succ>

   <succ edge="a8" lane="a8_0" junction="1">
      <succlane lane="a1_0" via=":1_0_0" yield="0" dir="l" state="M"/>
   </succ>

   <succ edge="a8" lane="a8_1" junction="1">
      <succlane lane="a1_1" via=":1_1_0" yield="0" dir="l" state="M"/>
   </succ>

   <succ edge="a8" lane="a8_2" junction="1">
      <succlane lane="a1_2" via=":1_2_0" yield="0" dir="l" state="M"/>
      <succlane lane="b1_2" via=":1_3_0" yield="1" dir="t" state="m"/>
   </succ>

   <succ edge="b1" lane="b1_0" junction="4">
      <succlane lane="b6_0" via=":4_15_0" tl="4" linkno="15" yield="1" dir="r" state="t"/>
      <succlane lane="b2_1" via=":4_16_0" tl="4" linkno="16" yield="1" dir="s" state="t"/>
   </succ>

   <succ edge="b1" lane="b1_1" junction="4">
      <succlane lane="b2_2" via=":4_17_0" tl="4" linkno="17" yield="1" dir="s" state="t"/>
   </succ>

   <succ edge="b1" lane="b1_2" junction="4">
      <succlane lane="a4_2" via=":4_18_0" tl="4" linkno="18" yield="1" dir="l" state="t"/>
      <succlane lane="a8_2" via=":4_19_0" tl="4" linkno="19" yield="1" dir="t" state="t"/>
   </succ>

   <succ edge="b2" lane="b2_0" junction="7">
      <succlane lane="b3_0" via=":7_4_0" yield="0" dir="l" state="M"/>
   </succ>

   <succ edge="b2" lane="b2_1" junction="7">
      <succlane lane="b3_1" via=":7_5_0" yield="0" dir="l" state="M"/>
   </succ>

   <succ edge="b2" lane="b2_2" junction="7">
      <succlane lane="b3_2" via=":7_6_0" yield="0" dir="l" state="M"/>
      <succlane lane="a7_2" via=":7_7_0" yield="1" dir="t" state="m"/>
   </succ>

   <succ edge="b3" lane="b3_0" junction="6">
      <succlane lane="b4_0" via=":6_0_0" yield="0" dir="l" state="M"/>
   </succ>

   <succ edge="b3" lane="b3_1" junction="6">
      <succlane lane="b4_1" via=":6_1_0" yield="0" dir="l" state="M"/>
   </succ>

   <succ edge="b3" lane="b3_2" junction="6">
      <succlane lane="b4_2" via=":6_2_0" yield="0" dir="l" state="M"/>
      <succlane lane="a6_2" via=":6_3_0" yield="1" dir="t" state="m"/>
   </succ>

   <succ edge="b4" lane="b4_0" junction="5">
      <succlane lane="b5_0" via=":5_0_0" yield="0" dir="l" state="M"/>
   </succ>

   <succ edge="b4" lane="b4_1" junction="5">
      <succlane lane="b5_1" via=":5_1_0" yield="0" dir="l" state="M"/>
   </succ>

   <succ edge="b4" lane="b4_2" junction="5">
      <succlane lane="b5_2" via=":5_2_0" yield="0" dir="l" state="M"/>
      <succlane lane="a5_2" via=":5_3_0" yield="1" dir="t" state="m"/>
   </succ>

   <succ edge="b5" lane="b5_0" junction="4">
      <succlane lane="a8_0" via=":4_0_0" tl="4" linkno="0" yield="1" dir="r" state="t"/>
      <succlane lane="b6_1" via=":4_1_0" tl="4" linkno="1" yield="1" dir="s" state="t"/>
   </succ>

   <succ edge="b5" lane="b5_1" junction="4">
      <succlane lane="b6_2" via=":4_2_0" tl="4" linkno="2" yield="1" dir="s" state="t"/>
   </succ>

   <succ edge="b5" lane="b5_2" junction="4">
      <succlane lane="b2_2" via=":4_3_0" tl="4" linkno="3" yield="1" dir="l" state="t"/>
      <succlane lane="a4_2" via=":4_4_0" tl="4" linkno="4" yield="1" dir="t" state="t"/>
   </succ>

   <succ edge="b6" lane="b6_0" junction="3">
      <succlane lane="b7_0" via=":3_0_0" yield="0" dir="r" state="M"/>
   </succ>

   <succ edge="b6" lane="b6_1" junction="3">
      <succlane lane="b7_1" via=":3_1_0" yield="0" dir="r" state="M"/>
   </succ>

   <succ edge="b6" lane="b6_2" junction="3">
      <succlane lane="b7_2" via=":3_2_0" yield="0" dir="r" state="M"/>
      <succlane lane="a3_2" via=":3_3_0" yield="1" dir="t" state="m"/>
   </succ>

   <succ edge="b7" lane="b7_0" junction="2">
      <succlane lane="b8_0" via=":2_4_0" yield="0" dir="r" state="M"/>
   </succ>

   <succ edge="b7" lane="b7_1" junction="2">
      <succlane lane="b8_1" via=":2_5_0" yield="0" dir="r" state="M"/>
   </succ>

   <succ edge="b7" lane="b7_2" junction="2">
      <succlane lane="b8_2" via=":2_6_0" yield="0" dir="r" state="M"/>
      <succlane lane="a2_2" via=":2_7_0" yield="1" dir="t" state="m"/>
   </succ>

   <succ edge="b8" lane="b8_0" junction="1">
      <succlane lane="b1_0" via=":1_4_0" yield="0" dir="r" state="M"/>
   </succ>

   <succ edge="b8" lane="b8_1" junction="1">
      <succlane lane="b1_1" via=":1_5_0" yield="0" dir="r" state="M"/>
   </succ>

   <succ edge="b8" lane="b8_2" junction="1">
      <succlane lane="b1_2" via=":1_6_0" yield="0" dir="r" state="M"/>
      <succlane lane="a1_2" via=":1_7_0" yield="1" dir="t" state="m"/>
   </succ>


</net>
