<?xml version="1.0" encoding="UTF-8"?>

<!-- generated on 2026-07-03T12:23:47.564857+01:00 by Eclipse SUMO netedit v1_27_1+0118-a1b5cc81c39
-->

<additional xmlns:xsi="http://www.w3.org/2001/XMLSchema-instance" xsi:noNamespaceSchemaLocation="http://sumo.dlr.de/xsd/additional_file.xsd">
    <!-- Detectors -->
    <inductionLoop id="e1_0" lane="E0_1" pos="69.21" period="300.00" file="e1_0.xml"/>
    <inductionLoop id="e1_1" lane="E0_2" pos="68.98" period="300.00" file="e1_1.xml"/>
    <inductionLoop id="e1_2" lane="E0_0" pos="69.45" period="300.00" file="e1_2.xml"/>
    <inductionLoop id="e1_3" lane="E1_3" pos="75.26" period="300.00" file="e1_3.xml"/>
    <inductionLoop id="e1_4" lane="E1_0" pos="75.26" period="300.00" file="e1_4.xml"/>
</additional>
