<?xml version="1.0" encoding="UTF-8"?>

<!-- generated on 2025-06-11 08:06:23 by Eclipse SUMO netconvert Version v1_23_1+0491-30eb08d3e63
<netconvertConfiguration xmlns:xsi="http://www.w3.org/2001/XMLSchema-instance" xsi:noNamespaceSchemaLocation="http://sumo.dlr.de/xsd/netconvertConfiguration.xsd">

    <input>
        <sumo-net-file value="small.net.xml"/>
    </input>

    <output>
        <plain-output-prefix value="input_plain"/>
    </output>

    <processing>
        <numerical-ids.node-start value="0"/>
        <numerical-ids.edge-start value="100"/>
        <geometry.min-radius.fix.railways value="false"/>
        <geometry.avoid-overlap value="false"/>
        <geometry.max-grade.fix value="false"/>
        <offset.disable-normalization value="true"/>
        <lefthand value="0"/>
    </processing>

    <junctions>
        <no-turnarounds value="true"/>
        <junctions.corner-detail value="5"/>
        <junctions.internal-link-detail value="8"/>
        <junctions.limit-turn-speed value="5.50"/>
        <rectangular-lane-cut value="0"/>
    </junctions>

    <pedestrian>
        <walkingareas value="1"/>
    </pedestrian>

</netconvertConfiguration>
-->

<nodes version="1.20" xmlns:xsi="http://www.w3.org/2001/XMLSchema-instance" xsi:noNamespaceSchemaLocation="http://sumo.dlr.de/xsd/nodes_file.xsd">
    <location netOffset="-388091.80,-5257586.90" convBoundary="-103336.83,-137803.93,-103104.83,-137641.58" origBoundary="7.512361,47.463210,7.757939,47.611960" projParameter="+proj=utm +zone=32 +ellps=WGS84 +datum=WGS84 +units=m +no_defs"/>

    <node id="0" x="-103237.09" y="-137751.87" z="424.14" type="left_before_right" shape="-103233.30,-137746.81,424.14 -103227.67,-137748.83,424.14 -103228.90,-137753.33,424.14 -103228.79,-137756.16,424.14 -103232.82,-137755.87,424.14 -103235.81,-137757.55,424.14 -103241.21,-137759.05,424.14 -103240.97,-137752.20,424.14 -103237.90,-137751.90,424.14 -103234.86,-137749.94,424.14" radius="5.00"/>
    <node id="1" x="-103238.97" y="-137803.93" z="423.31" type="dead_end" radius="5.00"/>
    <node id="2" x="-103109.36" y="-137641.58" z="424.52" type="dead_end" radius="5.00"/>
    <node id="3" x="-103181.12" y="-137712.97" z="424.76" type="left_before_right" shape="-103173.62,-137709.92,424.76 -103173.11,-137712.13,424.76 -103171.18,-137713.70,424.76 -103172.34,-137715.69,424.76 -103174.32,-137717.29,424.76 -103178.27,-137720.23,424.76 -103181.80,-137720.31,424.76 -103184.41,-137715.18,424.76 -103181.36,-137713.48,424.76 -103180.00,-137711.55,424.76 -103178.33,-137708.96,424.76" radius="5.00"/>
    <node id="4" x="-103104.83" y="-137714.68" z="424.25" type="dead_end" radius="5.00"/>
    <node id="5" x="-103179.89" y="-137700.46" z="424.61" type="left_before_right" shape="-103175.81,-137690.45,424.61 -103168.32,-137698.93,424.61 -103170.13,-137700.28,424.61 -103171.88,-137701.80,424.61 -103173.35,-137703.90,424.61 -103173.68,-137706.59,424.61 -103179.08,-137705.65,424.61 -103179.69,-137702.93,424.61 -103181.38,-137700.16,424.61 -103184.56,-137698.43,424.61 -103185.31,-137692.74,424.61 -103182.66,-137692.44,424.61 -103178.33,-137691.50,424.61" radius="5.00"/>
    <node id="6" x="-103336.83" y="-137790.86" z="422.75" type="dead_end" radius="5.00"/>
    <node id="7" x="-103249.67" y="-137748.23" z="424.08" type="left_before_right" shape="-103247.62,-137749.37,424.08 -103244.66,-137751.58,424.08 -103241.84,-137751.87,424.08 -103242.72,-137757.88,424.08 -103246.10,-137757.70,424.08 -103249.10,-137757.79,424.08 -103251.89,-137758.04,424.08 -103252.76,-137754.47,424.08 -103256.61,-137748.77,424.08 -103258.48,-137746.43,424.08 -103256.90,-137745.08,424.08 -103256.03,-137742.30,424.08 -103255.57,-137740.03,424.08 -103248.77,-137737.87,424.08" radius="5.00"/>
    <node id="8" x="-103232.53" y="-137738.38" z="424.40" type="left_before_right" shape="-103229.22,-137733.97,424.40 -103225.92,-137738.19,424.40 -103224.10,-137739.91,424.40 -103225.41,-137742.44,424.40 -103226.49,-137744.35,424.40 -103227.10,-137746.54,424.40 -103232.45,-137744.72,424.40 -103232.23,-137742.55,424.40 -103233.83,-137738.28,424.40 -103236.87,-137735.55,424.40 -103238.40,-137734.09,424.40 -103242.64,-137734.36,424.40 -103240.43,-137729.69,424.40 -103236.93,-137729.83,424.40 -103233.56,-137730.03,424.40" radius="5.00"/>
    <node id="9" x="-103194.93" y="-137712.82" z="424.89" type="left_before_right" shape="-103193.39,-137712.75,424.89 -103190.86,-137714.70,424.89 -103186.91,-137715.31,424.89 -103186.97,-137721.24,424.89 -103190.63,-137721.52,424.89 -103194.77,-137722.08,424.89 -103197.79,-137718.90,424.89 -103200.27,-137716.09,424.89 -103202.95,-137712.30,424.89 -103204.94,-137708.03,424.89 -103203.03,-137704.42,424.89 -103201.79,-137700.86,424.89 -103195.31,-137702.62,424.89 -103196.39,-137705.54,424.89 -103196.22,-137707.81,424.89 -103194.98,-137711.55,424.89" radius="5.00"/>
</nodes>
