<?xml version="1.0" encoding="UTF-8"?>

<!-- generated on 2022-12-04 16:29:39 by Eclipse SUMO sumo Version v1_15_0+0751-db72905
This data file and the accompanying materials
are made available under the terms of the Eclipse Public License v2.0
which accompanies this distribution, and is available at
http://www.eclipse.org/legal/epl-v20.html
This file may also be made available under the following Secondary
Licenses when the conditions for such availability set forth in the Eclipse
Public License 2.0 are satisfied: GNU General Public License, version 2
or later which is available at
https://www.gnu.org/licenses/old-licenses/gpl-2.0-standalone.html
SPDX-License-Identifier: EPL-2.0 OR GPL-2.0-or-later
<configuration xmlns:xsi="http://www.w3.org/2001/XMLSchema-instance" xsi:noNamespaceSchemaLocation="http://sumo.dlr.de/xsd/sumoConfiguration.xsd">

    <input>
        <net-file value="net.net.xml"/>
        <route-files value="input_routes.rou.xml"/>
    </input>

    <output>
        <write-license value="true"/>
        <lanechange-output value="lanechanges.xml"/>
    </output>

    <processing>
        <lateral-resolution value="0.8"/>
        <default.speeddev value="0"/>
    </processing>

    <report>
        <xml-validation value="never"/>
        <duration-log.statistics value="true"/>
        <no-step-log value="true"/>
    </report>

</configuration>
-->

<lanechanges>
    <change id="c_l.0" type="DEFAULT_VEHTYPE" time="9.00" from="gneE4b_1" to="gneE4b_2" dir="1" speed="6.14" pos="16.78" reason="strategic|urgent" leaderGap="None" leaderSecureGap="None" leaderSpeed="None" followerGap="None" followerSecureGap="None" followerSpeed="None" origLeaderGap="19.44" origLeaderSecureGap="0.00" origLeaderSpeed="10.94" latGap="None"/>
    <change id="b_s.0" type="vehDistCyc" time="10.00" from="gneE4c_0" to="gneE4c_1" dir="1" speed="4.10" pos="8.19" reason="strategic|urgent" leaderGap="None" leaderSecureGap="None" leaderSpeed="None" followerGap="7.04" followerSecureGap="0.00" followerSpeed="0.53" origLeaderGap="None" origLeaderSecureGap="None" origLeaderSpeed="None" latGap="None"/>
    <change id="c_l.1" type="DEFAULT_VEHTYPE" time="16.00" from="gneE4b_1" to="gneE4b_2" dir="1" speed="6.32" pos="18.22" reason="strategic|urgent" leaderGap="41.40" leaderSecureGap="8.15" leaderSpeed="0.21" followerGap="None" followerSecureGap="None" followerSpeed="None" origLeaderGap="25.00" origLeaderSecureGap="8.15" origLeaderSpeed="4.35" latGap="None"/>
    <change id="b_s.1" type="vehDistCyc" time="17.00" from="gneE4c_0" to="gneE4c_1" dir="1" speed="0.23" pos="6.41" reason="strategic|urgent" leaderGap="1.28" leaderSecureGap="0.00" leaderSpeed="0.00" followerGap="2.51" followerSecureGap="0.00" followerSpeed="0.00" origLeaderGap="None" origLeaderSecureGap="None" origLeaderSpeed="None" latGap="None"/>
    <change id="c_l.2" type="DEFAULT_VEHTYPE" time="28.00" from="gneE4b_1" to="gneE4b_2" dir="1" speed="3.84" pos="11.42" reason="strategic|urgent" leaderGap="40.77" leaderSecureGap="3.84" leaderSpeed="0.00" followerGap="None" followerSecureGap="None" followerSpeed="None" origLeaderGap="10.11" origLeaderSecureGap="3.84" origLeaderSpeed="2.76" latGap="None"/>
    <change id="b_l.0" type="vehDistCyc" time="32.00" from="gneE4c_0" to="gneE4c_1" dir="1" speed="0.00" pos="2.30" reason="strategic|urgent" leaderGap="0.74" leaderSecureGap="0.00" leaderSpeed="2.94" followerGap="3.58" followerSecureGap="2.65" followerSpeed="2.65" origLeaderGap="None" origLeaderSecureGap="None" origLeaderSpeed="None" latGap="None"/>
    <change id="b_l.1" type="vehDistCyc" time="36.00" from="gneE4c_0" to="gneE4c_1" dir="1" speed="0.00" pos="3.49" reason="strategic|urgent" leaderGap="None" leaderSecureGap="None" leaderSpeed="None" followerGap="3.55" followerSecureGap="0.00" followerSpeed="0.00" origLeaderGap="None" origLeaderSecureGap="None" origLeaderSpeed="None" latGap="1.95"/>
    <change id="b_l.0" type="vehDistCyc" time="37.00" from="gneE4c_1" to="gneE4c_2" dir="1" speed="1.64" pos="6.41" reason="strategic|urgent" leaderGap="16.89" leaderSecureGap="0.00" leaderSpeed="7.12" followerGap="7.78" followerSecureGap="1.53" followerSpeed="1.53" origLeaderGap="None" origLeaderSecureGap="None" origLeaderSpeed="None" latGap="None"/>
    <change id="b_s.2" type="vehDistCyc" time="39.00" from="gneE4c_0" to="gneE4c_1" dir="1" speed="0.86" pos="8.75" reason="strategic|urgent" leaderGap="None" leaderSecureGap="None" leaderSpeed="None" followerGap="7.80" followerSecureGap="0.00" followerSpeed="0.30" origLeaderGap="None" origLeaderSecureGap="None" origLeaderSpeed="None" latGap="None"/>
    <change id="b_l.1" type="vehDistCyc" time="39.00" from="gneE4c_1" to="gneE4c_2" dir="1" speed="0.73" pos="4.22" reason="strategic|urgent" leaderGap="5.21" leaderSecureGap="0.73" leaderSpeed="2.74" followerGap="None" followerSecureGap="None" followerSpeed="None" origLeaderGap="2.93" origLeaderSecureGap="0.73" origLeaderSpeed="0.86" latGap="None"/>
    <change id="c_l.3" type="DEFAULT_VEHTYPE" time="41.00" from="gneE4b_1" to="gneE4b_2" dir="1" speed="2.05" pos="8.85" reason="strategic|urgent" leaderGap="51.87" leaderSecureGap="2.05" leaderSpeed="2.68" followerGap="None" followerSecureGap="None" followerSpeed="None" origLeaderGap="3.71" origLeaderSecureGap="2.05" origLeaderSpeed="0.20" latGap="None"/>
    <change id="b_s.3" type="vehDistCyc" time="42.00" from="gneE4c_0" to="gneE4c_1" dir="1" speed="1.68" pos="8.48" reason="strategic|urgent" leaderGap="6.50" leaderSecureGap="0.00" leaderSpeed="3.61" followerGap="5.39" followerSecureGap="2.14" followerSpeed="2.14" origLeaderGap="None" origLeaderSecureGap="None" origLeaderSpeed="None" latGap="None"/>
    <change id="b_s.4" type="vehDistCyc" time="46.00" from="gneE4c_0" to="gneE4c_1" dir="1" speed="2.06" pos="8.26" reason="strategic|urgent" leaderGap="7.00" leaderSecureGap="1.77" leaderSpeed="3.29" followerGap="3.78" followerSecureGap="0.00" followerSpeed="0.00" origLeaderGap="None" origLeaderSecureGap="None" origLeaderSpeed="None" latGap="None"/>
    <change id="b_s.5" type="vehDistCyc" time="48.00" from="gneE4c_0" to="gneE4c_1" dir="1" speed="0.00" pos="2.89" reason="strategic|urgent" leaderGap="11.23" leaderSecureGap="0.00" leaderSpeed="4.22" followerGap="0.97" followerSecureGap="0.00" followerSpeed="0.00" origLeaderGap="None" origLeaderSecureGap="None" origLeaderSpeed="None" latGap="None"/>
    <change id="b_l.2" type="vehDistCyc" time="55.00" from="gneE4c_0" to="gneE4c_1" dir="1" speed="0.00" pos="0.31" reason="strategic|urgent" leaderGap="None" leaderSecureGap="None" leaderSpeed="None" followerGap="46.25" followerSecureGap="1.51" followerSpeed="1.51" origLeaderGap="0.22" origLeaderSecureGap="0.00" origLeaderSpeed="0.00" latGap="None"/>
    <change id="b_l.2" type="vehDistCyc" time="61.00" from="gneE4c_1" to="gneE4c_2" dir="1" speed="0.58" pos="7.83" reason="strategic|urgent" leaderGap="None" leaderSecureGap="None" leaderSpeed="None" followerGap="None" followerSecureGap="None" followerSpeed="None" origLeaderGap="None" origLeaderSecureGap="None" origLeaderSpeed="None" latGap="None"/>
    <change id="b_s.7" type="vehDistCyc" time="63.00" from="gneE4c_0" to="gneE4c_1" dir="1" speed="0.00" pos="0.59" reason="strategic|urgent" leaderGap="0.56" leaderSecureGap="0.00" leaderSpeed="2.78" followerGap="3.84" followerSecureGap="1.65" followerSpeed="1.65" origLeaderGap="1.09" origLeaderSecureGap="0.00" origLeaderSpeed="1.15" latGap="None"/>
    <change id="c_l.4" type="DEFAULT_VEHTYPE" time="65.00" from="gneE4b_1" to="gneE4b_2" dir="1" speed="1.41" pos="8.96" reason="strategic|urgent" leaderGap="None" leaderSecureGap="None" leaderSpeed="None" followerGap="None" followerSecureGap="None" followerSpeed="None" origLeaderGap="4.61" origLeaderSecureGap="0.38" origLeaderSpeed="1.11" latGap="None"/>
    <change id="b_l.3" type="vehDistCyc" time="96.00" from="gneE4c_0" to="gneE4c_1" dir="1" speed="0.00" pos="4.02" reason="strategic|urgent" leaderGap="None" leaderSecureGap="None" leaderSpeed="None" followerGap="0.60" followerSecureGap="0.00" followerSpeed="0.00" origLeaderGap="None" origLeaderSecureGap="None" origLeaderSpeed="None" latGap="None"/>
    <change id="b_l.3" type="vehDistCyc" time="99.00" from="gneE4c_1" to="gneE4c_2" dir="1" speed="0.79" pos="6.91" reason="strategic|urgent" leaderGap="None" leaderSecureGap="None" leaderSpeed="None" followerGap="None" followerSecureGap="None" followerSpeed="None" origLeaderGap="None" origLeaderSecureGap="None" origLeaderSpeed="None" latGap="None"/>
    <change id="b_s.6" type="vehDistCyc" time="100.00" from="gneE4c_0" to="gneE4c_1" dir="1" speed="1.52" pos="8.24" reason="strategic|urgent" leaderGap="None" leaderSecureGap="None" leaderSpeed="None" followerGap="2.82" followerSecureGap="1.56" followerSpeed="1.56" origLeaderGap="None" origLeaderSecureGap="None" origLeaderSpeed="None" latGap="2.75"/>
    <change id="b_l.4" type="vehDistCyc" time="103.00" from="gneE4c_0" to="gneE4c_1" dir="1" speed="0.00" pos="3.32" reason="strategic|urgent" leaderGap="5.14" leaderSecureGap="0.00" leaderSpeed="2.98" followerGap="13.34" followerSecureGap="1.68" followerSpeed="1.68" origLeaderGap="None" origLeaderSecureGap="None" origLeaderSpeed="None" latGap="None"/>
    <change id="b_l.4" type="vehDistCyc" time="107.00" from="gneE4c_1" to="gneE4c_2" dir="1" speed="1.11" pos="6.74" reason="strategic|urgent" leaderGap="None" leaderSecureGap="None" leaderSpeed="None" followerGap="None" followerSecureGap="None" followerSpeed="None" origLeaderGap="None" origLeaderSecureGap="None" origLeaderSpeed="None" latGap="None"/>
    <change id="b_s.9" type="vehDistCyc" time="107.00" from="gneE4c_0" to="gneE4c_1" dir="1" speed="3.16" pos="5.14" reason="strategic|urgent" leaderGap="None" leaderSecureGap="None" leaderSpeed="None" followerGap="12.47" followerSecureGap="0.00" followerSpeed="0.31" origLeaderGap="4.69" origLeaderSecureGap="2.29" origLeaderSpeed="4.03" latGap="2.20"/>
    <change id="b_s.8" type="vehDistCyc" time="111.00" from="gneE4c_0" to="gneE4c_1" dir="1" speed="3.12" pos="9.64" reason="strategic|urgent" leaderGap="14.03" leaderSecureGap="0.76" leaderSpeed="5.47" followerGap="6.89" followerSecureGap="0.00" followerSpeed="0.00" origLeaderGap="None" origLeaderSecureGap="None" origLeaderSpeed="None" latGap="None"/>
    <change id="c_l.5" type="DEFAULT_VEHTYPE" time="111.00" from="gneE4b_1" to="gneE4b_2" dir="1" speed="1.57" pos="7.42" reason="speedGain" leaderGap="None" leaderSecureGap="None" leaderSpeed="None" followerGap="None" followerSecureGap="None" followerSpeed="None" origLeaderGap="3.38" origLeaderSecureGap="1.57" origLeaderSpeed="0.41" latGap="None"/>
    <change id="b_s.11" type="vehDistCyc" time="114.00" from="gneE4c_0" to="gneE4c_1" dir="1" speed="0.00" pos="7.80" reason="strategic|urgent" leaderGap="1.76" leaderSecureGap="0.00" leaderSpeed="4.15" followerGap="5.05" followerSecureGap="0.00" followerSpeed="0.00" origLeaderGap="None" origLeaderSecureGap="None" origLeaderSpeed="None" latGap="None"/>
    <change id="b_l.6" type="vehDistCyc" time="118.00" from="gneE4c_0" to="gneE4c_1" dir="1" speed="0.00" pos="3.79" reason="strategic|urgent" leaderGap="None" leaderSecureGap="None" leaderSpeed="None" followerGap="1.03" followerSecureGap="0.00" followerSpeed="0.00" origLeaderGap="None" origLeaderSecureGap="None" origLeaderSpeed="None" latGap="None"/>
    <change id="b_s.12" type="vehDistCyc" time="121.00" from="gneE4c_0" to="gneE4c_1" dir="1" speed="0.42" pos="9.58" reason="strategic|urgent" leaderGap="None" leaderSecureGap="None" leaderSpeed="None" followerGap="3.51" followerSecureGap="0.00" followerSpeed="0.00" origLeaderGap="None" origLeaderSecureGap="None" origLeaderSpeed="None" latGap="None"/>
    <change id="b_s.13" type="vehDistCyc" time="125.00" from="gneE4c_0" to="gneE4c_1" dir="1" speed="1.51" pos="10.11" reason="strategic|urgent" leaderGap="8.84" leaderSecureGap="0.19" leaderSpeed="4.32" followerGap="7.36" followerSecureGap="0.00" followerSpeed="0.00" origLeaderGap="None" origLeaderSecureGap="None" origLeaderSpeed="None" latGap="None"/>
    <change id="b_l.6" type="vehDistCyc" time="125.00" from="gneE4c_1" to="gneE4c_2" dir="1" speed="0.00" pos="8.25" reason="strategic|urgent" leaderGap="None" leaderSecureGap="None" leaderSpeed="None" followerGap="63.77" followerSecureGap="1.72" followerSpeed="1.72" origLeaderGap="0.26" origLeaderSecureGap="0.00" origLeaderSpeed="1.51" latGap="None"/>
    <change id="c_l.6" type="DEFAULT_VEHTYPE" time="125.00" from="gneE4b_1" to="gneE4b_2" dir="1" speed="1.72" pos="7.39" reason="cooperative|urgent" leaderGap="None" leaderSecureGap="None" leaderSpeed="None" followerGap="None" followerSecureGap="None" followerSpeed="None" origLeaderGap="4.35" origLeaderSecureGap="1.72" origLeaderSpeed="1.59" latGap="None"/>
    <change id="b_s.14" type="vehDistCyc" time="130.00" from="gneE4c_0" to="gneE4c_1" dir="1" speed="0.00" pos="5.50" reason="strategic|urgent" leaderGap="0.91" leaderSecureGap="0.00" leaderSpeed="0.00" followerGap="2.75" followerSecureGap="0.00" followerSpeed="0.00" origLeaderGap="None" origLeaderSecureGap="None" origLeaderSpeed="None" latGap="None"/>
    <change id="b_s.10" type="vehDistCyc" time="131.00" from="gneE4c_0" to="gneE4c_1" dir="1" speed="0.00" pos="8.01" reason="strategic|urgent" leaderGap="0.50" leaderSecureGap="0.00" leaderSpeed="0.00" followerGap="0.60" followerSecureGap="0.30" followerSpeed="0.30" origLeaderGap="None" origLeaderSecureGap="None" origLeaderSpeed="None" latGap="None"/>
    <change id="b_l.5" type="vehDistCyc" time="158.00" from="gneE4c_0" to="gneE4c_1" dir="1" speed="0.00" pos="1.15" reason="cooperative|urgent" leaderGap="None" leaderSecureGap="None" leaderSpeed="None" followerGap="13.39" followerSecureGap="0.97" followerSpeed="0.97" origLeaderGap="None" origLeaderSecureGap="None" origLeaderSpeed="None" latGap="None"/>
    <change id="b_l.7" type="vehDistCyc" time="162.00" from="gneE4c_0" to="gneE4c_1" dir="1" speed="1.00" pos="3.71" reason="strategic|urgent" leaderGap="6.27" leaderSecureGap="1.00" leaderSpeed="3.32" followerGap="11.07" followerSecureGap="0.00" followerSpeed="0.10" origLeaderGap="None" origLeaderSecureGap="None" origLeaderSpeed="None" latGap="1.95"/>
    <change id="b_l.5" type="vehDistCyc" time="163.00" from="gneE4c_1" to="gneE4c_2" dir="1" speed="1.82" pos="6.42" reason="strategic|urgent" leaderGap="None" leaderSecureGap="None" leaderSpeed="None" followerGap="None" followerSecureGap="None" followerSpeed="None" origLeaderGap="None" origLeaderSecureGap="None" origLeaderSpeed="None" latGap="None"/>
    <change id="b_l.7" type="vehDistCyc" time="165.00" from="gneE4c_1" to="gneE4c_2" dir="1" speed="1.04" pos="4.76" reason="strategic|urgent" leaderGap="4.37" leaderSecureGap="1.04" leaderSpeed="2.50" followerGap="None" followerSecureGap="None" followerSpeed="None" origLeaderGap="None" origLeaderSecureGap="None" origLeaderSpeed="None" latGap="None"/>
    <change id="c_l.7" type="DEFAULT_VEHTYPE" time="178.00" from="gneE4b_1" to="gneE4b_2" dir="1" speed="3.04" pos="10.84" reason="strategic|urgent" leaderGap="None" leaderSecureGap="None" leaderSpeed="None" followerGap="None" followerSecureGap="None" followerSpeed="None" origLeaderGap="8.98" origLeaderSecureGap="2.80" origLeaderSpeed="4.75" latGap="None"/>
</lanechanges>
