<?xml version="1.0" encoding="UTF-8"?>

<!-- generated on 2025-12-09T10:39:57.392345+01:00 by Eclipse SUMO sumo v1_25_0+0274-0826fbe6a65
This data file and the accompanying materials
are made available under the terms of the Eclipse Public License v2.0
which accompanies this distribution, and is available at
http://www.eclipse.org/legal/epl-v20.html
This file may also be made available under the following Secondary
Licenses when the conditions for such availability set forth in the Eclipse
Public License 2.0 are satisfied: GNU General Public License, version 2
or later which is available at
https://www.gnu.org/licenses/old-licenses/gpl-2.0-standalone.html
SPDX-License-Identifier: EPL-2.0 OR GPL-2.0-or-later
<sumoConfiguration xmlns:xsi="http://www.w3.org/2001/XMLSchema-instance" xsi:noNamespaceSchemaLocation="http://sumo.dlr.de/xsd/sumoConfiguration.xsd">

    <input>
        <net-file value="net.net.xml"/>
        <route-files value="input_routes.rou.xml"/>
    </input>

    <output>
        <write-license value="true"/>
        <lanechange-output value="lanechanges.xml"/>
    </output>

    <processing>
        <lateral-resolution value="0.8"/>
        <default.speeddev value="0"/>
    </processing>

    <report>
        <xml-validation value="never"/>
        <duration-log.statistics value="true"/>
        <no-step-log value="true"/>
    </report>

</sumoConfiguration>
-->

<lanechanges>
    <change id="c_l.0" type="DEFAULT_VEHTYPE" time="9.00" from="gneE4b_1" to="gneE4b_2" dir="1" speed="6.14" pos="16.78" reason="strategic|urgent" leaderGap="None" leaderSecureGap="None" leaderSpeed="None" followerGap="None" followerSecureGap="None" followerSpeed="None" origLeaderGap="19.44" origLeaderSecureGap="0.00" origLeaderSpeed="10.94" latGap="None"/>
    <change id="b_s.0" type="vehDistCyc" time="10.00" from="gneE4c_0" to="gneE4c_1" dir="1" speed="4.10" pos="8.19" reason="strategic|urgent" leaderGap="None" leaderSecureGap="None" leaderSpeed="None" followerGap="6.95" followerSecureGap="0.00" followerSpeed="0.62" origLeaderGap="None" origLeaderSecureGap="None" origLeaderSpeed="None" latGap="None"/>
    <change id="b_l.0" type="vehDistCyc" time="12.00" from="gneE4c_0" to="gneE4c_1" dir="1" speed="0.00" pos="2.30" reason="strategic|urgent" leaderGap="5.39" leaderSecureGap="0.00" leaderSpeed="0.00" followerGap="9.02" followerSecureGap="0.00" followerSpeed="1.37" origLeaderGap="None" origLeaderSecureGap="None" origLeaderSpeed="None" latGap="None"/>
    <change id="c_l.1" type="DEFAULT_VEHTYPE" time="16.00" from="gneE4b_1" to="gneE4b_2" dir="1" speed="6.32" pos="18.22" reason="strategic|urgent" leaderGap="41.40" leaderSecureGap="8.15" leaderSpeed="0.21" followerGap="None" followerSecureGap="None" followerSpeed="None" origLeaderGap="25.03" origLeaderSecureGap="8.15" origLeaderSpeed="4.37" latGap="None"/>
    <change id="b_l.0" type="vehDistCyc" time="18.00" from="gneE4c_1" to="gneE4c_2" dir="1" speed="1.26" pos="8.43" reason="strategic|urgent" leaderGap="None" leaderSecureGap="None" leaderSpeed="None" followerGap="33.25" followerSecureGap="20.07" followerSpeed="11.19" origLeaderGap="None" origLeaderSecureGap="None" origLeaderSpeed="None" latGap="None"/>
    <change id="b_s.1" type="vehDistCyc" time="19.00" from="gneE4c_0" to="gneE4c_1" dir="1" speed="0.12" pos="6.18" reason="strategic|urgent" leaderGap="1.51" leaderSecureGap="0.00" leaderSpeed="0.00" followerGap="11.90" followerSecureGap="0.07" followerSpeed="0.07" origLeaderGap="1.40" origLeaderSecureGap="0.00" origLeaderSpeed="0.00" latGap="None"/>
    <change id="b_l.1" type="vehDistCyc" time="21.00" from="gneE4c_0" to="gneE4c_1" dir="1" speed="0.00" pos="3.49" reason="strategic|urgent" leaderGap="4.20" leaderSecureGap="0.00" leaderSpeed="0.00" followerGap="9.21" followerSecureGap="0.00" followerSpeed="0.00" origLeaderGap="None" origLeaderSecureGap="None" origLeaderSpeed="None" latGap="None"/>
    <change id="b_s.2" type="vehDistCyc" time="25.00" from="gneE4c_0" to="gneE4c_1" dir="1" speed="0.00" pos="5.79" reason="strategic|urgent" leaderGap="1.90" leaderSecureGap="0.00" leaderSpeed="0.00" followerGap="11.50" followerSecureGap="0.00" followerSpeed="0.00" origLeaderGap="None" origLeaderSecureGap="None" origLeaderSpeed="None" latGap="None"/>
    <change id="b_l.1" type="vehDistCyc" time="26.00" from="gneE4c_1" to="gneE4c_2" dir="1" speed="0.00" pos="4.64" reason="strategic|urgent" leaderGap="2.95" leaderSecureGap="0.00" leaderSpeed="0.00" followerGap="10.35" followerSecureGap="0.00" followerSpeed="0.00" origLeaderGap="None" origLeaderSecureGap="None" origLeaderSpeed="None" latGap="None"/>
    <change id="c_l.2" type="DEFAULT_VEHTYPE" time="28.00" from="gneE4b_1" to="gneE4b_2" dir="1" speed="3.84" pos="11.42" reason="strategic|urgent" leaderGap="40.77" leaderSecureGap="3.84" leaderSpeed="0.00" followerGap="None" followerSecureGap="None" followerSpeed="None" origLeaderGap="10.11" origLeaderSecureGap="3.84" origLeaderSpeed="2.76" latGap="None"/>
    <change id="b_s.3" type="vehDistCyc" time="33.00" from="gneE4c_0" to="gneE4c_1" dir="1" speed="1.02" pos="5.38" reason="strategic|urgent" leaderGap="5.97" leaderSecureGap="1.02" leaderSpeed="2.84" followerGap="5.79" followerSecureGap="0.00" followerSpeed="0.98" origLeaderGap="None" origLeaderSecureGap="None" origLeaderSpeed="None" latGap="1.15"/>
    <change id="b_s.4" type="vehDistCyc" time="37.00" from="gneE4c_0" to="gneE4c_1" dir="1" speed="0.15" pos="9.91" reason="strategic|urgent" leaderGap="19.36" leaderSecureGap="0.00" leaderSpeed="5.35" followerGap="2.17" followerSecureGap="0.75" followerSpeed="0.75" origLeaderGap="None" origLeaderSecureGap="None" origLeaderSpeed="None" latGap="None"/>
    <change id="c_l.3" type="DEFAULT_VEHTYPE" time="41.00" from="gneE4b_1" to="gneE4b_2" dir="1" speed="1.75" pos="8.58" reason="strategic|urgent" leaderGap="None" leaderSecureGap="None" leaderSpeed="None" followerGap="None" followerSecureGap="None" followerSpeed="None" origLeaderGap="3.74" origLeaderSecureGap="1.75" origLeaderSpeed="0.23" latGap="None"/>
    <change id="b_s.5" type="vehDistCyc" time="46.00" from="gneE4c_0" to="gneE4c_1" dir="1" speed="0.00" pos="10.18" reason="strategic|urgent" leaderGap="4.37" leaderSecureGap="0.00" leaderSpeed="6.28" followerGap="6.64" followerSecureGap="0.00" followerSpeed="0.00" origLeaderGap="None" origLeaderSecureGap="None" origLeaderSpeed="None" latGap="None"/>
    <change id="b_l.2" type="vehDistCyc" time="46.00" from="gneE4c_0" to="gneE4c_1" dir="1" speed="0.00" pos="0.23" reason="strategic|urgent" leaderGap="8.35" leaderSecureGap="0.00" leaderSpeed="0.00" followerGap="5.16" followerSecureGap="1.41" followerSpeed="1.41" origLeaderGap="None" origLeaderSecureGap="None" origLeaderSpeed="None" latGap="1.15"/>
    <change id="b_l.3" type="vehDistCyc" time="48.00" from="gneE4c_0" to="gneE4c_1" dir="1" speed="0.00" pos="3.56" reason="strategic|urgent" leaderGap="None" leaderSecureGap="None" leaderSpeed="None" followerGap="1.73" followerSecureGap="0.00" followerSpeed="0.00" origLeaderGap="None" origLeaderSecureGap="None" origLeaderSpeed="None" latGap="1.15"/>
    <change id="b_s.6" type="vehDistCyc" time="52.00" from="gneE4c_0" to="gneE4c_1" dir="1" speed="0.00" pos="3.01" reason="strategic|urgent" leaderGap="22.61" leaderSecureGap="0.00" leaderSpeed="5.29" followerGap="12.79" followerSecureGap="0.27" followerSpeed="0.27" origLeaderGap="None" origLeaderSecureGap="None" origLeaderSpeed="None" latGap="1.95"/>
    <change id="b_l.2" type="vehDistCyc" time="53.00" from="gneE4c_1" to="gneE4c_2" dir="1" speed="0.39" pos="5.15" reason="strategic|urgent" leaderGap="12.68" leaderSecureGap="0.00" leaderSpeed="6.83" followerGap="None" followerSecureGap="None" followerSpeed="None" origLeaderGap="None" origLeaderSecureGap="None" origLeaderSpeed="None" latGap="None"/>
    <change id="b_l.3" type="vehDistCyc" time="54.00" from="gneE4c_1" to="gneE4c_2" dir="1" speed="0.50" pos="8.50" reason="strategic|urgent" leaderGap="16.47" leaderSecureGap="0.00" leaderSpeed="7.15" followerGap="1.08" followerSecureGap="0.67" followerSpeed="0.67" origLeaderGap="None" origLeaderSecureGap="None" origLeaderSpeed="None" latGap="None"/>
    <change id="b_s.7" type="vehDistCyc" time="57.00" from="gneE4c_0" to="gneE4c_1" dir="1" speed="0.92" pos="6.89" reason="strategic|urgent" leaderGap="10.46" leaderSecureGap="0.00" leaderSpeed="5.40" followerGap="19.37" followerSecureGap="1.63" followerSpeed="1.63" origLeaderGap="None" origLeaderSecureGap="None" origLeaderSpeed="None" latGap="None"/>
    <change id="b_l.4" type="vehDistCyc" time="59.00" from="gneE4c_0" to="gneE4c_1" dir="1" speed="0.00" pos="3.01" reason="strategic|urgent" leaderGap="6.33" leaderSecureGap="0.00" leaderSpeed="2.49" followerGap="14.82" followerSecureGap="0.00" followerSpeed="0.10" origLeaderGap="None" origLeaderSecureGap="None" origLeaderSpeed="None" latGap="1.15"/>
    <change id="b_s.8" type="vehDistCyc" time="64.00" from="gneE4c_0" to="gneE4c_1" dir="1" speed="0.55" pos="9.03" reason="strategic|urgent" leaderGap="23.91" leaderSecureGap="0.00" leaderSpeed="5.44" followerGap="2.23" followerSecureGap="1.14" followerSpeed="1.14" origLeaderGap="None" origLeaderSecureGap="None" origLeaderSpeed="None" latGap="None"/>
    <change id="b_l.4" type="vehDistCyc" time="67.00" from="gneE4c_1" to="gneE4c_2" dir="1" speed="1.15" pos="8.04" reason="strategic|urgent" leaderGap="42.92" leaderSecureGap="0.00" leaderSpeed="5.35" followerGap="None" followerSecureGap="None" followerSpeed="None" origLeaderGap="None" origLeaderSecureGap="None" origLeaderSpeed="None" latGap="None"/>
    <change id="b_s.9" type="vehDistCyc" time="71.00" from="gneE4c_0" to="gneE4c_1" dir="1" speed="2.44" pos="5.84" reason="strategic|urgent" leaderGap="1.75" leaderSecureGap="0.00" leaderSpeed="0.00" followerGap="11.55" followerSecureGap="0.00" followerSpeed="0.00" origLeaderGap="None" origLeaderSecureGap="None" origLeaderSpeed="None" latGap="None"/>
    <change id="b_l.5" type="vehDistCyc" time="73.00" from="gneE4c_0" to="gneE4c_1" dir="1" speed="0.00" pos="4.67" reason="strategic|urgent" leaderGap="2.92" leaderSecureGap="0.00" leaderSpeed="0.00" followerGap="10.38" followerSecureGap="0.00" followerSpeed="0.00" origLeaderGap="None" origLeaderSecureGap="None" origLeaderSpeed="None" latGap="None"/>
    <change id="b_s.10" type="vehDistCyc" time="75.00" from="gneE4c_0" to="gneE4c_1" dir="1" speed="3.27" pos="5.71" reason="strategic|urgent" leaderGap="1.88" leaderSecureGap="1.32" leaderSpeed="0.00" followerGap="11.42" followerSecureGap="0.00" followerSpeed="0.00" origLeaderGap="None" origLeaderSecureGap="None" origLeaderSpeed="None" latGap="None"/>
    <change id="b_l.5" type="vehDistCyc" time="77.00" from="gneE4c_1" to="gneE4c_2" dir="1" speed="0.00" pos="4.67" reason="strategic|urgent" leaderGap="2.92" leaderSecureGap="0.00" leaderSpeed="0.00" followerGap="None" followerSecureGap="None" followerSpeed="None" origLeaderGap="0.80" origLeaderSecureGap="0.00" origLeaderSpeed="0.26" latGap="None"/>
    <change id="b_s.11" type="vehDistCyc" time="81.00" from="gneE4c_0" to="gneE4c_1" dir="1" speed="3.25" pos="3.98" reason="strategic|urgent" leaderGap="3.61" leaderSecureGap="1.31" leaderSpeed="0.00" followerGap="9.69" followerSecureGap="0.00" followerSpeed="0.00" origLeaderGap="None" origLeaderSecureGap="None" origLeaderSpeed="None" latGap="None"/>
    <change id="b_s.12" type="vehDistCyc" time="96.00" from="gneE4c_0" to="gneE4c_1" dir="1" speed="0.00" pos="6.88" reason="strategic|urgent" leaderGap="3.61" leaderSecureGap="0.00" leaderSpeed="2.53" followerGap="5.09" followerSecureGap="0.00" followerSpeed="0.00" origLeaderGap="None" origLeaderSecureGap="None" origLeaderSpeed="None" latGap="None"/>
    <change id="b_l.6" type="vehDistCyc" time="97.00" from="gneE4c_0" to="gneE4c_1" dir="1" speed="0.00" pos="3.02" reason="strategic|urgent" leaderGap="3.43" leaderSecureGap="0.00" leaderSpeed="1.16" followerGap="8.73" followerSecureGap="0.00" followerSpeed="0.00" origLeaderGap="None" origLeaderSecureGap="None" origLeaderSpeed="None" latGap="None"/>
    <change id="b_s.13" type="vehDistCyc" time="100.00" from="gneE4c_0" to="gneE4c_1" dir="1" speed="1.28" pos="8.67" reason="strategic|urgent" leaderGap="7.47" leaderSecureGap="0.01" leaderSpeed="4.27" followerGap="2.22" followerSecureGap="0.71" followerSpeed="0.71" origLeaderGap="None" origLeaderSecureGap="None" origLeaderSpeed="None" latGap="None"/>
    <change id="b_s.14" type="vehDistCyc" time="101.00" from="gneE4c_0" to="gneE4c_1" dir="1" speed="5.15" pos="0.43" reason="strategic|urgent" leaderGap="4.36" leaderSecureGap="7.30" leaderSpeed="1.55" followerGap="13.64" followerSecureGap="0.00" followerSpeed="0.00" origLeaderGap="None" origLeaderSecureGap="None" origLeaderSpeed="None" latGap="1.35"/>
    <change id="b_l.6" type="vehDistCyc" time="105.00" from="gneE4c_1" to="gneE4c_2" dir="1" speed="0.52" pos="9.63" reason="strategic|urgent" leaderGap="52.38" leaderSecureGap="0.00" leaderSpeed="5.48" followerGap="None" followerSecureGap="None" followerSpeed="None" origLeaderGap="None" origLeaderSecureGap="None" origLeaderSpeed="None" latGap="None"/>
    <change id="b_l.7" type="vehDistCyc" time="110.00" from="gneE4c_0" to="gneE4c_1" dir="1" speed="0.00" pos="2.93" reason="strategic|urgent" leaderGap="2.08" leaderSecureGap="0.00" leaderSpeed="4.94" followerGap="4.95" followerSecureGap="2.37" followerSpeed="2.37" origLeaderGap="None" origLeaderSecureGap="None" origLeaderSpeed="None" latGap="None"/>
    <change id="c_l.4" type="DEFAULT_VEHTYPE" time="110.00" from="gneE4b_1" to="gneE4b_2" dir="1" speed="0.31" pos="5.55" reason="speedGain" leaderGap="None" leaderSecureGap="None" leaderSpeed="None" followerGap="None" followerSecureGap="None" followerSpeed="None" origLeaderGap="3.36" origLeaderSecureGap="0.31" origLeaderSpeed="0.65" latGap="None"/>
    <change id="b_l.7" type="vehDistCyc" time="113.00" from="gneE4c_1" to="gneE4c_2" dir="1" speed="1.83" pos="5.74" reason="strategic|urgent" leaderGap="31.26" leaderSecureGap="0.00" leaderSpeed="5.34" followerGap="55.21" followerSecureGap="4.45" followerSpeed="4.45" origLeaderGap="None" origLeaderSecureGap="None" origLeaderSpeed="None" latGap="None"/>
    <change id="c_l.5" type="DEFAULT_VEHTYPE" time="129.00" from="gneE4b_1" to="gneE4b_2" dir="1" speed="4.53" pos="12.45" reason="strategic|urgent" leaderGap="None" leaderSecureGap="None" leaderSpeed="None" followerGap="None" followerSecureGap="None" followerSpeed="None" origLeaderGap="14.03" origLeaderSecureGap="4.56" origLeaderSpeed="3.99" latGap="None"/>
    <change id="c_l.6" type="DEFAULT_VEHTYPE" time="138.00" from="gneE4b_1" to="gneE4b_2" dir="1" speed="2.47" pos="9.75" reason="strategic|urgent" leaderGap="49.94" leaderSecureGap="2.47" leaderSpeed="0.00" followerGap="None" followerSecureGap="None" followerSpeed="None" origLeaderGap="4.83" origLeaderSecureGap="2.47" origLeaderSpeed="0.07" latGap="None"/>
    <change id="c_l.7" type="DEFAULT_VEHTYPE" time="174.00" from="gneE4b_1" to="gneE4b_2" dir="1" speed="4.19" pos="11.56" reason="strategic|urgent" leaderGap="None" leaderSecureGap="None" leaderSpeed="None" followerGap="None" followerSecureGap="None" followerSpeed="None" origLeaderGap="20.73" origLeaderSecureGap="0.00" origLeaderSpeed="10.44" latGap="None"/>
</lanechanges>
