<routes>

	<vehicle id="1" depart="begin" route="1" departLane="free"/>

</routes>
