<routes>
    <vType id="t0" sigma="0" lcKeepRightAcceptanceTime="20"/>
</routes>
