<?xml version="1.0" encoding="UTF-8"?>

<!-- generated on Thu May 17 09:15:52 2018 by Eclipse SUMO netgenerate Version 356585a
This data file and the accompanying materials
are made available under the terms of the Eclipse Public License v2.0
which accompanies this distribution, and is available at
http://www.eclipse.org/legal/epl-v20.html
SPDX-License-Identifier: EPL-2.0
<configuration xmlns:xsi="http://www.w3.org/2001/XMLSchema-instance" xsi:noNamespaceSchemaLocation="http://sumo.dlr.de/xsd/netgenerateConfiguration.xsd">

    <spider_network>
        <spider value="true"/>
        <spider.arm-number value="10"/>
        <spider.circle-number value="10"/>
        <spider.space-radius value="100"/>
    </spider_network>

    <output>
        <write-license value="true"/>
        <output-file value="net.net.xml"/>
    </output>

    <processing>
        <no-internal-links value="true"/>
        <no-left-connections value="true"/>
    </processing>

    <report>
        <verbose value="true"/>
        <xml-validation value="never"/>
    </report>

</configuration>
-->

<net version="0.27" xmlns:xsi="http://www.w3.org/2001/XMLSchema-instance" xsi:noNamespaceSchemaLocation="http://sumo.dlr.de/xsd/net_file.xsd">

    <location netOffset="1000.00,951.06" convBoundary="0.00,0.00,2000.00,1902.11" origBoundary="-1000.00,-951.06,1000.00,951.06" projParameter="!"/>

    <edge id="A1B1" from="A1" to="B1" priority="-1">
        <lane id="A1B1_0" index="0" speed="13.90" length="100.00" shape="1011.35,949.46 1094.10,949.46"/>
    </edge>
    <edge id="A1B10" from="A1" to="B10" priority="-1">
        <lane id="A1B10_0" index="0" speed="13.90" length="100.00" shape="1008.24,943.09 1075.18,894.45"/>
    </edge>
    <edge id="A1B2" from="A1" to="B2" priority="-1">
        <lane id="A1B2_0" index="0" speed="13.90" length="100.00" shape="1010.12,956.43 1077.07,1005.07"/>
    </edge>
    <edge id="A1B3" from="A1" to="B3" priority="-1">
        <lane id="A1B3_0" index="0" speed="13.90" length="100.00" shape="1005.03,961.36 1030.60,1040.05"/>
    </edge>
    <edge id="A1B4" from="A1" to="B4" priority="-1">
        <lane id="A1B4_0" index="0" speed="13.90" length="100.00" shape="998.01,962.34 972.44,1041.04"/>
    </edge>
    <edge id="A1B5" from="A1" to="B5" priority="-1">
        <lane id="A1B5_0" index="0" speed="13.90" length="100.00" shape="991.76,959.02 924.82,1007.66"/>
    </edge>
    <edge id="A1B6" from="A1" to="B6" priority="-1">
        <lane id="A1B6_0" index="0" speed="13.90" length="100.00" shape="988.65,952.66 905.90,952.66"/>
    </edge>
    <edge id="A1B7" from="A1" to="B7" priority="-1">
        <lane id="A1B7_0" index="0" speed="13.90" length="100.00" shape="989.88,945.68 922.93,897.04"/>
    </edge>
    <edge id="A1B8" from="A1" to="B8" priority="-1">
        <lane id="A1B8_0" index="0" speed="13.90" length="100.00" shape="994.97,940.76 969.40,862.06"/>
    </edge>
    <edge id="A1B9" from="A1" to="B9" priority="-1">
        <lane id="A1B9_0" index="0" speed="13.90" length="100.00" shape="1001.99,939.77 1027.56,861.07"/>
    </edge>
    <edge id="B10A1" from="B10" to="A1" priority="-1">
        <lane id="B10A1_0" index="0" speed="13.90" length="100.00" shape="1077.07,897.04 1010.12,945.68"/>
    </edge>
    <edge id="B10B1" from="B10" to="B1" priority="-1">
        <lane id="B10B1_0" index="0" speed="13.90" length="61.80" shape="1084.25,897.40 1099.70,944.95"/>
    </edge>
    <edge id="B10B9" from="B10" to="B9" priority="-1">
        <lane id="B10B9_0" index="0" speed="13.90" length="61.80" shape="1075.18,890.10 1034.74,860.72"/>
    </edge>
    <edge id="B10C10" from="B10" to="C10" priority="-1">
        <lane id="B10C10_0" index="0" speed="13.90" length="100.00" shape="1083.06,888.74 1156.09,835.68"/>
    </edge>
    <edge id="B1A1" from="B1" to="A1" priority="-1">
        <lane id="B1A1_0" index="0" speed="13.90" length="100.00" shape="1094.10,952.66 1011.35,952.66"/>
    </edge>
    <edge id="B1B10" from="B1" to="B10" priority="-1">
        <lane id="B1B10_0" index="0" speed="13.90" length="61.80" shape="1096.65,945.94 1081.20,898.39"/>
    </edge>
    <edge id="B1B2" from="B1" to="B2" priority="-1">
        <lane id="B1B2_0" index="0" speed="13.90" length="61.80" shape="1099.70,957.17 1084.25,1004.71"/>
    </edge>
    <edge id="B1C1" from="B1" to="C1" priority="-1">
        <lane id="B1C1_0" index="0" speed="13.90" length="100.00" shape="1103.82,949.46 1194.10,949.46"/>
    </edge>
    <edge id="B2A1" from="B2" to="A1" priority="-1">
        <lane id="B2A1_0" index="0" speed="13.90" length="100.00" shape="1075.18,1007.66 1008.24,959.02"/>
    </edge>
    <edge id="B2B1" from="B2" to="B1" priority="-1">
        <lane id="B2B1_0" index="0" speed="13.90" length="61.80" shape="1081.20,1003.73 1096.65,956.18"/>
    </edge>
    <edge id="B2B3" from="B2" to="B3" priority="-1">
        <lane id="B2B3_0" index="0" speed="13.90" length="61.80" shape="1077.07,1014.60 1036.62,1043.99"/>
    </edge>
    <edge id="B2C2" from="B2" to="C2" priority="-1">
        <lane id="B2C2_0" index="0" speed="13.90" length="100.00" shape="1084.94,1010.79 1157.97,1063.85"/>
    </edge>
    <edge id="B3A1" from="B3" to="A1" priority="-1">
        <lane id="B3A1_0" index="0" speed="13.90" length="100.00" shape="1027.56,1041.04 1001.99,962.34"/>
    </edge>
    <edge id="B3B2" from="B3" to="B2" priority="-1">
        <lane id="B3B2_0" index="0" speed="13.90" length="61.80" shape="1034.74,1041.40 1075.18,1012.01"/>
    </edge>
    <edge id="B3B4" from="B3" to="B4" priority="-1">
        <lane id="B3B4_0" index="0" speed="13.90" length="61.80" shape="1025.00,1047.76 975.00,1047.76"/>
    </edge>
    <edge id="B3C3" from="B3" to="C3" priority="-1">
        <lane id="B3C3_0" index="0" speed="13.90" length="100.00" shape="1033.61,1049.31 1061.50,1135.16"/>
    </edge>
    <edge id="B4A1" from="B4" to="A1" priority="-1">
        <lane id="B4A1_0" index="0" speed="13.90" length="100.00" shape="969.40,1040.05 994.97,961.36"/>
    </edge>
    <edge id="B4B3" from="B4" to="B3" priority="-1">
        <lane id="B4B3_0" index="0" speed="13.90" length="61.80" shape="975.00,1044.56 1025.00,1044.56"/>
    </edge>
    <edge id="B4B5" from="B4" to="B5" priority="-1">
        <lane id="B4B5_0" index="0" speed="13.90" length="61.80" shape="963.38,1043.99 922.93,1014.60"/>
    </edge>
    <edge id="B4C4" from="B4" to="C4" priority="-1">
        <lane id="B4C4_0" index="0" speed="13.90" length="100.00" shape="969.44,1050.29 941.54,1136.15"/>
    </edge>
    <edge id="B5A1" from="B5" to="A1" priority="-1">
        <lane id="B5A1_0" index="0" speed="13.90" length="100.00" shape="922.93,1005.07 989.88,956.43"/>
    </edge>
    <edge id="B5B4" from="B5" to="B4" priority="-1">
        <lane id="B5B4_0" index="0" speed="13.90" length="61.80" shape="924.82,1012.01 965.26,1041.40"/>
    </edge>
    <edge id="B5B6" from="B5" to="B6" priority="-1">
        <lane id="B5B6_0" index="0" speed="13.90" length="61.80" shape="915.75,1004.71 900.30,957.17"/>
    </edge>
    <edge id="B5C5" from="B5" to="C5" priority="-1">
        <lane id="B5C5_0" index="0" speed="13.90" length="100.00" shape="916.94,1013.38 843.91,1066.44"/>
    </edge>
    <edge id="B6A1" from="B6" to="A1" priority="-1">
        <lane id="B6A1_0" index="0" speed="13.90" length="100.00" shape="905.90,949.46 988.65,949.46"/>
    </edge>
    <edge id="B6B5" from="B6" to="B5" priority="-1">
        <lane id="B6B5_0" index="0" speed="13.90" length="61.80" shape="903.35,956.18 918.80,1003.73"/>
    </edge>
    <edge id="B6B7" from="B6" to="B7" priority="-1">
        <lane id="B6B7_0" index="0" speed="13.90" length="61.80" shape="900.30,944.95 915.75,897.40"/>
    </edge>
    <edge id="B6C6" from="B6" to="C6" priority="-1">
        <lane id="B6C6_0" index="0" speed="13.90" length="100.00" shape="896.18,952.66 805.90,952.66"/>
    </edge>
    <edge id="B7A1" from="B7" to="A1" priority="-1">
        <lane id="B7A1_0" index="0" speed="13.90" length="100.00" shape="924.82,894.45 991.76,943.09"/>
    </edge>
    <edge id="B7B6" from="B7" to="B6" priority="-1">
        <lane id="B7B6_0" index="0" speed="13.90" length="61.80" shape="918.80,898.39 903.35,945.94"/>
    </edge>
    <edge id="B7B8" from="B7" to="B8" priority="-1">
        <lane id="B7B8_0" index="0" speed="13.90" length="61.80" shape="922.93,887.51 963.38,858.13"/>
    </edge>
    <edge id="B7C7" from="B7" to="C7" priority="-1">
        <lane id="B7C7_0" index="0" speed="13.90" length="100.00" shape="915.06,891.32 842.03,838.26"/>
    </edge>
    <edge id="B8A1" from="B8" to="A1" priority="-1">
        <lane id="B8A1_0" index="0" speed="13.90" length="100.00" shape="972.44,861.07 998.01,939.77"/>
    </edge>
    <edge id="B8B7" from="B8" to="B7" priority="-1">
        <lane id="B8B7_0" index="0" speed="13.90" length="61.80" shape="965.26,860.72 924.82,890.10"/>
    </edge>
    <edge id="B8B9" from="B8" to="B9" priority="-1">
        <lane id="B8B9_0" index="0" speed="13.90" length="61.80" shape="975.00,854.35 1025.00,854.35"/>
    </edge>
    <edge id="B8C8" from="B8" to="C8" priority="-1">
        <lane id="B8C8_0" index="0" speed="13.90" length="100.00" shape="966.39,852.81 938.50,766.96"/>
    </edge>
    <edge id="B9A1" from="B9" to="A1" priority="-1">
        <lane id="B9A1_0" index="0" speed="13.90" length="100.00" shape="1030.60,862.06 1005.03,940.76"/>
    </edge>
    <edge id="B9B10" from="B9" to="B10" priority="-1">
        <lane id="B9B10_0" index="0" speed="13.90" length="61.80" shape="1036.62,858.13 1077.07,887.51"/>
    </edge>
    <edge id="B9B8" from="B9" to="B8" priority="-1">
        <lane id="B9B8_0" index="0" speed="13.90" length="61.80" shape="1025.00,857.55 975.00,857.55"/>
    </edge>
    <edge id="B9C9" from="B9" to="C9" priority="-1">
        <lane id="B9C9_0" index="0" speed="13.90" length="100.00" shape="1030.56,851.82 1058.46,765.97"/>
    </edge>
    <edge id="C10B10" from="C10" to="B10" priority="-1">
        <lane id="C10B10_0" index="0" speed="13.90" length="100.00" shape="1157.97,838.26 1084.94,891.32"/>
    </edge>
    <edge id="C10C1" from="C10" to="C1" priority="-1">
        <lane id="C10C1_0" index="0" speed="13.90" length="123.61" shape="1165.15,838.62 1199.70,944.95"/>
    </edge>
    <edge id="C10C9" from="C10" to="C9" priority="-1">
        <lane id="C10C9_0" index="0" speed="13.90" length="123.61" shape="1156.09,831.32 1065.64,765.61"/>
    </edge>
    <edge id="C10D10" from="C10" to="D10" priority="-1">
        <lane id="C10D10_0" index="0" speed="13.90" length="100.00" shape="1163.96,829.96 1236.99,776.90"/>
    </edge>
    <edge id="C1B1" from="C1" to="B1" priority="-1">
        <lane id="C1B1_0" index="0" speed="13.90" length="100.00" shape="1194.10,952.66 1103.82,952.66"/>
    </edge>
    <edge id="C1C10" from="C1" to="C10" priority="-1">
        <lane id="C1C10_0" index="0" speed="13.90" length="123.61" shape="1196.65,945.94 1162.11,839.61"/>
    </edge>
    <edge id="C1C2" from="C1" to="C2" priority="-1">
        <lane id="C1C2_0" index="0" speed="13.90" length="123.61" shape="1199.70,957.17 1165.15,1063.49"/>
    </edge>
    <edge id="C1D1" from="C1" to="D1" priority="-1">
        <lane id="C1D1_0" index="0" speed="13.90" length="100.00" shape="1203.82,949.46 1294.10,949.46"/>
    </edge>
    <edge id="C2B2" from="C2" to="B2" priority="-1">
        <lane id="C2B2_0" index="0" speed="13.90" length="100.00" shape="1156.09,1066.44 1083.06,1013.38"/>
    </edge>
    <edge id="C2C1" from="C2" to="C1" priority="-1">
        <lane id="C2C1_0" index="0" speed="13.90" length="123.61" shape="1162.11,1062.50 1196.65,956.18"/>
    </edge>
    <edge id="C2C3" from="C2" to="C3" priority="-1">
        <lane id="C2C3_0" index="0" speed="13.90" length="123.61" shape="1157.97,1073.38 1067.52,1139.09"/>
    </edge>
    <edge id="C2D2" from="C2" to="D2" priority="-1">
        <lane id="C2D2_0" index="0" speed="13.90" length="100.00" shape="1165.84,1069.57 1238.87,1122.63"/>
    </edge>
    <edge id="C3B3" from="C3" to="B3" priority="-1">
        <lane id="C3B3_0" index="0" speed="13.90" length="100.00" shape="1058.46,1136.15 1030.56,1050.29"/>
    </edge>
    <edge id="C3C2" from="C3" to="C2" priority="-1">
        <lane id="C3C2_0" index="0" speed="13.90" length="123.61" shape="1065.64,1136.50 1156.09,1070.79"/>
    </edge>
    <edge id="C3C4" from="C3" to="C4" priority="-1">
        <lane id="C3C4_0" index="0" speed="13.90" length="123.61" shape="1055.90,1142.87 944.10,1142.87"/>
    </edge>
    <edge id="C3D3" from="C3" to="D3" priority="-1">
        <lane id="C3D3_0" index="0" speed="13.90" length="100.00" shape="1064.51,1144.41 1092.40,1230.26"/>
    </edge>
    <edge id="C4B4" from="C4" to="B4" priority="-1">
        <lane id="C4B4_0" index="0" speed="13.90" length="100.00" shape="938.50,1135.16 966.39,1049.31"/>
    </edge>
    <edge id="C4C3" from="C4" to="C3" priority="-1">
        <lane id="C4C3_0" index="0" speed="13.90" length="123.61" shape="944.10,1139.67 1055.90,1139.67"/>
    </edge>
    <edge id="C4C5" from="C4" to="C5" priority="-1">
        <lane id="C4C5_0" index="0" speed="13.90" length="123.61" shape="932.48,1139.09 842.03,1073.38"/>
    </edge>
    <edge id="C4D4" from="C4" to="D4" priority="-1">
        <lane id="C4D4_0" index="0" speed="13.90" length="100.00" shape="938.54,1145.40 910.64,1231.25"/>
    </edge>
    <edge id="C5B5" from="C5" to="B5" priority="-1">
        <lane id="C5B5_0" index="0" speed="13.90" length="100.00" shape="842.03,1063.85 915.06,1010.79"/>
    </edge>
    <edge id="C5C4" from="C5" to="C4" priority="-1">
        <lane id="C5C4_0" index="0" speed="13.90" length="123.61" shape="843.91,1070.79 934.36,1136.50"/>
    </edge>
    <edge id="C5C6" from="C5" to="C6" priority="-1">
        <lane id="C5C6_0" index="0" speed="13.90" length="123.61" shape="834.85,1063.49 800.30,957.17"/>
    </edge>
    <edge id="C5D5" from="C5" to="D5" priority="-1">
        <lane id="C5D5_0" index="0" speed="13.90" length="100.00" shape="836.04,1072.16 763.01,1125.22"/>
    </edge>
    <edge id="C6B6" from="C6" to="B6" priority="-1">
        <lane id="C6B6_0" index="0" speed="13.90" length="100.00" shape="805.90,949.46 896.18,949.46"/>
    </edge>
    <edge id="C6C5" from="C6" to="C5" priority="-1">
        <lane id="C6C5_0" index="0" speed="13.90" length="123.61" shape="803.35,956.18 837.89,1062.50"/>
    </edge>
    <edge id="C6C7" from="C6" to="C7" priority="-1">
        <lane id="C6C7_0" index="0" speed="13.90" length="123.61" shape="800.30,944.95 834.85,838.62"/>
    </edge>
    <edge id="C6D6" from="C6" to="D6" priority="-1">
        <lane id="C6D6_0" index="0" speed="13.90" length="100.00" shape="796.18,952.66 705.90,952.66"/>
    </edge>
    <edge id="C7B7" from="C7" to="B7" priority="-1">
        <lane id="C7B7_0" index="0" speed="13.90" length="100.00" shape="843.91,835.68 916.94,888.74"/>
    </edge>
    <edge id="C7C6" from="C7" to="C6" priority="-1">
        <lane id="C7C6_0" index="0" speed="13.90" length="123.61" shape="837.89,839.61 803.35,945.94"/>
    </edge>
    <edge id="C7C8" from="C7" to="C8" priority="-1">
        <lane id="C7C8_0" index="0" speed="13.90" length="123.61" shape="842.03,828.73 932.48,763.02"/>
    </edge>
    <edge id="C7D7" from="C7" to="D7" priority="-1">
        <lane id="C7D7_0" index="0" speed="13.90" length="100.00" shape="834.16,832.55 761.13,779.49"/>
    </edge>
    <edge id="C8B8" from="C8" to="B8" priority="-1">
        <lane id="C8B8_0" index="0" speed="13.90" length="100.00" shape="941.54,765.97 969.44,851.82"/>
    </edge>
    <edge id="C8C7" from="C8" to="C7" priority="-1">
        <lane id="C8C7_0" index="0" speed="13.90" length="123.61" shape="934.36,765.61 843.91,831.32"/>
    </edge>
    <edge id="C8C9" from="C8" to="C9" priority="-1">
        <lane id="C8C9_0" index="0" speed="13.90" length="123.61" shape="944.10,759.25 1055.90,759.25"/>
    </edge>
    <edge id="C8D8" from="C8" to="D8" priority="-1">
        <lane id="C8D8_0" index="0" speed="13.90" length="100.00" shape="935.49,757.70 907.60,671.85"/>
    </edge>
    <edge id="C9B9" from="C9" to="B9" priority="-1">
        <lane id="C9B9_0" index="0" speed="13.90" length="100.00" shape="1061.50,766.96 1033.61,852.81"/>
    </edge>
    <edge id="C9C10" from="C9" to="C10" priority="-1">
        <lane id="C9C10_0" index="0" speed="13.90" length="123.61" shape="1067.52,763.02 1157.97,828.73"/>
    </edge>
    <edge id="C9C8" from="C9" to="C8" priority="-1">
        <lane id="C9C8_0" index="0" speed="13.90" length="123.61" shape="1055.90,762.45 944.10,762.45"/>
    </edge>
    <edge id="C9D9" from="C9" to="D9" priority="-1">
        <lane id="C9D9_0" index="0" speed="13.90" length="100.00" shape="1061.46,756.71 1089.36,670.86"/>
    </edge>
    <edge id="D10C10" from="D10" to="C10" priority="-1">
        <lane id="D10C10_0" index="0" speed="13.90" length="100.00" shape="1238.87,779.49 1165.84,832.55"/>
    </edge>
    <edge id="D10D1" from="D10" to="D1" priority="-1">
        <lane id="D10D1_0" index="0" speed="13.90" length="185.41" shape="1246.05,779.84 1299.70,944.95"/>
    </edge>
    <edge id="D10D9" from="D10" to="D9" priority="-1">
        <lane id="D10D9_0" index="0" speed="13.90" length="185.41" shape="1236.99,772.54 1096.54,670.50"/>
    </edge>
    <edge id="D10E10" from="D10" to="E10" priority="-1">
        <lane id="D10E10_0" index="0" speed="13.90" length="100.00" shape="1244.86,771.18 1317.89,718.12"/>
    </edge>
    <edge id="D1C1" from="D1" to="C1" priority="-1">
        <lane id="D1C1_0" index="0" speed="13.90" length="100.00" shape="1294.10,952.66 1203.82,952.66"/>
    </edge>
    <edge id="D1D10" from="D1" to="D10" priority="-1">
        <lane id="D1D10_0" index="0" speed="13.90" length="185.41" shape="1296.65,945.94 1243.01,780.83"/>
    </edge>
    <edge id="D1D2" from="D1" to="D2" priority="-1">
        <lane id="D1D2_0" index="0" speed="13.90" length="185.41" shape="1299.70,957.17 1246.05,1122.27"/>
    </edge>
    <edge id="D1E1" from="D1" to="E1" priority="-1">
        <lane id="D1E1_0" index="0" speed="13.90" length="100.00" shape="1303.82,949.46 1394.10,949.46"/>
    </edge>
    <edge id="D2C2" from="D2" to="C2" priority="-1">
        <lane id="D2C2_0" index="0" speed="13.90" length="100.00" shape="1236.99,1125.22 1163.96,1072.16"/>
    </edge>
    <edge id="D2D1" from="D2" to="D1" priority="-1">
        <lane id="D2D1_0" index="0" speed="13.90" length="185.41" shape="1243.01,1121.28 1296.65,956.18"/>
    </edge>
    <edge id="D2D3" from="D2" to="D3" priority="-1">
        <lane id="D2D3_0" index="0" speed="13.90" length="185.41" shape="1238.87,1132.16 1098.42,1234.20"/>
    </edge>
    <edge id="D2E2" from="D2" to="E2" priority="-1">
        <lane id="D2E2_0" index="0" speed="13.90" length="100.00" shape="1246.74,1128.35 1319.77,1181.41"/>
    </edge>
    <edge id="D3C3" from="D3" to="C3" priority="-1">
        <lane id="D3C3_0" index="0" speed="13.90" length="100.00" shape="1089.36,1231.25 1061.46,1145.40"/>
    </edge>
    <edge id="D3D2" from="D3" to="D2" priority="-1">
        <lane id="D3D2_0" index="0" speed="13.90" length="185.41" shape="1096.54,1231.61 1236.99,1129.57"/>
    </edge>
    <edge id="D3D4" from="D3" to="D4" priority="-1">
        <lane id="D3D4_0" index="0" speed="13.90" length="185.41" shape="1086.80,1237.97 913.20,1237.97"/>
    </edge>
    <edge id="D3E3" from="D3" to="E3" priority="-1">
        <lane id="D3E3_0" index="0" speed="13.90" length="100.00" shape="1095.41,1239.52 1123.30,1325.37"/>
    </edge>
    <edge id="D4C4" from="D4" to="C4" priority="-1">
        <lane id="D4C4_0" index="0" speed="13.90" length="100.00" shape="907.60,1230.26 935.49,1144.41"/>
    </edge>
    <edge id="D4D3" from="D4" to="D3" priority="-1">
        <lane id="D4D3_0" index="0" speed="13.90" length="185.41" shape="913.20,1234.77 1086.80,1234.77"/>
    </edge>
    <edge id="D4D5" from="D4" to="D5" priority="-1">
        <lane id="D4D5_0" index="0" speed="13.90" length="185.41" shape="901.58,1234.20 761.13,1132.16"/>
    </edge>
    <edge id="D4E4" from="D4" to="E4" priority="-1">
        <lane id="D4E4_0" index="0" speed="13.90" length="100.00" shape="907.63,1240.51 879.74,1326.36"/>
    </edge>
    <edge id="D5C5" from="D5" to="C5" priority="-1">
        <lane id="D5C5_0" index="0" speed="13.90" length="100.00" shape="761.13,1122.63 834.16,1069.57"/>
    </edge>
    <edge id="D5D4" from="D5" to="D4" priority="-1">
        <lane id="D5D4_0" index="0" speed="13.90" length="185.41" shape="763.01,1129.57 903.46,1231.61"/>
    </edge>
    <edge id="D5D6" from="D5" to="D6" priority="-1">
        <lane id="D5D6_0" index="0" speed="13.90" length="185.41" shape="753.95,1122.27 700.30,957.17"/>
    </edge>
    <edge id="D5E5" from="D5" to="E5" priority="-1">
        <lane id="D5E5_0" index="0" speed="13.90" length="100.00" shape="755.14,1130.93 682.11,1183.99"/>
    </edge>
    <edge id="D6C6" from="D6" to="C6" priority="-1">
        <lane id="D6C6_0" index="0" speed="13.90" length="100.00" shape="705.90,949.46 796.18,949.46"/>
    </edge>
    <edge id="D6D5" from="D6" to="D5" priority="-1">
        <lane id="D6D5_0" index="0" speed="13.90" length="185.41" shape="703.35,956.18 756.99,1121.28"/>
    </edge>
    <edge id="D6D7" from="D6" to="D7" priority="-1">
        <lane id="D6D7_0" index="0" speed="13.90" length="185.41" shape="700.30,944.95 753.95,779.84"/>
    </edge>
    <edge id="D6E6" from="D6" to="E6" priority="-1">
        <lane id="D6E6_0" index="0" speed="13.90" length="100.00" shape="696.18,952.66 605.90,952.66"/>
    </edge>
    <edge id="D7C7" from="D7" to="C7" priority="-1">
        <lane id="D7C7_0" index="0" speed="13.90" length="100.00" shape="763.01,776.90 836.04,829.96"/>
    </edge>
    <edge id="D7D6" from="D7" to="D6" priority="-1">
        <lane id="D7D6_0" index="0" speed="13.90" length="185.41" shape="756.99,780.83 703.35,945.94"/>
    </edge>
    <edge id="D7D8" from="D7" to="D8" priority="-1">
        <lane id="D7D8_0" index="0" speed="13.90" length="185.41" shape="761.13,769.96 901.58,667.92"/>
    </edge>
    <edge id="D7E7" from="D7" to="E7" priority="-1">
        <lane id="D7E7_0" index="0" speed="13.90" length="100.00" shape="753.26,773.77 680.23,720.71"/>
    </edge>
    <edge id="D8C8" from="D8" to="C8" priority="-1">
        <lane id="D8C8_0" index="0" speed="13.90" length="100.00" shape="910.64,670.86 938.54,756.71"/>
    </edge>
    <edge id="D8D7" from="D8" to="D7" priority="-1">
        <lane id="D8D7_0" index="0" speed="13.90" length="185.41" shape="903.46,670.50 763.01,772.54"/>
    </edge>
    <edge id="D8D9" from="D8" to="D9" priority="-1">
        <lane id="D8D9_0" index="0" speed="13.90" length="185.41" shape="913.20,664.14 1086.80,664.14"/>
    </edge>
    <edge id="D8E8" from="D8" to="E8" priority="-1">
        <lane id="D8E8_0" index="0" speed="13.90" length="100.00" shape="904.59,662.60 876.70,576.74"/>
    </edge>
    <edge id="D9C9" from="D9" to="C9" priority="-1">
        <lane id="D9C9_0" index="0" speed="13.90" length="100.00" shape="1092.40,671.85 1064.51,757.70"/>
    </edge>
    <edge id="D9D10" from="D9" to="D10" priority="-1">
        <lane id="D9D10_0" index="0" speed="13.90" length="185.41" shape="1098.42,667.92 1238.87,769.96"/>
    </edge>
    <edge id="D9D8" from="D9" to="D8" priority="-1">
        <lane id="D9D8_0" index="0" speed="13.90" length="185.41" shape="1086.80,667.34 913.20,667.34"/>
    </edge>
    <edge id="D9E9" from="D9" to="E9" priority="-1">
        <lane id="D9E9_0" index="0" speed="13.90" length="100.00" shape="1092.37,661.61 1120.26,575.75"/>
    </edge>
    <edge id="E10D10" from="E10" to="D10" priority="-1">
        <lane id="E10D10_0" index="0" speed="13.90" length="100.00" shape="1319.77,720.71 1246.74,773.77"/>
    </edge>
    <edge id="E10E1" from="E10" to="E1" priority="-1">
        <lane id="E10E1_0" index="0" speed="13.90" length="247.21" shape="1326.95,721.06 1399.70,944.95"/>
    </edge>
    <edge id="E10E9" from="E10" to="E9" priority="-1">
        <lane id="E10E9_0" index="0" speed="13.90" length="247.21" shape="1317.89,713.77 1127.44,575.40"/>
    </edge>
    <edge id="E10F10" from="E10" to="F10" priority="-1">
        <lane id="E10F10_0" index="0" speed="13.90" length="100.00" shape="1325.76,712.40 1398.79,659.34"/>
    </edge>
    <edge id="E1D1" from="E1" to="D1" priority="-1">
        <lane id="E1D1_0" index="0" speed="13.90" length="100.00" shape="1394.10,952.66 1303.82,952.66"/>
    </edge>
    <edge id="E1E10" from="E1" to="E10" priority="-1">
        <lane id="E1E10_0" index="0" speed="13.90" length="247.21" shape="1396.65,945.94 1323.91,722.05"/>
    </edge>
    <edge id="E1E2" from="E1" to="E2" priority="-1">
        <lane id="E1E2_0" index="0" speed="13.90" length="247.21" shape="1399.70,957.17 1326.95,1181.05"/>
    </edge>
    <edge id="E1F1" from="E1" to="F1" priority="-1">
        <lane id="E1F1_0" index="0" speed="13.90" length="100.00" shape="1403.82,949.46 1494.10,949.46"/>
    </edge>
    <edge id="E2D2" from="E2" to="D2" priority="-1">
        <lane id="E2D2_0" index="0" speed="13.90" length="100.00" shape="1317.89,1183.99 1244.86,1130.93"/>
    </edge>
    <edge id="E2E1" from="E2" to="E1" priority="-1">
        <lane id="E2E1_0" index="0" speed="13.90" length="247.21" shape="1323.91,1180.06 1396.65,956.18"/>
    </edge>
    <edge id="E2E3" from="E2" to="E3" priority="-1">
        <lane id="E2E3_0" index="0" speed="13.90" length="247.21" shape="1319.77,1190.94 1129.32,1329.30"/>
    </edge>
    <edge id="E2F2" from="E2" to="F2" priority="-1">
        <lane id="E2F2_0" index="0" speed="13.90" length="100.00" shape="1327.64,1187.12 1400.67,1240.18"/>
    </edge>
    <edge id="E3D3" from="E3" to="D3" priority="-1">
        <lane id="E3D3_0" index="0" speed="13.90" length="100.00" shape="1120.26,1326.36 1092.37,1240.51"/>
    </edge>
    <edge id="E3E2" from="E3" to="E2" priority="-1">
        <lane id="E3E2_0" index="0" speed="13.90" length="247.21" shape="1127.44,1326.71 1317.89,1188.35"/>
    </edge>
    <edge id="E3E4" from="E3" to="E4" priority="-1">
        <lane id="E3E4_0" index="0" speed="13.90" length="247.21" shape="1117.70,1333.08 882.30,1333.08"/>
    </edge>
    <edge id="E3F3" from="E3" to="F3" priority="-1">
        <lane id="E3F3_0" index="0" speed="13.90" length="100.00" shape="1126.31,1334.62 1154.21,1420.47"/>
    </edge>
    <edge id="E4D4" from="E4" to="D4" priority="-1">
        <lane id="E4D4_0" index="0" speed="13.90" length="100.00" shape="876.70,1325.37 904.59,1239.52"/>
    </edge>
    <edge id="E4E3" from="E4" to="E3" priority="-1">
        <lane id="E4E3_0" index="0" speed="13.90" length="247.21" shape="882.30,1329.88 1117.70,1329.88"/>
    </edge>
    <edge id="E4E5" from="E4" to="E5" priority="-1">
        <lane id="E4E5_0" index="0" speed="13.90" length="247.21" shape="870.68,1329.30 680.23,1190.94"/>
    </edge>
    <edge id="E4F4" from="E4" to="F4" priority="-1">
        <lane id="E4F4_0" index="0" speed="13.90" length="100.00" shape="876.73,1335.61 848.84,1421.46"/>
    </edge>
    <edge id="E5D5" from="E5" to="D5" priority="-1">
        <lane id="E5D5_0" index="0" speed="13.90" length="100.00" shape="680.23,1181.41 753.26,1128.35"/>
    </edge>
    <edge id="E5E4" from="E5" to="E4" priority="-1">
        <lane id="E5E4_0" index="0" speed="13.90" length="247.21" shape="682.11,1188.35 872.56,1326.71"/>
    </edge>
    <edge id="E5E6" from="E5" to="E6" priority="-1">
        <lane id="E5E6_0" index="0" speed="13.90" length="247.21" shape="673.05,1181.05 600.30,957.17"/>
    </edge>
    <edge id="E5F5" from="E5" to="F5" priority="-1">
        <lane id="E5F5_0" index="0" speed="13.90" length="100.00" shape="674.24,1189.71 601.21,1242.77"/>
    </edge>
    <edge id="E6D6" from="E6" to="D6" priority="-1">
        <lane id="E6D6_0" index="0" speed="13.90" length="100.00" shape="605.90,949.46 696.18,949.46"/>
    </edge>
    <edge id="E6E5" from="E6" to="E5" priority="-1">
        <lane id="E6E5_0" index="0" speed="13.90" length="247.21" shape="603.35,956.18 676.09,1180.06"/>
    </edge>
    <edge id="E6E7" from="E6" to="E7" priority="-1">
        <lane id="E6E7_0" index="0" speed="13.90" length="247.21" shape="600.30,944.95 673.05,721.06"/>
    </edge>
    <edge id="E6F6" from="E6" to="F6" priority="-1">
        <lane id="E6F6_0" index="0" speed="13.90" length="100.00" shape="596.18,952.66 505.90,952.66"/>
    </edge>
    <edge id="E7D7" from="E7" to="D7" priority="-1">
        <lane id="E7D7_0" index="0" speed="13.90" length="100.00" shape="682.11,718.12 755.14,771.18"/>
    </edge>
    <edge id="E7E6" from="E7" to="E6" priority="-1">
        <lane id="E7E6_0" index="0" speed="13.90" length="247.21" shape="676.09,722.05 603.35,945.94"/>
    </edge>
    <edge id="E7E8" from="E7" to="E8" priority="-1">
        <lane id="E7E8_0" index="0" speed="13.90" length="247.21" shape="680.23,711.18 870.68,572.81"/>
    </edge>
    <edge id="E7F7" from="E7" to="F7" priority="-1">
        <lane id="E7F7_0" index="0" speed="13.90" length="100.00" shape="672.36,714.99 599.33,661.93"/>
    </edge>
    <edge id="E8D8" from="E8" to="D8" priority="-1">
        <lane id="E8D8_0" index="0" speed="13.90" length="100.00" shape="879.74,575.75 907.63,661.61"/>
    </edge>
    <edge id="E8E7" from="E8" to="E7" priority="-1">
        <lane id="E8E7_0" index="0" speed="13.90" length="247.21" shape="872.56,575.40 682.11,713.77"/>
    </edge>
    <edge id="E8E9" from="E8" to="E9" priority="-1">
        <lane id="E8E9_0" index="0" speed="13.90" length="247.21" shape="882.30,569.03 1117.70,569.03"/>
    </edge>
    <edge id="E8F8" from="E8" to="F8" priority="-1">
        <lane id="E8F8_0" index="0" speed="13.90" length="100.00" shape="873.69,567.49 845.79,481.64"/>
    </edge>
    <edge id="E9D9" from="E9" to="D9" priority="-1">
        <lane id="E9D9_0" index="0" speed="13.90" length="100.00" shape="1123.30,576.74 1095.41,662.60"/>
    </edge>