<?xml version="1.0" encoding="UTF-8"?>

<!-- generated on 2022-10-26 11:02:48 by Eclipse SUMO sumo Version v1_14_1+1954-6bd8fb4
This data file and the accompanying materials
are made available under the terms of the Eclipse Public License v2.0
which accompanies this distribution, and is available at
http://www.eclipse.org/legal/epl-v20.html
This file may also be made available under the following Secondary
Licenses when the conditions for such availability set forth in the Eclipse
Public License 2.0 are satisfied: GNU General Public License, version 2
or later which is available at
https://www.gnu.org/licenses/old-licenses/gpl-2.0-standalone.html
SPDX-License-Identifier: EPL-2.0 OR GPL-2.0-or-later
<configuration xmlns:xsi="http://www.w3.org/2001/XMLSchema-instance" xsi:noNamespaceSchemaLocation="http://sumo.dlr.de/xsd/sumoConfiguration.xsd">

    <input>
        <net-file value="net.net.xml"/>
        <route-files value="input_routes.rou.xml"/>
        <additional-files value="input_additional.add.xml"/>
    </input>

    <output>
        <write-license value="true"/>
        <battery-output value="battery.xml"/>
        <battery-output.precision value="4"/>
    </output>

    <processing>
        <default.speeddev value="0"/>
    </processing>

    <report>
        <xml-validation value="never"/>
        <duration-log.disable value="true"/>
        <no-step-log value="true"/>
    </report>

    <battery>
        <device.battery.probability value="1"/>
        <device.battery.track-fuel value="true"/>
    </battery>

</configuration>
-->

<battery-export xmlns:xsi="http://www.w3.org/2001/XMLSchema-instance" xsi:noNamespaceSchemaLocation="http://sumo.dlr.de/xsd/battery_file.xsd">
    <timestep time="0.00">
        <vehicle id="veh0" energyConsumed="0.0000" totalEnergyConsumed="0.0000" totalEnergyRegenerated="0.0000" actualBatteryCapacity="13000.0000" maximumBatteryCapacity="35000.0000" chargingStationId="NULL" energyCharged="0.0000" energyChargedInTransit="0.0000" energyChargedStopped="0.0000" speed="0.0000" acceleration="0.0000" x="-987.9000" y="995.0500" lane="D2_0" posOnLane="12.1000" timeStopped="0"/>
    </timestep>
    <timestep time="1.00">
        <vehicle id="veh0" energyConsumed="881.4761" totalEnergyConsumed="881.4761" totalEnergyRegenerated="0.0000" actualBatteryCapacity="12118.5239" maximumBatteryCapacity="35000.0000" chargingStationId="NULL" energyCharged="0.0000" energyChargedInTransit="0.0000" energyChargedStopped="0.0000" speed="1.0000" acceleration="1.0000" x="-986.9000" y="995.0500" lane="D2_0" posOnLane="13.1000" timeStopped="0"/>
    </timestep>
    <timestep time="2.00">
        <vehicle id="veh0" energyConsumed="930.7378" totalEnergyConsumed="1812.2139" totalEnergyRegenerated="0.0000" actualBatteryCapacity="11187.7861" maximumBatteryCapacity="35000.0000" chargingStationId="NULL" energyCharged="0.0000" energyChargedInTransit="0.0000" energyChargedStopped="0.0000" speed="2.0000" acceleration="1.0000" x="-984.9000" y="995.0500" lane="D2_0" posOnLane="15.1000" timeStopped="0"/>
    </timestep>
    <timestep time="3.00">
        <vehicle id="veh0" energyConsumed="985.0072" totalEnergyConsumed="2797.2211" totalEnergyRegenerated="0.0000" actualBatteryCapacity="10202.7789" maximumBatteryCapacity="35000.0000" chargingStationId="NULL" energyCharged="0.0000" energyChargedInTransit="0.0000" energyChargedStopped="0.0000" speed="3.0000" acceleration="1.0000" x="-981.9000" y="995.0500" lane="D2_0" posOnLane="18.1000" timeStopped="0"/>
    </timestep>
    <timestep time="4.00">
        <vehicle id="veh0" energyConsumed="1044.2844" totalEnergyConsumed="3841.5056" totalEnergyRegenerated="0.0000" actualBatteryCapacity="9158.4944" maximumBatteryCapacity="35000.0000" chargingStationId="NULL" energyCharged="0.0000" energyChargedInTransit="0.0000" energyChargedStopped="0.0000" speed="4.0000" acceleration="1.0000" x="-977.9000" y="995.0500" lane="D2_0" posOnLane="22.1000" timeStopped="0"/>
    </timestep>
    <timestep time="5.00">
        <vehicle id="veh0" energyConsumed="1108.5694" totalEnergyConsumed="4950.0750" totalEnergyRegenerated="0.0000" actualBatteryCapacity="8049.9250" maximumBatteryCapacity="35000.0000" chargingStationId="NULL" energyCharged="0.0000" energyChargedInTransit="0.0000" energyChargedStopped="0.0000" speed="5.0000" acceleration="1.0000" x="-972.9000" y="995.0500" lane="D2_0" posOnLane="27.1000" timeStopped="0"/>
    </timestep>
    <timestep time="6.00">
        <vehicle id="veh0" energyConsumed="1177.8622" totalEnergyConsumed="6127.9372" totalEnergyRegenerated="0.0000" actualBatteryCapacity="6872.0628" maximumBatteryCapacity="35000.0000" chargingStationId="NULL" energyCharged="0.0000" energyChargedInTransit="0.0000" energyChargedStopped="0.0000" speed="6.0000" acceleration="1.0000" x="-966.9000" y="995.0500" lane="D2_0" posOnLane="33.1000" timeStopped="0"/>
    </timestep>
    <timestep time="7.00">
        <vehicle id="veh0" energyConsumed="1252.1628" totalEnergyConsumed="7380.1000" totalEnergyRegenerated="0.0000" actualBatteryCapacity="5619.9000" maximumBatteryCapacity="35000.0000" chargingStationId="NULL" energyCharged="0.0000" energyChargedInTransit="0.0000" energyChargedStopped="0.0000" speed="7.0000" acceleration="1.0000" x="-959.9000" y="995.0500" lane="D2_0" posOnLane="40.1000" timeStopped="0"/>
    </timestep>
    <timestep time="8.00">
        <vehicle id="veh0" energyConsumed="1331.4711" totalEnergyConsumed="8711.5711" totalEnergyRegenerated="0.0000" actualBatteryCapacity="4288.4289" maximumBatteryCapacity="35000.0000" chargingStationId="NULL" energyCharged="0.0000" energyChargedInTransit="0.0000" energyChargedStopped="0.0000" speed="8.0000" acceleration="1.0000" x="-951.9000" y="995.0500" lane="D2_0" posOnLane="48.1000" timeStopped="0"/>
    </timestep>
    <timestep time="9.00">
        <vehicle id="veh0" energyConsumed="1415.7872" totalEnergyConsumed="10127.3583" totalEnergyRegenerated="0.0000" actualBatteryCapacity="2872.6417" maximumBatteryCapacity="35000.0000" chargingStationId="NULL" energyCharged="0.0000" energyChargedInTransit="0.0000" energyChargedStopped="0.0000" speed="9.0000" acceleration="1.0000" x="-942.9000" y="995.0500" lane="D2_0" posOnLane="57.1000" timeStopped="0"/>
    </timestep>
    <timestep time="10.00">
        <vehicle id="veh0" energyConsumed="630.1548" totalEnergyConsumed="10757.5131" totalEnergyRegenerated="0.0000" actualBatteryCapacity="2242.4869" maximumBatteryCapacity="35000.0000" chargingStationId="NULL" energyCharged="0.0000" energyChargedInTransit="0.0000" energyChargedStopped="0.0000" speed="8.9500" acceleration="-0.0500" x="-933.9500" y="995.0500" lane="D2_0" posOnLane="66.0500" timeStopped="0"/>
    </timestep>
    <timestep time="11.00">
        <vehicle id="veh0" energyConsumed="0.0000" totalEnergyConsumed="10757.5131" totalEnergyRegenerated="0.0000" actualBatteryCapacity="2242.4869" maximumBatteryCapacity="35000.0000" chargingStationId="NULL" energyCharged="0.0000" energyChargedInTransit="0.0000" energyChargedStopped="0.0000" speed="3.9500" acceleration="-5.0000" x="-930.0000" y="995.0500" lane="D2_0" posOnLane="70.0000" timeStopped="0"/>
    </timestep>
    <timestep time="12.00">
        <vehicle id="veh0" energyConsumed="837.2222" totalEnergyConsumed="11594.7353" totalEnergyRegenerated="0.0000" actualBatteryCapacity="10905.2647" maximumBatteryCapacity="35000.0000" chargingStationId="CS1" energyCharged="9500.0000" energyChargedInTransit="0.0000" energyChargedStopped="9500.0000" speed="0.0000" acceleration="-3.9500" x="-930.0000" y="995.0500" lane="D2_0" posOnLane="70.0000" timeStopped="1"/>
    </timestep>
    <timestep time="13.00">
        <vehicle id="veh0" energyConsumed="837.2222" totalEnergyConsumed="12431.9576" totalEnergyRegenerated="0.0000" actualBatteryCapacity="19568.0424" maximumBatteryCapacity="35000.0000" chargingStationId="CS1" energyCharged="9500.0000" energyChargedInTransit="0.0000" energyChargedStopped="9500.0000" speed="0.0000" acceleration="0.0000" x="-930.0000" y="995.0500" lane="D2_0" posOnLane="70.0000" timeStopped="2"/>
    </timestep>
    <timestep time="14.00">
        <vehicle id="veh0" energyConsumed="837.2222" totalEnergyConsumed="13269.1798" totalEnergyRegenerated="0.0000" actualBatteryCapacity="28230.8202" maximumBatteryCapacity="35000.0000" chargingStationId="CS1" energyCharged="9500.0000" energyChargedInTransit="0.0000" energyChargedStopped="9500.0000" speed="0.0000" acceleration="0.0000" x="-930.0000" y="995.0500" lane="D2_0" posOnLane="70.0000" timeStopped="3"/>
    </timestep>
    <timestep time="15.00">
        <vehicle id="veh0" energyConsumed="837.2222" totalEnergyConsumed="14106.4020" totalEnergyRegenerated="0.0000" actualBatteryCapacity="35000.0000" maximumBatteryCapacity="35000.0000" chargingStationId="CS1" energyCharged="9500.0000" energyChargedInTransit="0.0000" energyChargedStopped="9500.0000" speed="0.0000" acceleration="0.0000" x="-930.0000" y="995.0500" lane="D2_0" posOnLane="70.0000" timeStopped="4"/>
    </timestep>
    <timestep time="16.00">
        <vehicle id="veh0" energyConsumed="837.2222" totalEnergyConsumed="14943.6242" totalEnergyRegenerated="0.0000" actualBatteryCapacity="35000.0000" maximumBatteryCapacity="35000.0000" chargingStationId="CS1" energyCharged="9500.0000" energyChargedInTransit="0.0000" energyChargedStopped="9500.0000" speed="0.0000" acceleration="0.0000" x="-930.0000" y="995.0500" lane="D2_0" posOnLane="70.0000" timeStopped="5"/>
    </timestep>
    <timestep time="17.00">
        <vehicle id="veh0" energyConsumed="837.2222" totalEnergyConsumed="15780.8464" totalEnergyRegenerated="0.0000" actualBatteryCapacity="35000.0000" maximumBatteryCapacity="35000.0000" chargingStationId="CS1" energyCharged="9500.0000" energyChargedInTransit="0.0000" energyChargedStopped="9500.0000" speed="0.0000" acceleration="0.0000" x="-930.0000" y="995.0500" lane="D2_0" posOnLane="70.0000" timeStopped="6"/>
    </timestep>
    <timestep time="18.00">
        <vehicle id="veh0" energyConsumed="837.2222" totalEnergyConsumed="16618.0687" totalEnergyRegenerated="0.0000" actualBatteryCapacity="35000.0000" maximumBatteryCapacity="35000.0000" chargingStationId="CS1" energyCharged="9500.0000" energyChargedInTransit="0.0000" energyChargedStopped="9500.0000" speed="0.0000" acceleration="0.0000" x="-930.0000" y="995.0500" lane="D2_0" posOnLane="70.0000" timeStopped="7"/>
    </timestep>
    <timestep time="19.00">
        <vehicle id="veh0" energyConsumed="881.4761" totalEnergyConsumed="17499.5448" totalEnergyRegenerated="0.0000" actualBatteryCapacity="34118.5239" maximumBatteryCapacity="35000.0000" chargingStationId="NULL" energyCharged="0.0000" energyChargedInTransit="0.0000" energyChargedStopped="0.0000" speed="1.0000" acceleration="1.0000" x="-929.0000" y="998.3500" lane="D2_1" posOnLane="71.0000" timeStopped="0"/>
    </timestep>
    <timestep time="20.00">
        <vehicle id="veh0" energyConsumed="930.7378" totalEnergyConsumed="18430.2826" totalEnergyRegenerated="0.0000" actualBatteryCapacity="33187.7861" maximumBatteryCapacity="35000.0000" chargingStationId="NULL" energyCharged="0.0000" energyChargedInTransit="0.0000" energyChargedStopped="0.0000" speed="2.0000" acceleration="1.0000" x="-927.0000" y="998.3500" lane="D2_1" posOnLane="73.0000" timeStopped="0"/>
    </timestep>
    <timestep time="21.00">
        <vehicle id="veh0" energyConsumed="985.0072" totalEnergyConsumed="19415.2898" totalEnergyRegenerated="0.0000" actualBatteryCapacity="32202.7789" maximumBatteryCapacity="35000.0000" chargingStationId="NULL" energyCharged="0.0000" energyChargedInTransit="0.0000" energyChargedStopped="0.0000" speed="3.0000" acceleration="1.0000" x="-924.0000" y="998.3500" lane="D2_1" posOnLane="76.0000" timeStopped="0"/>
    </timestep>
    <timestep time="22.00">
        <vehicle id="veh0" energyConsumed="1044.2844" totalEnergyConsumed="20459.5742" totalEnergyRegenerated="0.0000" actualBatteryCapacity="31158.4944" maximumBatteryCapacity="35000.0000" chargingStationId="NULL" energyCharged="0.0000" energyChargedInTransit="0.0000" energyChargedStopped="0.0000" speed="4.0000" acceleration="1.0000" x="-920.0000" y="998.3500" lane="D2_1" posOnLane="80.0000" timeStopped="0"/>
    </timestep>
    <timestep time="23.00">
        <vehicle id="veh0" energyConsumed="1108.5694" totalEnergyConsumed="21568.1437" totalEnergyRegenerated="0.0000" actualBatteryCapacity="30049.9250" maximumBatteryCapacity="35000.0000" chargingStationId="NULL" energyCharged="0.0000" energyChargedInTransit="0.0000" energyChargedStopped="0.0000" speed="5.0000" acceleration="1.0000" x="-915.0000" y="998.3500" lane="D2_1" posOnLane="85.0000" timeStopped="0"/>
    </timestep>
    <timestep time="24.00">
        <vehicle id="veh0" energyConsumed="1177.8622" totalEnergyConsumed="22746.0059" totalEnergyRegenerated="0.0000" actualBatteryCapacity="28872.0628" maximumBatteryCapacity="35000.0000" chargingStationId="NULL" energyCharged="0.0000" energyChargedInTransit="0.0000" energyChargedStopped="0.0000" speed="6.0000" acceleration="1.0000" x="-909.0000" y="998.3500" lane="D2_1" posOnLane="91.0000" timeStopped="0"/>
    </timestep>
    <timestep time="25.00">
        <vehicle id="veh0" energyConsumed="1252.1628" totalEnergyConsumed="23998.1687" totalEnergyRegenerated="0.0000" actualBatteryCapacity="27619.9000" maximumBatteryCapacity="35000.0000" chargingStationId="NULL" energyCharged="0.0000" energyChargedInTransit="0.0000" energyChargedStopped="0.0000" speed="7.0000" acceleration="1.0000" x="-902.0000" y="998.3500" lane="D2_1" posOnLane="98.0000" timeStopped="0"/>
    </timestep>
    <timestep time="26.00">
        <vehicle id="veh0" energyConsumed="1331.4711" totalEnergyConsumed="25329.6398" totalEnergyRegenerated="0.0000" actualBatteryCapacity="35000.0000" maximumBatteryCapacity="35000.0000" chargingStationId="CS2" energyCharged="9900.0000" energyChargedInTransit="9900.0000" energyChargedStopped="0.0000" speed="8.0000" acceleration="1.0000" x="-894.0000" y="998.3500" lane="D2_1" posOnLane="106.0000" timeStopped="0"/>
    </timestep>
    <timestep time="27.00">
        <vehicle id="veh0" energyConsumed="1415.7872" totalEnergyConsumed="26745.4270" totalEnergyRegenerated="0.0000" actualBatteryCapacity="35000.0000" maximumBatteryCapacity="35000.0000" chargingStationId="CS2" energyCharged="9900.0000" energyChargedInTransit="9900.0000" energyChargedStopped="0.0000" speed="9.0000" acceleration="1.0000" x="-885.0000" y="998.3500" lane="D2_1" posOnLane="115.0000" timeStopped="0"/>
    </timestep>
    <timestep time="28.00">
        <vehicle id="veh0" energyConsumed="0.0000" totalEnergyConsumed="26745.4270" totalEnergyRegenerated="0.0000" actualBatteryCapacity="35000.0000" maximumBatteryCapacity="35000.0000" chargingStationId="CS2" energyCharged="9900.0000" energyChargedInTransit="9900.0000" energyChargedStopped="0.0000" speed="5.0000" acceleration="-4.0000" x="-880.0000" y="998.3500" lane="D2_1" posOnLane="120.0000" timeStopped="0"/>
    </timestep>
    <timestep time="29.00">
        <vehicle id="veh0" energyConsumed="837.2222" totalEnergyConsumed="27582.6492" totalEnergyRegenerated="0.0000" actualBatteryCapacity="35000.0000" maximumBatteryCapacity="35000.0000" chargingStationId="CS2" energyCharged="9900.0000" energyChargedInTransit="0.0000" energyChargedStopped="9900.0000" speed="0.0000" acceleration="-5.0000" x="-880.0000" y="998.3500" lane="D2_1" posOnLane="120.0000" timeStopped="1"/>
    </timestep>
    <timestep time="30.00">
        <vehicle id="veh0" energyConsumed="837.2222" totalEnergyConsumed="28419.8714" totalEnergyRegenerated="0.0000" actualBatteryCapacity="35000.0000" maximumBatteryCapacity="35000.0000" chargingStationId="CS2" energyCharged="9900.0000" energyChargedInTransit="0.0000" energyChargedStopped="9900.0000" speed="0.0000" acceleration="0.0000" x="-880.0000" y="998.3500" lane="D2_1" posOnLane="120.0000" timeStopped="2"/>
    </timestep>
    <timestep time="31.00">
        <vehicle id="veh0" energyConsumed="837.2222" totalEnergyConsumed="29257.0937" totalEnergyRegenerated="0.0000" actualBatteryCapacity="35000.0000" maximumBatteryCapacity="35000.0000" chargingStationId="CS2" energyCharged="9900.0000" energyChargedInTransit="0.0000" energyChargedStopped="9900.0000" speed="0.0000" acceleration="0.0000" x="-880.0000" y="998.3500" lane="D2_1" posOnLane="120.0000" timeStopped="3"/>
    </timestep>
    <timestep time="32.00">
        <vehicle id="veh0" energyConsumed="837.2222" totalEnergyConsumed="30094.3159" totalEnergyRegenerated="0.0000" actualBatteryCapacity="35000.0000" maximumBatteryCapacity="35000.0000" chargingStationId="CS2" energyCharged="9900.0000" energyChargedInTransit="0.0000" energyChargedStopped="9900.0000" speed="0.0000" acceleration="0.0000" x="-880.0000" y="998.3500" lane="D2_1" posOnLane="120.0000" timeStopped="4"/>
    </timestep>
    <timestep time="33.00">
        <vehicle id="veh0" energyConsumed="837.2222" totalEnergyConsumed="30931.5381" totalEnergyRegenerated="0.0000" actualBatteryCapacity="35000.0000" maximumBatteryCapacity="35000.0000" chargingStationId="CS2" energyCharged="9900.0000" energyChargedInTransit="0.0000" energyChargedStopped="9900.0000" speed="0.0000" acceleration="0.0000" x="-880.0000" y="998.3500" lane="D2_1" posOnLane="120.0000" timeStopped="5"/>
    </timestep>
    <timestep time="34.00">
        <vehicle id="veh0" energyConsumed="837.2222" totalEnergyConsumed="31768.7603" totalEnergyRegenerated="0.0000" actualBatteryCapacity="35000.0000" maximumBatteryCapacity="35000.0000" chargingStationId="CS2" energyCharged="9900.0000" energyChargedInTransit="0.0000" energyChargedStopped="9900.0000" speed="0.0000" acceleration="0.0000" x="-880.0000" y="998.3500" lane="D2_1" posOnLane="120.0000" timeStopped="6"/>
    </timestep>
    <timestep time="35.00">
        <vehicle id="veh0" energyConsumed="837.2222" totalEnergyConsumed="32605.9826" totalEnergyRegenerated="0.0000" actualBatteryCapacity="35000.0000" maximumBatteryCapacity="35000.0000" chargingStationId="CS2" energyCharged="9900.0000" energyChargedInTransit="0.0000" energyChargedStopped="9900.0000" speed="0.0000" acceleration="0.0000" x="-880.0000" y="998.3500" lane="D2_1" posOnLane="120.0000" timeStopped="7"/>
    </timestep>
    <timestep time="36.00">
        <vehicle id="veh0" energyConsumed="837.2222" totalEnergyConsumed="33443.2048" totalEnergyRegenerated="0.0000" actualBatteryCapacity="35000.0000" maximumBatteryCapacity="35000.0000" chargingStationId="CS2" energyCharged="9900.0000" energyChargedInTransit="0.0000" energyChargedStopped="9900.0000" speed="0.0000" acceleration="0.0000" x="-880.0000" y="998.3500" lane="D2_1" posOnLane="120.0000" timeStopped="8"/>
    </timestep>
    <timestep time="37.00">
        <vehicle id="veh0" energyConsumed="881.4761" totalEnergyConsumed="34324.6809" totalEnergyRegenerated="0.0000" actualBatteryCapacity="34118.5239" maximumBatteryCapacity="35000.0000" chargingStationId="NULL" energyCharged="0.0000" energyChargedInTransit="0.0000" energyChargedStopped="0.0000" speed="1.0000" acceleration="1.0000" x="-879.0000" y="995.0500" lane="D2_0" posOnLane="121.0000" timeStopped="0"/>
    </timestep>
    <timestep time="38.00">
        <vehicle id="veh0" energyConsumed="930.7378" totalEnergyConsumed="35255.4187" totalEnergyRegenerated="0.0000" actualBatteryCapacity="33187.7861" maximumBatteryCapacity="35000.0000" chargingStationId="NULL" energyCharged="0.0000" energyChargedInTransit="0.0000" energyChargedStopped="0.0000" speed="2.0000" acceleration="1.0000" x="-877.0000" y="995.0500" lane="D2_0" posOnLane="123.0000" timeStopped="0"/>
    </timestep>
    <timestep time="39.00">
        <vehicle id="veh0" energyConsumed="985.0072" totalEnergyConsumed="36240.4259" totalEnergyRegenerated="0.0000" actualBatteryCapacity="32202.7789" maximumBatteryCapacity="35000.0000" chargingStationId="NULL" energyCharged="0.0000" energyChargedInTransit="0.0000" energyChargedStopped="0.0000" speed="3.0000" acceleration="1.0000" x="-874.0000" y="995.0500" lane="D2_0" posOnLane="126.0000" timeStopped="0"/>
    </timestep>
    <timestep time="40.00">
        <vehicle id="veh0" energyConsumed="1044.2844" totalEnergyConsumed="37284.7103" totalEnergyRegenerated="0.0000" actualBatteryCapacity="31158.4944" maximumBatteryCapacity="35000.0000" chargingStationId="NULL" energyCharged="0.0000" energyChargedInTransit="0.0000" energyChargedStopped="0.0000" speed="4.0000" acceleration="1.0000" x="-870.0000" y="995.0500" lane="D2_0" posOnLane="130.0000" timeStopped="0"/>
    </timestep>
    <timestep time="41.00">
        <vehicle id="veh0" energyConsumed="1108.5694" totalEnergyConsumed="38393.2798" totalEnergyRegenerated="0.0000" actualBatteryCapacity="30049.9250" maximumBatteryCapacity="35000.0000" chargingStationId="NULL" energyCharged="0.0000" energyChargedInTransit="0.0000" energyChargedStopped="0.0000" speed="5.0000" acceleration="1.0000" x="-865.0000" y="995.0500" lane="D2_0" posOnLane="135.0000" timeStopped="0"/>
    </timestep>
    <timestep time="42.00">
        <vehicle id="veh0" energyConsumed="1177.8622" totalEnergyConsumed="39571.1420" totalEnergyRegenerated="0.0000" actualBatteryCapacity="28872.0628" maximumBatteryCapacity="35000.0000" chargingStationId="NULL" energyCharged="0.0000" energyChargedInTransit="0.0000" energyChargedStopped="0.0000" speed="6.0000" acceleration="1.0000" x="-859.0000" y="995.0500" lane="D2_0" posOnLane="141.0000" timeStopped="0"/>
    </timestep>
    <timestep time="43.00">
        <vehicle id="veh0" energyConsumed="1252.1628" totalEnergyConsumed="40823.3048" totalEnergyRegenerated="0.0000" actualBatteryCapacity="27619.9000" maximumBatteryCapacity="35000.0000" chargingStationId="NULL" energyCharged="0.0000" energyChargedInTransit="0.0000" energyChargedStopped="0.0000" speed="7.0000" acceleration="1.0000" x="-852.0000" y="995.0500" lane="D2_0" posOnLane="148.0000" timeStopped="0"/>
    </timestep>
    <timestep time="44.00">
        <vehicle id="veh0" energyConsumed="1331.4711" totalEnergyConsumed="42154.7759" totalEnergyRegenerated="0.0000" actualBatteryCapacity="26288.4289" maximumBatteryCapacity="35000.0000" chargingStationId="NULL" energyCharged="0.0000" energyChargedInTransit="0.0000" energyChargedStopped="0.0000" speed="8.0000" acceleration="1.0000" x="-844.0000" y="995.0500" lane="D2_0" posOnLane="156.0000" timeStopped="0"/>
    </timestep>
    <timestep time="45.00">
        <vehicle id="veh0" energyConsumed="1415.7872" totalEnergyConsumed="43570.5631" totalEnergyRegenerated="0.0000" actualBatteryCapacity="24872.6417" maximumBatteryCapacity="35000.0000" chargingStationId="NULL" energyCharged="0.0000" energyChargedInTransit="0.0000" energyChargedStopped="0.0000" speed="9.0000" acceleration="1.0000" x="-835.0000" y="995.0500" lane="D2_0" posOnLane="165.0000" timeStopped="0"/>
    </timestep>
    <timestep time="46.00">
        <vehicle id="veh0" energyConsumed="0.0000" totalEnergyConsumed="43570.5631" totalEnergyRegenerated="0.0000" actualBatteryCapacity="24872.6417" maximumBatteryCapacity="35000.0000" chargingStationId="NULL" energyCharged="0.0000" energyChargedInTransit="0.0000" energyChargedStopped="0.0000" speed="5.0000" acceleration="-4.0000" x="-830.0000" y="995.0500" lane="D2_0" posOnLane="170.0000" timeStopped="0"/>
    </timestep>
    <timestep time="47.00">
        <vehicle id="veh0" energyConsumed="837.2222" totalEnergyConsumed="44407.7853" totalEnergyRegenerated="0.0000" actualBatteryCapacity="24035.4194" maximumBatteryCapacity="35000.0000" chargingStationId="CS3" energyCharged="0.0000" energyChargedInTransit="0.0000" energyChargedStopped="0.0000" speed="0.0000" acceleration="-5.0000" x="-830.0000" y="995.0500" lane="D2_0" posOnLane="170.0000" timeStopped="1"/>
    </timestep>
    <timestep time="48.00">
        <vehicle id="veh0" energyConsumed="837.2222" totalEnergyConsumed="45245.0076" totalEnergyRegenerated="0.0000" actualBatteryCapacity="23198.1972" maximumBatteryCapacity="35000.0000" chargingStationId="CS3" energyCharged="0.0000" energyChargedInTransit="0.0000" energyChargedStopped="0.0000" speed="0.0000" acceleration="-0.0000" x="-830.0000" y="995.0500" lane="D2_0" posOnLane="170.0000" timeStopped="2"/>
    </timestep>
    <timestep time="49.00">
        <vehicle id="veh0" energyConsumed="837.2222" totalEnergyConsumed="46082.2298" totalEnergyRegenerated="0.0000" actualBatteryCapacity="22360.9750" maximumBatteryCapacity="35000.0000" chargingStationId="CS3" energyCharged="0.0000" energyChargedInTransit="0.0000" energyChargedStopped="0.0000" speed="0.0000" acceleration="0.0000" x="-830.0000" y="995.0500" lane="D2_0" posOnLane="170.0000" timeStopped="3"/>
    </timestep>
    <timestep time="50.00">
        <vehicle id="veh0" energyConsumed="837.2222" totalEnergyConsumed="46919.4520" totalEnergyRegenerated="0.0000" actualBatteryCapacity="31723.7528" maximumBatteryCapacity="35000.0000" chargingStationId="CS3" energyCharged="10200.0000" energyChargedInTransit="0.0000" energyChargedStopped="10200.0000" speed="0.0000" acceleration="0.0000" x="-830.0000" y="995.0500" lane="D2_0" posOnLane="170.0000" timeStopped="4"/>
    </timestep>
    <timestep time="51.00">
        <vehicle id="veh0" energyConsumed="837.2222" totalEnergyConsumed="47756.6742" totalEnergyRegenerated="0.0000" actualBatteryCapacity="35000.0000" maximumBatteryCapacity="35000.0000" chargingStationId="CS3" energyCharged="10200.0000" energyChargedInTransit="0.0000" energyChargedStopped="10200.0000" speed="0.0000" acceleration="0.0000" x="-830.0000" y="995.0500" lane="D2_0" posOnLane="170.0000" timeStopped="5"/>
    </timestep>
    <timestep time="52.00">
        <vehicle id="veh0" energyConsumed="837.2222" totalEnergyConsumed="48593.8964" totalEnergyRegenerated="0.0000" actualBatteryCapacity="35000.0000" maximumBatteryCapacity="35000.0000" chargingStationId="CS3" energyCharged="10200.0000" energyChargedInTransit="0.0000" energyChargedStopped="10200.0000" speed="0.0000" acceleration="0.0000" x="-830.0000" y="995.0500" lane="D2_0" posOnLane="170.0000" timeStopped="6"/>
    </timestep>
    <timestep time="53.00">
        <vehicle id="veh0" energyConsumed="837.2222" totalEnergyConsumed="49431.1187" totalEnergyRegenerated="0.0000" actualBatteryCapacity="35000.0000" maximumBatteryCapacity="35000.0000" chargingStationId="CS3" energyCharged="10200.0000" energyChargedInTransit="0.0000" energyChargedStopped="10200.0000" speed="0.0000" acceleration="0.0000" x="-830.0000" y="995.0500" lane="D2_0" posOnLane="170.0000" timeStopped="7"/>
    </timestep>
    <timestep time="54.00">
        <vehicle id="veh0" energyConsumed="837.2222" totalEnergyConsumed="50268.3409" totalEnergyRegenerated="0.0000" actualBatteryCapacity="35000.0000" maximumBatteryCapacity="35000.0000" chargingStationId="CS3" energyCharged="10200.0000" energyChargedInTransit="0.0000" energyChargedStopped="10200.0000" speed="0.0000" acceleration="0.0000" x="-830.0000" y="995.0500" lane="D2_0" posOnLane="170.0000" timeStopped="8"/>
    </timestep>
    <timestep time="55.00">
        <vehicle id="veh0" energyConsumed="837.2222" totalEnergyConsumed="51105.5631" totalEnergyRegenerated="0.0000" actualBatteryCapacity="35000.0000" maximumBatteryCapacity="35000.0000" chargingStationId="CS3" energyCharged="10200.0000" energyChargedInTransit="0.0000" energyChargedStopped="10200.0000" speed="0.0000" acceleration="0.0000" x="-830.0000" y="995.0500" lane="D2_0" posOnLane="170.0000" timeStopped="9"/>
    </timestep>
    <timestep time="56.00">
        <vehicle id="veh0" energyConsumed="881.4761" totalEnergyConsumed="51987.0392" totalEnergyRegenerated="0.0000" actualBatteryCapacity="34118.5239" maximumBatteryCapacity="35000.0000" chargingStationId="NULL" energyCharged="0.0000" energyChargedInTransit="0.0000" energyChargedStopped="0.0000" speed="1.0000" acceleration="1.0000" x="-829.0000" y="998.3500" lane="D2_1" posOnLane="171.0000" timeStopped="0"/>
    </timestep>
    <timestep time="57.00">
        <vehicle id="veh0" energyConsumed="930.7378" totalEnergyConsumed="52917.7770" totalEnergyRegenerated="0.0000" actualBatteryCapacity="33187.7861" maximumBatteryCapacity="35000.0000" chargingStationId="NULL" energyCharged="0.0000" energyChargedInTransit="0.0000" energyChargedStopped="0.0000" speed="2.0000" acceleration="1.0000" x="-827.0000" y="998.3500" lane="D2_1" posOnLane="173.0000" timeStopped="0"/>
    </timestep>
    <timestep time="58.00">
        <vehicle id="veh0" energyConsumed="985.0072" totalEnergyConsumed="53902.7842" totalEnergyRegenerated="0.0000" actualBatteryCapacity="32202.7789" maximumBatteryCapacity="35000.0000" chargingStationId="NULL" energyCharged="0.0000" energyChargedInTransit="0.0000" energyChargedStopped="0.0000" speed="3.0000" acceleration="1.0000" x="-824.0000" y="998.3500" lane="D2_1" posOnLane="176.0000" timeStopped="0"/>
    </timestep>
    <timestep time="59.00">
        <vehicle id="veh0" energyConsumed="1044.2844" totalEnergyConsumed="54947.0687" totalEnergyRegenerated="0.0000" actualBatteryCapacity="31158.4944" maximumBatteryCapacity="35000.0000" chargingStationId="NULL" energyCharged="0.0000" energyChargedInTransit="0.0000" energyChargedStopped="0.0000" speed="4.0000" acceleration="1.0000" x="-820.0000" y="998.3500" lane="D2_1" posOnLane="180.0000" timeStopped="0"/>
    </timestep>
    <timestep time="60.00">
        <vehicle id="veh0" energyConsumed="1108.5694" totalEnergyConsumed="56055.6381" totalEnergyRegenerated="0.0000" actualBatteryCapacity="30049.9250" maximumBatteryCapacity="35000.0000" chargingStationId="NULL" energyCharged="0.0000" energyChargedInTransit="0.0000" energyChargedStopped="0.0000" speed="5.0000" acceleration="1.0000" x="-815.0000" y="998.3500" lane="D2_1" posOnLane="185.0000" timeStopped="0"/>
    </timestep>
    <timestep time="61.00">