<?xml version="1.0" encoding="UTF-8"?>

<!-- generated on Wed Apr 20 15:40:07 2016 by SUMO netconvert Version dev-SVN-r20491
<?xml version="1.0" encoding="UTF-8"?>

<configuration xmlns:xsi="http://www.w3.org/2001/XMLSchema-instance" xsi:noNamespaceSchemaLocation="http://sumo.dlr.de/xsd/netconvertConfiguration.xsd">

    <input>
        <node-files value="input_nodes.nod.xml"/>
        <edge-files value="input_edges.edg.xml"/>
    </input>

    <output>
        <output-file value="net.net.xml"/>
    </output>

    <processing>
        <no-internal-links value="true"/>
        <geometry.remove value="true"/>
    </processing>

    <report>
        <xml-validation value="never"/>
    </report>

</configuration>
-->

<net version="0.27" xmlns:xsi="http://www.w3.org/2001/XMLSchema-instance" xsi:noNamespaceSchemaLocation="http://sumo.dlr.de/xsd/net_file.xsd">

    <location netOffset="0.00,0.00" convBoundary="0.00,0.00,100.00,0.00" origBoundary="0.00,0.00,100.00,0.00" projParameter="!"/>

    <edge id="1" from="0" to="1.20" priority="-1">
        <lane id="1_0" index="0" speed="13.90" length="20.00" shape="0.00,-8.25 20.00,-8.25"/>
        <lane id="1_1" index="1" speed="13.90" length="20.00" shape="0.00,-4.95 20.00,-4.95"/>
        <lane id="1_2" index="2" speed="13.90" length="20.00" shape="0.00,-1.65 20.00,-1.65"/>
    </edge>
    <edge id="1.20" from="1.20" to="1" priority="-1">
        <lane id="1.20_0" index="0" speed="13.90" length="80.00" shape="20.00,-8.25 100.00,-8.25"/>
        <lane id="1.20_1" index="1" speed="13.90" length="80.00" shape="20.00,-4.95 100.00,-4.95"/>
        <lane id="1.20_2" index="2" speed="13.90" length="80.00" shape="20.00,-1.65 100.00,-1.65"/>
    </edge>

    <junction id="0" type="unregulated" x="0.00" y="0.00" incLanes="" intLanes="" shape="0.00,-0.05 0.00,-9.85"/>
    <junction id="1" type="unregulated" x="100.00" y="0.00" incLanes="1.20_0 1.20_1 1.20_2" intLanes="" shape="100.00,-9.85 100.00,-0.05"/>
    <junction id="1.20" type="priority" x="20.00" y="0.00" incLanes="1_0 1_1 1_2" intLanes="" shape="20.00,-0.05 20.00,-9.85 20.00,-0.05">
        <request index="0" response="000" foes="000"/>
        <request index="1" response="000" foes="000"/>
        <request index="2" response="000" foes="000"/>
    </junction>

    <connection from="1" to="1.20" fromLane="0" toLane="0" dir="s" state="M"/>
    <connection from="1" to="1.20" fromLane="1" toLane="1" dir="s" state="M"/>
    <connection from="1" to="1.20" fromLane="2" toLane="2" dir="s" state="M"/>

</net>
