<?xml version="1.0" encoding="UTF-8"?>

<!-- generated on 03.09.2018 13:24:35 by Eclipse SUMO netedit Version d6cfaccbb6
<configuration xmlns:xsi="http://www.w3.org/2001/XMLSchema-instance" xsi:noNamespaceSchemaLocation="https://sumo.dlr.de/xsd/netconvertConfiguration.xsd">

    <input>
        <sumo-net-file value="C:\Projects\sumo\tests\netedit\netElements\edges\select_vtypes\select_vtypes_disallowed\select_vtypes_allowed_all\input_net.net.xml"/>
    </input>

    <output>
        <output-file value="C:\Projects\sumo\tests\netedit\netElements\edges\select_vtypes\select_vtypes_disallowed\select_vtypes_allowed_all\input_net.net.xml"/>
        <plain-output-prefix value="C:\Projects\sumo\tests\netedit\netElements\edges\select_vtypes\select_vtypes_disallowed\select_vtypes_allowed_all\input_net"/>
    </output>

    <processing>
        <offset.disable-normalization value="true"/>
        <lefthand value="false"/>
    </processing>

    <junctions>
        <no-turnarounds value="true"/>
        <junctions.corner-detail value="5"/>
        <junctions.limit-turn-speed value="-1"/>
        <rectangular-lane-cut value="false"/>
    </junctions>

    <pedestrian>
        <walkingareas value="false"/>
    </pedestrian>

</configuration>
-->

<tlLogics version="1.0" xmlns:xsi="http://www.w3.org/2001/XMLSchema-instance" xsi:noNamespaceSchemaLocation="https://sumo.dlr.de/xsd/tllogic_file.xsd">
</tlLogics>
