<?xml version="1.0" encoding="UTF-8"?>

<!-- generated on 2023-01-26 15:53:11 by Eclipse SUMO netconvert Version v1_15_0+1990-019f60057a9
<configuration xmlns:xsi="http://www.w3.org/2001/XMLSchema-instance" xsi:noNamespaceSchemaLocation="http://sumo.dlr.de/xsd/netconvertConfiguration.xsd">

    <input>
        <sumo-net-file value="D:/SUMO/tests/netedit\netelements\lanes\select_vtypes\disallowed/net.net.xml"/>
    </input>

    <output>
        <plain-output-prefix value="D:/SUMO/tests/netedit\netelements\lanes\select_vtypes\disallowed/net"/>
    </output>

    <processing>
        <geometry.min-radius.fix.railways value="false"/>
        <geometry.max-grade.fix value="false"/>
        <offset.disable-normalization value="true"/>
        <lefthand value="0"/>
    </processing>

    <junctions>
        <no-turnarounds value="true"/>
        <junctions.corner-detail value="5"/>
        <junctions.limit-turn-speed value="5.50"/>
        <rectangular-lane-cut value="0"/>
    </junctions>

    <pedestrian>
        <walkingareas value="0"/>
    </pedestrian>

</configuration>
-->

<nodes version="1.16" xmlns:xsi="http://www.w3.org/2001/XMLSchema-instance" xsi:noNamespaceSchemaLocation="http://sumo.dlr.de/xsd/nodes_file.xsd">
    <location netOffset="0.00,-30.00" convBoundary="0.00,0.00,80.00,40.00" origBoundary="-10000000000.00,-10000000000.00,10000000000.00,10000000000.00" projParameter="!"/>

    <node id="gneJ10" x="50.00" y="40.00" type="dead_end"/>
    <node id="gneJ11" x="60.00" y="40.00" type="dead_end"/>
    <node id="gneJ12" x="80.00" y="40.00" type="dead_end"/>
    <node id="gneJ13" x="60.00" y="30.00" type="dead_end"/>
    <node id="gneJ14" x="80.00" y="30.00" type="dead_end"/>
    <node id="gneJ15" x="60.00" y="20.00" type="dead_end"/>
    <node id="gneJ16" x="80.00" y="20.00" type="dead_end"/>
    <node id="gneJ17" x="30.00" y="30.00" type="dead_end"/>
    <node id="gneJ18" x="50.00" y="30.00" type="dead_end"/>
    <node id="gneJ19" x="30.00" y="20.00" type="dead_end"/>
    <node id="gneJ2" x="0.00" y="40.00" type="priority"/>
    <node id="gneJ20" x="50.00" y="20.00" type="dead_end"/>
    <node id="gneJ21" x="0.00" y="10.00" type="dead_end"/>
    <node id="gneJ22" x="20.00" y="10.00" type="dead_end"/>
    <node id="gneJ23" x="30.00" y="10.00" type="dead_end"/>
    <node id="gneJ24" x="50.00" y="10.00" type="dead_end"/>
    <node id="gneJ25" x="60.00" y="10.00" type="dead_end"/>
    <node id="gneJ26" x="80.00" y="10.00" type="dead_end"/>
    <node id="gneJ27" x="30.00" y="0.00" type="dead_end"/>
    <node id="gneJ28" x="50.00" y="0.00" type="dead_end"/>
    <node id="gneJ3" x="20.00" y="40.00" type="priority"/>
    <node id="gneJ4" x="0.00" y="30.00" type="dead_end"/>
    <node id="gneJ5" x="20.00" y="30.00" type="dead_end"/>
    <node id="gneJ7" x="0.00" y="20.00" type="dead_end"/>
    <node id="gneJ8" x="20.00" y="20.00" type="dead_end"/>
    <node id="gneJ9" x="30.00" y="40.00" type="dead_end"/>
</nodes>
