<?xml version="1.0" encoding="UTF-8"?>

<!-- generated on 2023-01-26 15:53:11 by Eclipse SUMO netconvert Version v1_15_0+1990-019f60057a9
<configuration xmlns:xsi="http://www.w3.org/2001/XMLSchema-instance" xsi:noNamespaceSchemaLocation="http://sumo.dlr.de/xsd/netconvertConfiguration.xsd">

    <input>
        <sumo-net-file value="D:/SUMO/tests/netedit\netelements\lanes\select_vtypes\disallowed/net.net.xml"/>
    </input>

    <output>
        <plain-output-prefix value="D:/SUMO/tests/netedit\netelements\lanes\select_vtypes\disallowed/net"/>
    </output>

    <processing>
        <geometry.min-radius.fix.railways value="false"/>
        <geometry.max-grade.fix value="false"/>
        <offset.disable-normalization value="true"/>
        <lefthand value="0"/>
    </processing>

    <junctions>
        <no-turnarounds value="true"/>
        <junctions.corner-detail value="5"/>
        <junctions.limit-turn-speed value="5.50"/>
        <rectangular-lane-cut value="0"/>
    </junctions>

    <pedestrian>
        <walkingareas value="0"/>
    </pedestrian>

</configuration>
-->

<connections version="1.16" xmlns:xsi="http://www.w3.org/2001/XMLSchema-instance" xsi:noNamespaceSchemaLocation="http://sumo.dlr.de/xsd/connections_file.xsd">
    <connection from="-gneE14"/>

    <connection from="-gneE15"/>

    <connection from="-gneE16"/>

    <connection from="-gneE17"/>

    <connection from="-gneE18"/>

    <connection from="-gneE19"/>

    <connection from="-gneE20"/>

    <connection from="-gneE21"/>

    <connection from="-gneE22"/>

    <connection from="-gneE23"/>

    <connection from="-gneE24"/>

    <connection from="-gneE25"/>

    <connection from="gneE12" to="gneE13" fromLane="0" toLane="0"/>

    <connection from="gneE13" to="gneE12" fromLane="0" toLane="0"/>

    <connection from="gneE14"/>

    <connection from="gneE15"/>

    <connection from="gneE16"/>

    <connection from="gneE17"/>

    <connection from="gneE18"/>

    <connection from="gneE19"/>

    <connection from="gneE20"/>

    <connection from="gneE21"/>

    <connection from="gneE22"/>

    <connection from="gneE23"/>

    <connection from="gneE24"/>

    <connection from="gneE25"/>

</connections>
