<?xml version="1.0" encoding="UTF-8"?>

<!-- generated on 2023-03-27 19:54:45 by Eclipse SUMO netgenerate Version v1_16_0+1699-6b22731
This data file and the accompanying materials
are made available under the terms of the Eclipse Public License v2.0
which accompanies this distribution, and is available at
http://www.eclipse.org/legal/epl-v20.html
This file may also be made available under the following Secondary
Licenses when the conditions for such availability set forth in the Eclipse
Public License 2.0 are satisfied: GNU General Public License, version 2
or later which is available at
https://www.gnu.org/licenses/old-licenses/gpl-2.0-standalone.html
SPDX-License-Identifier: EPL-2.0 OR GPL-2.0-or-later
<configuration xmlns:xsi="http://www.w3.org/2001/XMLSchema-instance" xsi:noNamespaceSchemaLocation="http://sumo.dlr.de/xsd/netgenerateConfiguration.xsd">

    <spider_network>
        <spider value="true"/>
        <spider.omit-center value="true"/>
    </spider_network>

    <output>
        <write-license value="true"/>
        <output-file value="net.net.xml"/>
    </output>

    <report>
        <xml-validation value="never"/>
    </report>

</configuration>
-->

<net version="1.16" junctionCornerDetail="5" limitTurnSpeed="5.50" xmlns:xsi="http://www.w3.org/2001/XMLSchema-instance" xsi:noNamespaceSchemaLocation="http://sumo.dlr.de/xsd/net_file.xsd">

    <location netOffset="450.48,487.46" convBoundary="0.00,0.00,950.48,974.93" origBoundary="-450.48,-487.46,500.00,487.46" projParameter="!"/>

    <edge id=":B1_0" function="internal">
        <lane id=":B1_0_0" index="0" speed="6.69" length="6.31" shape="555.01,489.06 553.37,489.26 551.99,489.86 550.85,490.85 549.96,492.23"/>
    </edge>
    <edge id=":B1_1" function="internal">
        <lane id=":B1_1_0" index="0" speed="8.23" length="9.92" shape="555.01,489.06 552.44,488.75 550.26,487.82 548.48,486.26 547.08,484.08"/>
    </edge>
    <edge id=":B1_2" function="internal">
        <lane id=":B1_2_0" index="0" speed="3.65" length="4.67" shape="555.01,489.06 553.81,488.26 553.41,487.46 553.81,486.66 555.01,485.86"/>
    </edge>
    <edge id=":B1_3" function="internal">
        <lane id=":B1_3_0" index="0" speed="6.69" length="6.31" shape="549.96,482.69 550.85,484.08 551.99,485.07 553.37,485.67 555.01,485.86"/>
    </edge>
    <edge id=":B1_4" function="internal">
        <lane id=":B1_4_0" index="0" speed="9.48" length="9.88" shape="549.96,482.69 550.82,485.08 551.11,487.46 550.82,489.85 549.96,492.23"/>
    </edge>
    <edge id=":B1_5" function="internal">
        <lane id=":B1_5_0" index="0" speed="3.65" length="1.44" shape="549.96,482.69 549.76,484.12"/>
    </edge>
    <edge id=":B1_9" function="internal">
        <lane id=":B1_9_0" index="0" speed="3.65" length="3.23" shape="549.76,484.12 549.22,484.83 548.32,484.82 547.08,484.08"/>
    </edge>
    <edge id=":B1_6" function="internal">
        <lane id=":B1_6_0" index="0" speed="8.06" length="7.00" shape="547.08,490.85 547.69,489.15 547.89,487.46 547.69,485.77 547.08,484.08"/>
    </edge>
    <edge id=":B1_7" function="internal">
        <lane id=":B1_7_0" index="0" speed="8.23" length="2.59" shape="547.08,490.85 548.48,488.67"/>
    </edge>
    <edge id=":B1_8" function="internal">
        <lane id=":B1_8_0" index="0" speed="3.65" length="1.33" shape="547.08,490.85 548.23,490.17"/>
    </edge>
    <edge id=":B1_10" function="internal">
        <lane id=":B1_10_0" index="0" speed="8.23" length="7.33" shape="548.48,488.67 550.26,487.11 552.44,486.18 555.01,485.86"/>
    </edge>
    <edge id=":B1_11" function="internal">
        <lane id=":B1_11_0" index="0" speed="3.65" length="3.34" shape="548.23,490.17 548.32,490.11 549.22,490.10 549.76,490.81 549.96,492.23"/>
    </edge>
    <edge id=":B2_0" function="internal">
        <lane id=":B2_0_0" index="0" speed="6.69" length="6.31" shape="514.40,570.18 513.23,569.03 511.90,568.31 510.42,568.04 508.78,568.21"/>
    </edge>
    <edge id=":B2_1" function="internal">
        <lane id=":B2_1_0" index="0" speed="8.23" length="9.92" shape="514.40,570.18 513.04,567.98 512.42,565.69 512.52,563.33 513.35,560.88"/>
    </edge>
    <edge id=":B2_2" function="internal">
        <lane id=":B2_2_0" index="0" speed="3.65" length="4.67" shape="514.40,570.18 514.28,568.74 514.66,567.93 515.53,567.75 516.91,568.19"/>
    </edge>
    <edge id=":B2_3" function="internal">
        <lane id=":B2_3_0" index="0" speed="6.69" length="6.31" shape="516.24,562.27 515.71,563.82 515.64,565.33 516.04,566.78 516.91,568.19"/>
    </edge>
    <edge id=":B2_4" function="internal">
        <lane id=":B2_4_0" index="0" speed="9.48" length="9.88" shape="516.24,562.27 514.91,564.43 513.22,566.14 511.18,567.40 508.78,568.21"/>
    </edge>
    <edge id=":B2_5" function="internal">
        <lane id=":B2_5_0" index="0" speed="3.65" length="1.44" shape="516.24,562.27 515.00,563.00"/>
    </edge>
    <edge id=":B2_9" function="internal">
        <lane id=":B2_9_0" index="0" speed="3.65" length="3.23" shape="515.00,563.00 514.10,563.01 513.55,562.31 513.35,560.88"/>
    </edge>
    <edge id=":B2_6" function="internal">
        <lane id=":B2_6_0" index="0" speed="8.06" length="7.00" shape="508.07,565.09 509.77,564.52 511.22,563.62 512.41,562.41 513.35,560.88"/>
    </edge>
    <edge id=":B2_7" function="internal">
        <lane id=":B2_7_0" index="0" speed="8.23" length="2.59" shape="508.07,565.09 510.64,564.83"/>
    </edge>
    <edge id=":B2_8" function="internal">
        <lane id=":B2_8_0" index="0" speed="3.65" length="1.33" shape="508.07,565.09 509.31,565.57"/>
    </edge>
    <edge id=":B2_10" function="internal">
        <lane id=":B2_10_0" index="0" speed="8.23" length="7.33" shape="510.64,564.83 512.97,565.25 515.06,566.37 516.91,568.19"/>
    </edge>
    <edge id=":B2_11" function="internal">
        <lane id=":B2_11_0" index="0" speed="3.65" length="3.34" shape="509.31,565.57 509.41,565.61 509.98,566.30 509.77,567.17 508.78,568.21"/>
    </edge>
    <edge id=":B3_0" function="internal">
        <lane id=":B3_0_0" index="0" speed="6.69" length="6.31" shape="433.00,585.51 431.45,586.07 430.23,586.95 429.34,588.17 428.79,589.72"/>
    </edge>
    <edge id=":B3_1" function="internal">
        <lane id=":B3_1_0" index="0" speed="9.48" length="9.88" shape="433.00,585.51 430.48,585.82 428.09,585.57 425.83,584.76 423.70,583.39"/>
    </edge>
    <edge id=":B3_2" function="internal">
        <lane id=":B3_2_0" index="0" speed="3.65" length="1.44" shape="433.00,585.51 431.65,585.00"/>
    </edge>
    <edge id=":B3_9" function="internal">
        <lane id=":B3_9_0" index="0" speed="3.65" length="3.23" shape="431.65,585.00 431.08,584.31 431.30,583.44 432.29,582.39"/>
    </edge>
    <edge id=":B3_3" function="internal">
        <lane id=":B3_3_0" index="0" speed="8.06" length="7.00" shape="425.69,580.89 427.21,581.86 428.81,582.43 430.50,582.61 432.29,582.39"/>
    </edge>
    <edge id=":B3_4" function="internal">
        <lane id=":B3_4_0" index="0" speed="8.23" length="2.59" shape="425.69,580.89 427.51,582.73"/>
    </edge>
    <edge id=":B3_5" function="internal">
        <lane id=":B3_5_0" index="0" speed="3.65" length="1.33" shape="425.69,580.89 426.10,582.16"/>
    </edge>
    <edge id=":B3_10" function="internal">
        <lane id=":B3_10_0" index="0" speed="8.23" length="7.33" shape="427.51,582.73 428.63,584.82 429.05,587.15 428.79,589.72"/>
    </edge>
    <edge id=":B3_11" function="internal">
        <lane id=":B3_11_0" index="0" speed="3.65" length="3.34" shape="426.10,582.16 426.13,582.26 425.95,583.13 425.13,583.51 423.70,583.39"/>
    </edge>
    <edge id=":B3_6" function="internal">
        <lane id=":B3_6_0" index="0" speed="6.69" length="6.31" shape="425.67,589.01 425.84,587.37 425.57,585.89 424.85,584.56 423.70,583.39"/>
    </edge>
    <edge id=":B3_7" function="internal">
        <lane id=":B3_7_0" index="0" speed="8.23" length="9.92" shape="425.67,589.01 426.54,586.58 427.94,584.66 429.85,583.27 432.29,582.39"/>
    </edge>
    <edge id=":B3_8" function="internal">
        <lane id=":B3_8_0" index="0" speed="3.65" length="4.67" shape="425.67,589.01 426.71,588.02 427.58,587.81 428.27,588.38 428.79,589.72"/>
    </edge>
    <edge id=":B4_0" function="internal">
        <lane id=":B4_0_0" index="0" speed="6.69" length="6.31" shape="362.93,534.92 361.53,534.06 360.07,533.66 358.56,533.73 357.01,534.26"/>
    </edge>
    <edge id=":B4_1" function="internal">
        <lane id=":B4_1_0" index="0" speed="9.48" length="9.88" shape="362.93,534.92 361.12,533.15 359.82,531.12 359.05,528.85 358.79,526.33"/>
    </edge>
    <edge id=":B4_2" function="internal">
        <lane id=":B4_2_0" index="0" speed="3.65" length="1.44" shape="362.93,534.92 362.49,533.55"/>
    </edge>
    <edge id=":B4_9" function="internal">
        <lane id=":B4_9_0" index="0" speed="3.65" length="3.23" shape="362.49,533.55 362.67,532.68 363.49,532.30 364.92,532.42"/>
    </edge>
    <edge id=":B4_3" function="internal">
        <lane id=":B4_3_0" index="0" speed="8.06" length="7.00" shape="361.99,526.33 362.17,528.12 362.72,529.73 363.64,531.16 364.92,532.42"/>
    </edge>
    <edge id=":B4_4" function="internal">
        <lane id=":B4_4_0" index="0" speed="8.23" length="2.59" shape="361.99,526.33 361.68,528.90"/>
    </edge>
    <edge id=":B4_5" function="internal">
        <lane id=":B4_5_0" index="0" speed="3.65" length="1.33" shape="361.99,526.33 361.25,527.44"/>
    </edge>
    <edge id=":B4_10" function="internal">
        <lane id=":B4_10_0" index="0" speed="8.23" length="7.33" shape="361.68,528.90 360.74,531.08 359.19,532.86 357.01,534.26"/>
    </edge>
    <edge id=":B4_11" function="internal">
        <lane id=":B4_11_0" index="0" speed="3.65" length="3.34" shape="361.25,527.44 361.19,527.53 360.39,527.93 359.59,527.53 358.79,526.33"/>
    </edge>
    <edge id=":B4_6" function="internal">
        <lane id=":B4_6_0" index="0" speed="6.69" length="6.31" shape="355.62,531.37 357.00,530.49 357.99,529.35 358.59,527.96 358.79,526.33"/>
    </edge>
    <edge id=":B4_7" function="internal">
        <lane id=":B4_7_0" index="0" speed="8.23" length="9.92" shape="355.62,531.37 358.07,530.54 360.43,530.44 362.72,531.06 364.92,532.42"/>
    </edge>
    <edge id=":B4_8" function="internal">
        <lane id=":B4_8_0" index="0" speed="3.65" length="4.67" shape="355.62,531.37 357.05,531.57 357.75,532.12 357.74,533.02 357.01,534.26"/>
    </edge>
    <edge id=":B5_0" function="internal">
        <lane id=":B5_0_0" index="0" speed="6.69" length="6.31" shape="358.79,448.60 358.59,446.96 357.99,445.58 357.00,444.44 355.62,443.55"/>
    </edge>
    <edge id=":B5_1" function="internal">
        <lane id=":B5_1_0" index="0" speed="9.48" length="9.88" shape="358.79,448.60 359.05,446.08 359.82,443.80 361.12,441.78 362.93,440.00"/>
    </edge>
    <edge id=":B5_2" function="internal">
        <lane id=":B5_2_0" index="0" speed="3.65" length="1.44" shape="358.79,448.60 359.59,447.40"/>
    </edge>
    <edge id=":B5_9" function="internal">
        <lane id=":B5_9_0" index="0" speed="3.65" length="3.23" shape="359.59,447.40 360.39,447.00 361.19,447.40 361.99,448.60"/>
    </edge>
    <edge id=":B5_3" function="internal">
        <lane id=":B5_3_0" index="0" speed="8.06" length="7.00" shape="364.92,442.51 363.64,443.76 362.72,445.20 362.17,446.81 361.99,448.60"/>
    </edge>
    <edge id=":B5_4" function="internal">
        <lane id=":B5_4_0" index="0" speed="8.23" length="2.59" shape="364.92,442.51 362.72,443.86"/>
    </edge>
    <edge id=":B5_5" function="internal">
        <lane id=":B5_5_0" index="0" speed="3.65" length="1.33" shape="364.92,442.51 363.59,442.62"/>
    </edge>
    <edge id=":B5_10" function="internal">
        <lane id=":B5_10_0" index="0" speed="8.23" length="7.33" shape="362.72,443.86 360.43,444.49 358.07,444.39 355.62,443.55"/>
    </edge>
    <edge id=":B5_11" function="internal">
        <lane id=":B5_11_0" index="0" speed="3.65" length="3.34" shape="363.59,442.62 363.49,442.63 362.67,442.25 362.49,441.38 362.93,440.00"/>
    </edge>
    <edge id=":B5_6" function="internal">
        <lane id=":B5_6_0" index="0" speed="6.69" length="6.31" shape="357.01,440.67 358.56,441.20 360.07,441.27 361.53,440.87 362.93,440.00"/>
    </edge>
    <edge id=":B5_7" function="internal">
        <lane id=":B5_7_0" index="0" speed="8.23" length="9.92" shape="357.01,440.67 359.19,442.07 360.74,443.85 361.68,446.03 361.99,448.60"/>
    </edge>
    <edge id=":B5_8" function="internal">
        <lane id=":B5_8_0" index="0" speed="3.65" length="4.67" shape="357.01,440.67 357.74,441.91 357.75,442.81 357.05,443.35 355.62,443.55"/>
    </edge>
    <edge id=":B6_0" function="internal">
        <lane id=":B6_0_0" index="0" speed="8.06" length="7.00" shape="432.29,392.54 430.50,392.32 428.81,392.50 427.21,393.07 425.69,394.04"/>
    </edge>
    <edge id=":B6_1" function="internal">
        <lane id=":B6_1_0" index="0" speed="8.23" length="2.59" shape="432.29,392.54 429.85,391.66"/>
    </edge>
    <edge id=":B6_2" function="internal">
        <lane id=":B6_2_0" index="0" speed="3.65" length="1.33" shape="432.29,392.54 431.37,391.57"/>
    </edge>
    <edge id=":B6_9" function="internal">
        <lane id=":B6_9_0" index="0" speed="8.23" length="7.33" shape="429.85,391.66 427.94,390.27 426.54,388.35 425.67,385.92"/>
    </edge>
    <edge id=":B6_10" function="internal">
        <lane id=":B6_10_0" index="0" speed="3.65" length="3.34" shape="431.37,391.57 431.30,391.49 431.08,390.62 431.65,389.93 433.00,389.42"/>
    </edge>
    <edge id=":B6_3" function="internal">
        <lane id=":B6_3_0" index="0" speed="6.69" length="6.31" shape="428.79,385.20 429.34,386.75 430.23,387.97 431.45,388.86 433.00,389.42"/>
    </edge>
    <edge id=":B6_4" function="internal">
        <lane id=":B6_4_0" index="0" speed="8.23" length="9.92" shape="428.79,385.20 429.05,387.78 428.63,390.11 427.51,392.20 425.69,394.04"/>
    </edge>
    <edge id=":B6_5" function="internal">
        <lane id=":B6_5_0" index="0" speed="3.65" length="4.67" shape="428.79,385.20 428.27,386.55 427.58,387.12 426.71,386.91 425.67,385.92"/>
    </edge>
    <edge id=":B6_6" function="internal">
        <lane id=":B6_6_0" index="0" speed="6.69" length="6.31" shape="423.70,391.54 424.85,390.37 425.57,389.04 425.84,387.55 425.67,385.92"/>
    </edge>
    <edge id=":B6_7" function="internal">
        <lane id=":B6_7_0" index="0" speed="9.48" length="9.88" shape="423.70,391.54 425.83,390.17 428.09,389.36 430.48,389.11 433.00,389.42"/>
    </edge>
    <edge id=":B6_8" function="internal">
        <lane id=":B6_8_0" index="0" speed="3.65" length="1.44" shape="423.70,391.54 425.13,391.42"/>
    </edge>
    <edge id=":B6_11" function="internal">
        <lane id=":B6_11_0" index="0" speed="3.65" length="3.23" shape="425.13,391.42 425.95,391.79 426.13,392.67 425.69,394.04"/>
    </edge>
    <edge id=":B7_0" function="internal">
        <lane id=":B7_0_0" index="0" speed="8.06" length="7.00" shape="513.35,414.05 512.41,412.52 511.22,411.31 509.77,410.41 508.07,409.83"/>
    </edge>
    <edge id=":B7_1" function="internal">
        <lane id=":B7_1_0" index="0" speed="8.23" length="2.59" shape="513.35,414.05 512.52,411.60"/>
    </edge>
    <edge id=":B7_2" function="internal">
        <lane id=":B7_2_0" index="0" speed="3.65" length="1.33" shape="513.35,414.05 513.54,412.73"/>
    </edge>
    <edge id=":B7_9" function="internal">
        <lane id=":B7_9_0" index="0" speed="8.23" length="7.33" shape="512.52,411.60 512.42,409.23 513.04,406.95 514.40,404.75"/>
    </edge>
    <edge id=":B7_10" function="internal">
        <lane id=":B7_10_0" index="0" speed="3.65" length="3.34" shape="513.54,412.73 513.55,412.62 514.10,411.92 515.00,411.93 516.24,412.66"/>
    </edge>
    <edge id=":B7_3" function="internal">
        <lane id=":B7_3_0" index="0" speed="6.69" length="6.31" shape="516.91,406.74 516.04,408.14 515.64,409.60 515.71,411.10 516.24,412.66"/>
    </edge>
    <edge id=":B7_4" function="internal">
        <lane id=":B7_4_0" index="0" speed="8.23" length="9.92" shape="516.91,406.74 515.06,408.56 512.97,409.68 510.64,410.10 508.07,409.83"/>
    </edge>
    <edge id=":B7_5" function="internal">
        <lane id=":B7_5_0" index="0" speed="3.65" length="4.67" shape="516.91,406.74 515.53,407.18 514.66,406.99 514.28,406.18 514.40,404.75"/>
    </edge>
    <edge id=":B7_6" function="internal">
        <lane id=":B7_6_0" index="0" speed="6.69" length="6.31" shape="508.78,406.71 510.42,406.88 511.90,406.61 513.23,405.90 514.40,404.75"/>
    </edge>
    <edge id=":B7_7" function="internal">
        <lane id=":B7_7_0" index="0" speed="9.48" length="9.88" shape="508.78,406.71 511.18,407.53 513.22,408.79 514.91,410.50 516.24,412.66"/>
    </edge>
    <edge id=":B7_8" function="internal">
        <lane id=":B7_8_0" index="0" speed="3.65" length="1.44" shape="508.78,406.71 509.77,407.76"/>
    </edge>
    <edge id=":B7_11" function="internal">
        <lane id=":B7_11_0" index="0" speed="3.65" length="3.23" shape="509.77,407.76 509.98,408.63 509.41,409.32 508.07,409.83"/>
    </edge>
    <edge id=":C1_0" function="internal">
        <lane id=":C1_0_0" index="0" speed="8.94" length="11.80" shape="656.50,489.06 654.09,489.52 651.86,490.89 649.83,493.16 647.98,496.35"/>
    </edge>
    <edge id=":C1_1" function="internal">
        <lane id=":C1_1_0" index="0" speed="13.89" length="15.10" shape="656.50,489.06 641.39,489.06"/>
    </edge>
    <edge id=":C1_2" function="internal">
        <lane id=":C1_2_0" index="0" speed="10.14" length="3.58" shape="656.50,489.06 653.15,488.50 652.99,488.40"/>
    </edge>
    <edge id=":C1_3" function="internal">
        <lane id=":C1_3_0" index="0" speed="3.65" length="1.44" shape="656.50,489.06 655.30,488.26"/>
    </edge>
    <edge id=":C1_16" function="internal">
        <lane id=":C1_16_0" index="0" speed="10.14" length="11.81" shape="652.99,488.40 650.14,486.79 647.45,483.95 645.10,479.97"/>
    </edge>
    <edge id=":C1_17" function="internal">
        <lane id=":C1_17_0" index="0" speed="3.65" length="3.23" shape="655.30,488.26 654.90,487.46 655.30,486.66 656.50,485.86"/>
    </edge>
    <edge id=":C1_4" function="internal">
        <lane id=":C1_4_0" index="0" speed="8.94" length="11.80" shape="647.98,478.58 649.83,481.77 651.86,484.04 654.09,485.41 656.50,485.86"/>
    </edge>
    <edge id=":C1_5" function="internal">
        <lane id=":C1_5_0" index="0" speed="12.79" length="18.40" shape="647.98,478.58 649.59,483.02 650.12,487.46 649.59,491.91 647.98,496.35"/>
    </edge>
    <edge id=":C1_6" function="internal">
        <lane id=":C1_6_0" index="0" speed="7.44" length="16.31" shape="647.98,478.58 649.46,483.17 648.86,486.44 646.17,488.41 641.39,489.06"/>
    </edge>
    <edge id=":C1_7" function="internal">
        <lane id=":C1_7_0" index="0" speed="3.65" length="4.67" shape="647.98,478.58 647.78,480.01 647.23,480.71 646.34,480.70 645.10,479.97"/>
    </edge>
    <edge id=":C1_8" function="internal">
        <lane id=":C1_8_0" index="0" speed="5.75" length="9.17" shape="641.39,485.86 644.08,485.50 645.59,484.39 645.93,482.55 645.10,479.97"/>
    </edge>
    <edge id=":C1_9" function="internal">
        <lane id=":C1_9_0" index="0" speed="13.89" length="15.10" shape="641.39,485.86 656.50,485.86"/>
    </edge>
    <edge id=":C1_10" function="internal">
        <lane id=":C1_10_0" index="0" speed="7.44" length="4.82" shape="641.39,485.86 646.17,486.52"/>
    </edge>
    <edge id=":C1_11" function="internal">
        <lane id=":C1_11_0" index="0" speed="3.65" length="1.44" shape="641.39,485.86 642.59,486.66"/>
    </edge>
    <edge id=":C1_18" function="internal">
        <lane id=":C1_18_0" index="0" speed="7.44" length="11.49" shape="646.17,486.52 648.86,488.49 649.46,491.76 647.98,496.35"/>
    </edge>
    <edge id=":C1_19" function="internal">
        <lane id=":C1_19_0" index="0" speed="3.65" length="3.23" shape="642.59,486.66 642.99,487.46 642.59,488.26 641.39,489.06"/>
    </edge>
    <edge id=":C1_12" function="internal">
        <lane id=":C1_12_0" index="0" speed="5.75" length="9.17" shape="645.10,494.96 645.93,492.38 645.59,490.54 644.08,489.43 641.39,489.06"/>
    </edge>
    <edge id=":C1_13" function="internal">
        <lane id=":C1_13_0" index="0" speed="11.78" length="15.52" shape="645.10,494.96 646.45,491.21 646.90,487.46 646.45,483.71 645.10,479.97"/>
    </edge>
    <edge id=":C1_14" function="internal">
        <lane id=":C1_14_0" index="0" speed="10.14" length="15.39" shape="645.10,494.96 647.45,490.98 650.14,488.14 653.15,486.43 656.50,485.86"/>
    </edge>
    <edge id=":C1_15" function="internal">
        <lane id=":C1_15_0" index="0" speed="3.65" length="4.67" shape="645.10,494.96 646.34,494.23 647.23,494.21 647.78,494.92 647.98,496.35"/>
    </edge>
    <edge id=":C2_0" function="internal">
        <lane id=":C2_0_0" index="0" speed="8.94" length="11.80" shape="577.68,649.53 575.82,647.93 573.37,647.04 570.32,646.87 566.67,647.41"/>
    </edge>
    <edge id=":C2_1" function="internal">
        <lane id=":C2_1_0" index="0" speed="13.89" length="15.10" shape="577.68,649.53 568.26,637.72"/>
    </edge>
    <edge id=":C2_2" function="internal">
        <lane id=":C2_2_0" index="0" speed="10.14" length="3.58" shape="577.68,649.53 576.04,646.56 576.01,646.37"/>
    </edge>
    <edge id=":C2_3" function="internal">
        <lane id=":C2_3_0" index="0" speed="3.65" length="1.44" shape="577.68,649.53 577.56,648.09"/>
    </edge>
    <edge id=":C2_16" function="internal">
        <lane id=":C2_16_0" index="0" speed="10.14" length="11.81" shape="576.01,646.37 575.49,643.14 576.04,639.27 577.69,634.94"/>
    </edge>
    <edge id=":C2_17" function="internal">
        <lane id=":C2_17_0" index="0" speed="3.65" length="3.23" shape="577.56,648.09 577.93,647.28 578.81,647.09 580.18,647.53"/>
    </edge>
    <edge id=":C2_4" function="internal">
        <lane id=":C2_4_0" index="0" speed="8.94" length="11.80" shape="580.57,636.33 579.23,639.76 578.72,642.78 579.03,645.36 580.18,647.53"/>
    </edge>
    <edge id=":C2_5" function="internal">
        <lane id=":C2_5_0" index="0" speed="12.79" length="18.40" shape="580.57,636.33 578.10,640.36 574.96,643.55 571.15,645.90 566.67,647.41"/>
    </edge>
    <edge id=":C2_6" function="internal">
        <lane id=":C2_6_0" index="0" speed="7.44" length="16.31" shape="580.57,636.33 577.91,640.35 574.97,641.92 571.75,641.04 568.26,637.72"/>
    </edge>
    <edge id=":C2_7" function="internal">
        <lane id=":C2_7_0" index="0" speed="3.65" length="4.67" shape="580.57,636.33 579.33,637.07 578.43,637.08 577.89,636.37 577.69,634.94"/>
    </edge>
    <edge id=":C2_8" function="internal">
        <lane id=":C2_8_0" index="0" speed="5.75" length="9.17" shape="570.76,635.72 572.73,637.59 574.54,638.09 576.19,637.20 577.69,634.94"/>
    </edge>
    <edge id=":C2_9" function="internal">
        <lane id=":C2_9_0" index="0" speed="13.89" length="15.10" shape="570.76,635.72 580.18,647.53"/>
    </edge>
    <edge id=":C2_10" function="internal">
        <lane id=":C2_10_0" index="0" speed="7.44" length="4.82" shape="570.76,635.72 573.23,639.87"/>
    </edge>
    <edge id=":C2_11" function="internal">
        <lane id=":C2_11_0" index="0" speed="3.65" length="1.44" shape="570.76,635.72 570.89,637.16"/>
    </edge>
    <edge id=":C2_18" function="internal">
        <lane id=":C2_18_0" index="0" speed="7.44" length="11.49" shape="573.23,639.87 573.37,643.20 571.18,645.71 566.67,647.41"/>
    </edge>
    <edge id=":C2_19" function="internal">
        <lane id=":C2_19_0" index="0" speed="3.65" length="3.23" shape="570.89,637.16 570.51,637.97 569.64,638.16 568.26,637.72"/>
    </edge>
    <edge id=":C2_12" function="internal">
        <lane id=":C2_12_0" index="0" speed="5.75" length="9.17" shape="565.96,644.29 568.50,643.34 569.73,641.92 569.65,640.05 568.26,637.72"/>
    </edge>
    <edge id=":C2_13" function="internal">
        <lane id=":C2_13_0" index="0" speed="11.78" length="15.52" shape="565.96,644.29 569.74,643.01 572.95,641.03 575.60,638.34 577.69,634.94"/>
    </edge>
    <edge id=":C2_14" function="internal">
        <lane id=":C2_14_0" index="0" speed="10.14" length="15.39" shape="565.96,644.29 570.54,643.65 574.44,643.98 577.65,645.27 580.18,647.53"/>
    </edge>
    <edge id=":C2_15" function="internal">
        <lane id=":C2_15_0" index="0" speed="3.65" length="4.67" shape="565.96,644.29 567.31,644.81 567.88,645.50 567.67,646.37 566.67,647.41"/>
    </edge>
    <edge id=":C3_0" function="internal">
        <lane id=":C3_0_0" index="0" speed="8.94" length="11.80" shape="415.20,681.99 411.68,683.08 409.01,684.56 407.18,686.42 406.20,688.67"/>
    </edge>
    <edge id=":C3_1" function="internal">
        <lane id=":C3_1_0" index="0" speed="12.79" length="18.40" shape="415.20,681.99 410.51,682.56 406.06,682.09 401.85,680.58 397.87,678.03"/>
    </edge>
    <edge id=":C3_2" function="internal">
        <lane id=":C3_2_0" index="0" speed="7.44" length="16.31" shape="415.20,681.99 410.40,682.41 407.34,681.09 406.02,678.03 406.44,673.23"/>
    </edge>
    <edge id=":C3_3" function="internal">
        <lane id=":C3_3_0" index="0" speed="3.65" length="4.67" shape="415.20,681.99 413.85,681.47 413.29,680.78 413.50,679.91 414.49,678.87"/>
    </edge>
    <edge id=":C3_4" function="internal">
        <lane id=":C3_4_0" index="0" speed="5.75" length="9.17" shape="409.56,673.94 409.33,676.64 410.07,678.36 411.79,679.10 414.49,678.87"/>
    </edge>
    <edge id=":C3_5" function="internal">
        <lane id=":C3_5_0" index="0" speed="13.89" length="15.10" shape="409.56,673.94 406.20,688.67"/>
    </edge>
    <edge id=":C3_6" function="internal">
        <lane id=":C3_6_0" index="0" speed="7.44" length="4.82" shape="409.56,673.94 407.86,678.45"/>
    </edge>
    <edge id=":C3_7" function="internal">
        <lane id=":C3_7_0" index="0" speed="3.65" length="1.44" shape="409.56,673.94 408.52,674.93"/>
    </edge>
    <edge id=":C3_16" function="internal">
        <lane id=":C3_16_0" index="0" speed="7.44" length="11.49" shape="407.86,678.45 405.35,680.64 402.02,680.50 397.87,678.03"/>
    </edge>
    <edge id=":C3_17" function="internal">
        <lane id=":C3_17_0" index="0" speed="3.65" length="3.23" shape="408.52,674.93 407.65,675.14 406.96,674.58 406.44,673.23"/>
    </edge>
    <edge id=":C3_8" function="internal">
        <lane id=":C3_8_0" index="0" speed="5.75" length="9.17" shape="399.87,675.53 402.20,676.92 404.07,676.99 405.49,675.77 406.44,673.23"/>
    </edge>
    <edge id=":C3_9" function="internal">
        <lane id=":C3_9_0" index="0" speed="11.78" length="15.52" shape="399.87,675.53 403.22,677.68 406.78,678.96 410.53,679.35 414.49,678.87"/>
    </edge>
    <edge id=":C3_10" function="internal">
        <lane id=":C3_10_0" index="0" speed="10.14" length="15.39" shape="399.87,675.53 403.23,678.71 405.40,681.96 406.39,685.28 406.20,688.67"/>
    </edge>
    <edge id=":C3_11" function="internal">
        <lane id=":C3_11_0" index="0" speed="3.65" length="4.67" shape="399.87,675.53 400.31,676.90 400.12,677.78 399.31,678.15 397.87,678.03"/>
    </edge>
    <edge id=":C3_12" function="internal">
        <lane id=":C3_12_0" index="0" speed="8.94" length="11.80" shape="403.08,687.95 403.17,685.50 402.34,683.03 400.57,680.54 397.87,678.03"/>
    </edge>
    <edge id=":C3_13" function="internal">
        <lane id=":C3_13_0" index="0" speed="13.89" length="15.10" shape="403.08,687.95 406.44,673.23"/>
    </edge>
    <edge id=":C3_14" function="internal">
        <lane id=":C3_14_0" index="0" speed="10.14" length="3.58" shape="403.08,687.95 404.38,684.82 404.51,684.68"/>
    </edge>
    <edge id=":C3_15" function="internal">
        <lane id=":C3_15_0" index="0" speed="3.65" length="1.44" shape="403.08,687.95 404.13,686.96"/>
    </edge>
    <edge id=":C3_18" function="internal">
        <lane id=":C3_18_0" index="0" speed="10.14" length="11.81" shape="404.51,684.68 406.72,682.26 410.08,680.28 414.49,678.87"/>
    </edge>
    <edge id=":C3_19" function="internal">
        <lane id=":C3_19_0" index="0" speed="3.65" length="3.23" shape="404.13,686.96 405.00,686.75 405.69,687.32 406.20,688.67"/>
    </edge>
    <edge id=":C4_0" function="internal">
        <lane id=":C4_0_0" index="0" speed="8.94" length="11.80" shape="276.40,581.16 273.35,579.09 270.53,577.92 267.94,577.66 265.57,578.29"/>
    </edge>
    <edge id=":C4_1" function="internal">
        <lane id=":C4_1_0" index="0" speed="12.79" length="18.40" shape="276.40,581.16 273.03,577.85 270.62,574.08 269.17,569.85 268.69,565.15"/>
    </edge>
    <edge id=":C4_2" function="internal">
        <lane id=":C4_2_0" index="0" speed="7.44" length="16.31" shape="276.40,581.16 273.08,577.67 272.20,574.46 273.77,571.52 277.79,568.85"/>
    </edge>
    <edge id=":C4_3" function="internal">
        <lane id=":C4_3_0" index="0" speed="3.65" length="4.67" shape="276.40,581.16 275.96,579.79 276.15,578.91 276.96,578.54 278.40,578.66"/>
    </edge>
    <edge id=":C4_4" function="internal">
        <lane id=":C4_4_0" index="0" speed="5.75" length="9.17" shape="279.18,571.74 276.92,573.23 276.03,574.89 276.53,576.70 278.40,578.66"/>
    </edge>
    <edge id=":C4_5" function="internal">
        <lane id=":C4_5_0" index="0" speed="13.89" length="15.10" shape="279.18,571.74 265.57,578.29"/>
    </edge>
    <edge id=":C4_6" function="internal">
        <lane id=":C4_6_0" index="0" speed="7.44" length="4.82" shape="279.18,571.74 274.59,573.22"/>
    </edge>
    <edge id=":C4_7" function="internal">
        <lane id=":C4_7_0" index="0" speed="3.65" length="1.44" shape="279.18,571.74 277.75,571.54"/>
    </edge>
    <edge id=":C4_16" function="internal">
        <lane id=":C4_16_0" index="0" speed="7.44" length="11.49" shape="274.59,573.22 271.31,572.61 269.35,569.92 268.69,565.15"/>
    </edge>
    <edge id=":C4_17" function="internal">