<?xml version="1.0" encoding="UTF-8"?>

<!-- generated on Thu May 17 09:05:14 2018 by Eclipse SUMO netgenerate Version a076040
This data file and the accompanying materials
are made available under the terms of the Eclipse Public License v2.0
which accompanies this distribution, and is available at
http://www.eclipse.org/legal/epl-v20.html
SPDX-License-Identifier: EPL-2.0
<configuration xmlns:xsi="http://www.w3.org/2001/XMLSchema-instance" xsi:noNamespaceSchemaLocation="http://sumo.dlr.de/xsd/netgenerateConfiguration.xsd">

    <spider_network>
        <spider value="true"/>
        <spider.omit-center value="true"/>
    </spider_network>

    <output>
        <write-license value="true"/>
        <output-file value="net.net.xml"/>
    </output>

    <report>
        <xml-validation value="never"/>
    </report>

</configuration>
-->

<net version="0.27" xmlns:xsi="http://www.w3.org/2001/XMLSchema-instance" xsi:noNamespaceSchemaLocation="http://sumo.dlr.de/xsd/net_file.xsd">

    <location netOffset="1941.88,1985.42" convBoundary="0.00,0.00,3941.88,3970.84" origBoundary="-1941.88,-1985.42,2000.00,1985.42" projParameter="!"/>

    <edge id=":B1_0" function="internal">
        <lane id=":B1_0_0" index="0" speed="13.90" length="4.72" shape="2045.89,1987.02 2044.64,1987.18 2043.66,1987.69 2042.94,1988.52 2042.48,1989.69"/>
    </edge>
    <edge id=":B1_1" function="internal">
        <lane id=":B1_1_0" index="0" speed="13.90" length="9.02" shape="2045.89,1987.02 2043.51,1986.70 2041.63,1985.74 2040.25,1984.14 2039.37,1981.91"/>
    </edge>
    <edge id=":B1_2" function="internal">
        <lane id=":B1_2_0" index="0" speed="13.90" length="4.67" shape="2045.89,1987.02 2044.69,1986.22 2044.29,1985.42 2044.69,1984.62 2045.89,1983.82"/>
    </edge>
    <edge id=":B1_3" function="internal">
        <lane id=":B1_3_0" index="0" speed="13.90" length="4.72" shape="2042.48,1981.14 2042.94,1982.31 2043.66,1983.15 2044.64,1983.65 2045.89,1983.82"/>
    </edge>
    <edge id=":B1_4" function="internal">
        <lane id=":B1_4_0" index="0" speed="13.90" length="8.70" shape="2042.48,1981.14 2043.05,1983.65 2043.25,1985.42 2043.05,1987.19 2042.48,1989.69"/>
    </edge>
    <edge id=":B1_5" function="internal">
        <lane id=":B1_5_0" index="0" speed="13.90" length="2.34" shape="2042.48,1981.14 2041.99,1982.50 2041.31,1983.08"/>
    </edge>
    <edge id=":B1_9" function="internal">
        <lane id=":B1_9_0" index="0" speed="13.90" length="2.34" shape="2041.31,1983.08 2040.44,1982.88 2039.37,1981.91"/>
    </edge>
    <edge id=":B1_6" function="internal">
        <lane id=":B1_6_0" index="0" speed="13.90" length="7.14" shape="2039.37,1988.93 2039.84,1986.87 2040.00,1985.42 2039.84,1983.96 2039.37,1981.91"/>
    </edge>
    <edge id=":B1_7" function="internal">
        <lane id=":B1_7_0" index="0" speed="13.90" length="4.51" shape="2039.37,1988.93 2040.25,1986.69 2041.63,1985.09"/>
    </edge>
    <edge id=":B1_8" function="internal">
        <lane id=":B1_8_0" index="0" speed="13.90" length="2.34" shape="2039.37,1988.93 2040.44,1987.95 2041.31,1987.75"/>
    </edge>
    <edge id=":B1_10" function="internal">
        <lane id=":B1_10_0" index="0" speed="13.90" length="4.51" shape="2041.63,1985.09 2043.51,1984.14 2045.89,1983.82"/>
    </edge>
    <edge id=":B1_11" function="internal">
        <lane id=":B1_11_0" index="0" speed="13.90" length="2.34" shape="2041.31,1987.75 2041.99,1988.33 2042.48,1989.69"/>
    </edge>
    <edge id=":B10_0" function="internal">
        <lane id=":B10_0_0" index="0" speed="13.90" length="7.14" shape="1910.59,1893.02 1908.51,1893.31 1907.09,1893.68 1905.79,1894.34 1904.03,1895.51"/>
    </edge>
    <edge id=":B10_1" function="internal">
        <lane id=":B10_1_0" index="0" speed="13.90" length="4.51" shape="1910.59,1893.02 1908.19,1892.99 1906.21,1892.27"/>
    </edge>
    <edge id=":B10_2" function="internal">
        <lane id=":B10_2_0" index="0" speed="13.90" length="2.34" shape="1910.59,1893.02 1909.31,1892.37 1908.81,1891.63"/>
    </edge>
    <edge id=":B10_9" function="internal">
        <lane id=":B10_9_0" index="0" speed="13.90" length="4.51" shape="1906.21,1892.27 1904.65,1890.85 1903.51,1888.74"/>
    </edge>
    <edge id=":B10_10" function="internal">
        <lane id=":B10_10_0" index="0" speed="13.90" length="2.34" shape="1908.81,1891.63 1909.11,1890.78 1910.21,1889.84"/>
    </edge>
    <edge id=":B10_3" function="internal">
        <lane id=":B10_3_0" index="0" speed="13.90" length="4.72" shape="1906.50,1887.60 1907.10,1888.71 1907.91,1889.45 1908.95,1889.83 1910.21,1889.84"/>
    </edge>
    <edge id=":B10_4" function="internal">
        <lane id=":B10_4_0" index="0" speed="13.90" length="9.02" shape="1906.50,1887.60 1907.04,1889.94 1906.81,1892.04 1905.81,1893.89 1904.03,1895.51"/>
    </edge>
    <edge id=":B10_5" function="internal">
        <lane id=":B10_5_0" index="0" speed="13.90" length="4.67" shape="1906.50,1887.60 1906.18,1889.01 1905.57,1889.67 1904.68,1889.58 1903.51,1888.74"/>
    </edge>
    <edge id=":B10_6" function="internal">
        <lane id=":B10_6_0" index="0" speed="13.90" length="4.72" shape="1902.22,1892.88 1903.15,1892.03 1903.67,1891.06 1903.79,1889.96 1903.51,1888.74"/>
    </edge>
    <edge id=":B10_7" function="internal">
        <lane id=":B10_7_0" index="0" speed="13.90" length="8.70" shape="1902.22,1892.88 1904.35,1891.45 1905.94,1890.64 1907.66,1890.19 1910.21,1889.84"/>
    </edge>
    <edge id=":B10_8" function="internal">
        <lane id=":B10_8_0" index="0" speed="13.90" length="2.34" shape="1902.22,1892.88 1903.66,1892.85 1904.44,1893.28"/>
    </edge>
    <edge id=":B10_11" function="internal">
        <lane id=":B10_11_0" index="0" speed="13.90" length="2.34" shape="1904.44,1893.28 1904.57,1894.17 1904.03,1895.51"/>
    </edge>
    <edge id=":B11_0" function="internal">
        <lane id=":B11_0_0" index="0" speed="13.90" length="7.14" shape="1957.12,1889.06 1955.13,1888.35 1953.71,1888.02 1952.25,1888.00 1950.15,1888.22"/>
    </edge>
    <edge id=":B11_1" function="internal">
        <lane id=":B11_1_0" index="0" speed="13.90" length="4.51" shape="1957.12,1889.06 1955.00,1887.92 1953.59,1886.36"/>
    </edge>
    <edge id=":B11_2" function="internal">
        <lane id=":B11_2_0" index="0" speed="13.90" length="2.34" shape="1957.12,1889.06 1956.28,1887.89 1956.19,1887.00"/>
    </edge>
    <edge id=":B11_9" function="internal">
        <lane id=":B11_9_0" index="0" speed="13.90" length="4.51" shape="1953.59,1886.36 1952.86,1884.38 1952.83,1881.98"/>
    </edge>
    <edge id=":B11_10" function="internal">
        <lane id=":B11_10_0" index="0" speed="13.90" length="2.34" shape="1956.19,1887.00 1956.85,1886.39 1958.25,1886.07"/>
    </edge>
    <edge id=":B11_3" function="internal">
        <lane id=":B11_3_0" index="0" speed="13.90" length="4.72" shape="1956.01,1882.36 1956.02,1883.62 1956.40,1884.66 1957.15,1885.47 1958.25,1886.07"/>
    </edge>
    <edge id=":B11_4" function="internal">
        <lane id=":B11_4_0" index="0" speed="13.90" length="9.02" shape="1956.01,1882.36 1955.40,1884.69 1954.23,1886.44 1952.48,1887.61 1950.15,1888.22"/>
    </edge>
    <edge id=":B11_5" function="internal">
        <lane id=":B11_5_0" index="0" speed="13.90" length="4.67" shape="1956.01,1882.36 1955.07,1883.46 1954.23,1883.76 1953.48,1883.26 1952.83,1881.98"/>
    </edge>
    <edge id=":B11_6" function="internal">
        <lane id=":B11_6_0" index="0" speed="13.90" length="4.72" shape="1949.77,1885.04 1950.98,1884.73 1951.90,1884.11 1952.52,1883.19 1952.83,1881.98"/>
    </edge>
    <edge id=":B11_7" function="internal">
        <lane id=":B11_7_0" index="0" speed="13.90" length="8.70" shape="1949.77,1885.04 1952.32,1884.77 1954.10,1884.80 1955.84,1885.20 1958.25,1886.07"/>
    </edge>
    <edge id=":B11_8" function="internal">
        <lane id=":B11_8_0" index="0" speed="13.90" length="2.34" shape="1949.77,1885.04 1951.05,1885.69 1951.55,1886.44"/>
    </edge>
    <edge id=":B11_11" function="internal">
        <lane id=":B11_11_0" index="0" speed="13.90" length="2.34" shape="1951.55,1886.44 1951.25,1887.28 1950.15,1888.22"/>
    </edge>
    <edge id=":B12_0" function="internal">
        <lane id=":B12_0_0" index="0" speed="13.90" length="7.14" shape="2000.15,1907.18 1998.73,1905.62 1997.62,1904.67 1996.33,1903.97 1994.38,1903.19"/>
    </edge>
    <edge id=":B12_1" function="internal">
        <lane id=":B12_1_0" index="0" speed="13.90" length="4.51" shape="2000.15,1907.18 1998.81,1905.19 1998.28,1903.14"/>
    </edge>
    <edge id=":B12_2" function="internal">
        <lane id=":B12_2_0" index="0" speed="13.90" length="2.34" shape="2000.15,1907.18 1999.95,1905.75 2000.29,1904.92"/>
    </edge>
    <edge id=":B12_9" function="internal">
        <lane id=":B12_9_0" index="0" speed="13.90" length="4.51" shape="1998.28,1903.14 1998.56,1901.05 1999.65,1898.91"/>
    </edge>
    <edge id=":B12_10" function="internal">
        <lane id=":B12_10_0" index="0" speed="13.90" length="2.34" shape="2000.29,1904.92 2001.15,1904.69 2002.54,1905.06"/>
    </edge>
    <edge id=":B12_3" function="internal">
        <lane id=":B12_3_0" index="0" speed="13.90" length="4.72" shape="2002.28,1900.73 2001.71,1901.85 2001.57,1902.95 2001.84,1904.01 2002.54,1905.06"/>
    </edge>
    <edge id=":B12_4" function="internal">
        <lane id=":B12_4_0" index="0" speed="13.90" length="9.02" shape="2002.28,1900.73 2000.67,1902.51 1998.81,1903.51 1996.71,1903.74 1994.38,1903.19"/>
    </edge>
    <edge id=":B12_5" function="internal">
        <lane id=":B12_5_0" index="0" speed="13.90" length="4.67" shape="2002.28,1900.73 2000.94,1901.26 2000.06,1901.14 1999.63,1900.35 1999.65,1898.91"/>
    </edge>
    <edge id=":B12_6" function="internal">
        <lane id=":B12_6_0" index="0" speed="13.90" length="4.72" shape="1995.51,1900.20 1996.73,1900.49 1997.83,1900.37 1998.80,1899.84 1999.65,1898.91"/>
    </edge>
    <edge id=":B12_7" function="internal">
        <lane id=":B12_7_0" index="0" speed="13.90" length="8.70" shape="1995.51,1900.20 1997.90,1901.15 1999.46,1902.00 2000.81,1903.16 2002.54,1905.06"/>
    </edge>
    <edge id=":B12_8" function="internal">
        <lane id=":B12_8_0" index="0" speed="13.90" length="2.34" shape="1995.51,1900.20 1996.35,1901.38 1996.44,1902.27"/>
    </edge>
    <edge id=":B12_11" function="internal">
        <lane id=":B12_11_0" index="0" speed="13.90" length="2.34" shape="1996.44,1902.27 1995.78,1902.87 1994.38,1903.19"/>
    </edge>
    <edge id=":B13_0" function="internal">
        <lane id=":B13_0_0" index="0" speed="13.90" length="7.14" shape="2029.83,1943.22 2029.30,1941.18 2028.76,1939.82 2027.95,1938.61 2026.57,1937.01"/>
    </edge>
    <edge id=":B13_1" function="internal">
        <lane id=":B13_1_0" index="0" speed="13.90" length="4.51" shape="2029.83,1943.22 2029.58,1940.83 2030.05,1938.78"/>
    </edge>
    <edge id=":B13_2" function="internal">
        <lane id=":B13_2_0" index="0" speed="13.90" length="2.34" shape="2029.83,1943.22 2030.32,1941.86 2031.01,1941.28"/>
    </edge>
    <edge id=":B13_9" function="internal">
        <lane id=":B13_9_0" index="0" speed="13.90" length="4.51" shape="2030.05,1938.78 2031.27,1937.06 2033.23,1935.67"/>
    </edge>
    <edge id=":B13_10" function="internal">
        <lane id=":B13_10_0" index="0" speed="13.90" length="2.34" shape="2031.01,1941.28 2031.88,1941.48 2032.94,1942.45"/>
    </edge>
    <edge id=":B13_3" function="internal">
        <lane id=":B13_3_0" index="0" speed="13.90" length="4.72" shape="2034.72,1938.50 2033.70,1939.23 2033.06,1940.13 2032.81,1941.20 2032.94,1942.45"/>
    </edge>
    <edge id=":B13_4" function="internal">
        <lane id=":B13_4_0" index="0" speed="13.90" length="9.02" shape="2034.72,1938.50 2032.46,1939.32 2030.36,1939.35 2028.39,1938.58 2026.57,1937.01"/>
    </edge>
    <edge id=":B13_5" function="internal">
        <lane id=":B13_5_0" index="0" speed="13.90" length="4.67" shape="2034.72,1938.50 2033.29,1938.35 2032.56,1937.83 2032.54,1936.93 2033.23,1935.67"/>
    </edge>
    <edge id=":B13_6" function="internal">
        <lane id=":B13_6_0" index="0" speed="13.90" length="4.72" shape="2028.97,1934.89 2029.92,1935.71 2030.95,1936.11 2032.05,1936.10 2033.23,1935.67"/>
    </edge>
    <edge id=":B13_7" function="internal">
        <lane id=":B13_7_0" index="0" speed="13.90" length="8.70" shape="2028.97,1934.89 2030.64,1936.83 2031.63,1938.31 2032.29,1939.97 2032.94,1942.45"/>
    </edge>
    <edge id=":B13_8" function="internal">
        <lane id=":B13_8_0" index="0" speed="13.90" length="2.34" shape="2028.97,1934.89 2029.17,1936.31 2028.83,1937.14"/>
    </edge>
    <edge id=":B13_11" function="internal">
        <lane id=":B13_11_0" index="0" speed="13.90" length="2.34" shape="2028.83,1937.14 2027.97,1937.37 2026.57,1937.01"/>
    </edge>
    <edge id=":B2_0" function="internal">
        <lane id=":B2_0_0" index="0" speed="13.90" length="4.72" shape="2033.23,2035.17 2032.05,2034.74 2030.95,2034.72 2029.92,2035.13 2028.97,2035.95"/>
    </edge>
    <edge id=":B2_1" function="internal">
        <lane id=":B2_1_0" index="0" speed="13.90" length="9.02" shape="2033.23,2035.17 2031.27,2033.78 2030.05,2032.06 2029.58,2030.00 2029.83,2027.62"/>
    </edge>
    <edge id=":B2_2" function="internal">
        <lane id=":B2_2_0" index="0" speed="13.90" length="4.67" shape="2033.23,2035.17 2032.54,2033.90 2032.56,2033.01 2033.29,2032.49 2034.72,2032.34"/>
    </edge>
    <edge id=":B2_3" function="internal">
        <lane id=":B2_3_0" index="0" speed="13.90" length="4.72" shape="2032.94,2028.38 2032.81,2029.63 2033.06,2030.71 2033.70,2031.61 2034.72,2032.34"/>
    </edge>
    <edge id=":B2_4" function="internal">
        <lane id=":B2_4_0" index="0" speed="13.90" length="8.70" shape="2032.94,2028.38 2032.29,2030.87 2031.63,2032.52 2030.64,2034.00 2028.97,2035.95"/>
    </edge>
    <edge id=":B2_5" function="internal">
        <lane id=":B2_5_0" index="0" speed="13.90" length="2.34" shape="2032.94,2028.38 2031.88,2029.36 2031.01,2029.55"/>
    </edge>
    <edge id=":B2_9" function="internal">
        <lane id=":B2_9_0" index="0" speed="13.90" length="2.34" shape="2031.01,2029.55 2030.32,2028.97 2029.83,2027.62"/>
    </edge>
    <edge id=":B2_6" function="internal">
        <lane id=":B2_6_0" index="0" speed="13.90" length="7.14" shape="2026.57,2033.83 2027.95,2032.23 2028.76,2031.02 2029.30,2029.65 2029.83,2027.62"/>
    </edge>
    <edge id=":B2_7" function="internal">
        <lane id=":B2_7_0" index="0" speed="13.90" length="4.51" shape="2026.57,2033.83 2028.39,2032.26 2030.36,2031.49"/>
    </edge>
    <edge id=":B2_8" function="internal">
        <lane id=":B2_8_0" index="0" speed="13.90" length="2.34" shape="2026.57,2033.83 2027.97,2033.46 2028.83,2033.69"/>
    </edge>
    <edge id=":B2_10" function="internal">
        <lane id=":B2_10_0" index="0" speed="13.90" length="4.51" shape="2030.36,2031.49 2032.46,2031.51 2034.72,2032.34"/>
    </edge>
    <edge id=":B2_11" function="internal">
        <lane id=":B2_11_0" index="0" speed="13.90" length="2.34" shape="2028.83,2033.69 2029.17,2034.52 2028.97,2035.95"/>
    </edge>
    <edge id=":B3_0" function="internal">
        <lane id=":B3_0_0" index="0" speed="13.90" length="4.72" shape="1999.65,2071.92 1998.80,2070.99 1997.83,2070.47 1996.73,2070.35 1995.51,2070.63"/>
    </edge>
    <edge id=":B3_1" function="internal">
        <lane id=":B3_1_0" index="0" speed="13.90" length="9.02" shape="1999.65,2071.92 1998.56,2069.78 1998.28,2067.69 1998.81,2065.65 2000.15,2063.66"/>
    </edge>
    <edge id=":B3_2" function="internal">
        <lane id=":B3_2_0" index="0" speed="13.90" length="4.67" shape="1999.65,2071.92 1999.63,2070.48 2000.06,2069.70 2000.94,2069.57 2002.28,2070.10"/>
    </edge>
    <edge id=":B3_3" function="internal">
        <lane id=":B3_3_0" index="0" speed="13.90" length="4.72" shape="2002.54,2065.78 2001.84,2066.82 2001.57,2067.89 2001.71,2068.98 2002.28,2070.10"/>
    </edge>
    <edge id=":B3_4" function="internal">
        <lane id=":B3_4_0" index="0" speed="13.90" length="8.70" shape="2002.54,2065.78 2000.81,2067.67 1999.46,2068.84 1997.90,2069.68 1995.51,2070.63"/>
    </edge>
    <edge id=":B3_5" function="internal">
        <lane id=":B3_5_0" index="0" speed="13.90" length="2.34" shape="2002.54,2065.78 2001.15,2066.15 2000.29,2065.91"/>
    </edge>
    <edge id=":B3_9" function="internal">
        <lane id=":B3_9_0" index="0" speed="13.90" length="2.34" shape="2000.29,2065.91 1999.95,2065.08 2000.15,2063.66"/>
    </edge>
    <edge id=":B3_6" function="internal">
        <lane id=":B3_6_0" index="0" speed="13.90" length="7.14" shape="1994.38,2067.64 1996.33,2066.86 1997.62,2066.17 1998.73,2065.21 2000.15,2063.66"/>
    </edge>
    <edge id=":B3_7" function="internal">
        <lane id=":B3_7_0" index="0" speed="13.90" length="4.51" shape="1994.38,2067.64 1996.71,2067.10 1998.81,2067.32"/>
    </edge>
    <edge id=":B3_8" function="internal">
        <lane id=":B3_8_0" index="0" speed="13.90" length="2.34" shape="1994.38,2067.64 1995.78,2067.96 1996.44,2068.57"/>
    </edge>
    <edge id=":B3_10" function="internal">
        <lane id=":B3_10_0" index="0" speed="13.90" length="4.51" shape="1998.81,2067.32 2000.67,2068.33 2002.28,2070.10"/>
    </edge>
    <edge id=":B3_11" function="internal">
        <lane id=":B3_11_0" index="0" speed="13.90" length="2.34" shape="1996.44,2068.57 1996.35,2069.46 1995.51,2070.63"/>
    </edge>
    <edge id=":B4_0" function="internal">
        <lane id=":B4_0_0" index="0" speed="13.90" length="4.72" shape="1952.83,2088.86 1952.52,2087.64 1951.90,2086.73 1950.98,2086.11 1949.77,2085.79"/>
    </edge>
    <edge id=":B4_1" function="internal">
        <lane id=":B4_1_0" index="0" speed="13.90" length="9.02" shape="1952.83,2088.86 1952.86,2086.46 1953.59,2084.48 1955.00,2082.91 1957.12,2081.77"/>
    </edge>
    <edge id=":B4_2" function="internal">
        <lane id=":B4_2_0" index="0" speed="13.90" length="4.67" shape="1952.83,2088.86 1953.48,2087.57 1954.23,2087.08 1955.07,2087.38 1956.01,2088.47"/>
    </edge>
    <edge id=":B4_3" function="internal">
        <lane id=":B4_3_0" index="0" speed="13.90" length="4.72" shape="1958.25,2084.76 1957.15,2085.36 1956.40,2086.18 1956.02,2087.22 1956.01,2088.47"/>
    </edge>
    <edge id=":B4_4" function="internal">
        <lane id=":B4_4_0" index="0" speed="13.90" length="8.70" shape="1958.25,2084.76 1955.84,2085.64 1954.10,2086.04 1952.32,2086.06 1949.77,2085.79"/>
    </edge>
    <edge id=":B4_5" function="internal">
        <lane id=":B4_5_0" index="0" speed="13.90" length="2.34" shape="1958.25,2084.76 1956.85,2084.44 1956.19,2083.84"/>
    </edge>
    <edge id=":B4_9" function="internal">
        <lane id=":B4_9_0" index="0" speed="13.90" length="2.34" shape="1956.19,2083.84 1956.28,2082.95 1957.12,2081.77"/>
    </edge>
    <edge id=":B4_6" function="internal">
        <lane id=":B4_6_0" index="0" speed="13.90" length="7.14" shape="1950.15,2082.62 1952.25,2082.84 1953.71,2082.82 1955.13,2082.49 1957.12,2081.77"/>
    </edge>
    <edge id=":B4_7" function="internal">
        <lane id=":B4_7_0" index="0" speed="13.90" length="4.51" shape="1950.15,2082.62 1952.48,2083.22 1954.23,2084.40"/>
    </edge>
    <edge id=":B4_8" function="internal">
        <lane id=":B4_8_0" index="0" speed="13.90" length="2.34" shape="1950.15,2082.62 1951.25,2083.56 1951.55,2084.40"/>
    </edge>
    <edge id=":B4_10" function="internal">
        <lane id=":B4_10_0" index="0" speed="13.90" length="4.51" shape="1954.23,2084.40 1955.40,2086.15 1956.01,2088.47"/>
    </edge>
    <edge id=":B4_11" function="internal">
        <lane id=":B4_11_0" index="0" speed="13.90" length="2.34" shape="1951.55,2084.40 1951.05,2085.14 1949.77,2085.79"/>
    </edge>
    <edge id=":B5_0" function="internal">
        <lane id=":B5_0_0" index="0" speed="13.90" length="4.72" shape="1910.21,2080.99 1908.95,2081.01 1907.91,2081.39 1907.10,2082.13 1906.50,2083.23"/>
    </edge>
    <edge id=":B5_1" function="internal">
        <lane id=":B5_1_0" index="0" speed="13.90" length="8.70" shape="1910.21,2080.99 1907.66,2080.64 1905.94,2080.19 1904.35,2079.39 1902.22,2077.96"/>
    </edge>
    <edge id=":B5_2" function="internal">
        <lane id=":B5_2_0" index="0" speed="13.90" length="2.34" shape="1910.21,2080.99 1909.11,2080.05 1908.81,2079.21"/>
    </edge>
    <edge id=":B5_9" function="internal">
        <lane id=":B5_9_0" index="0" speed="13.90" length="2.34" shape="1908.81,2079.21 1909.31,2078.46 1910.59,2077.81"/>
    </edge>
    <edge id=":B5_3" function="internal">
        <lane id=":B5_3_0" index="0" speed="13.90" length="7.14" shape="1904.03,2075.33 1905.79,2076.50 1907.09,2077.16 1908.51,2077.53 1910.59,2077.81"/>
    </edge>
    <edge id=":B5_4" function="internal">
        <lane id=":B5_4_0" index="0" speed="13.90" length="4.51" shape="1904.03,2075.33 1905.81,2076.94 1906.81,2078.80"/>
    </edge>
    <edge id=":B5_5" function="internal">
        <lane id=":B5_5_0" index="0" speed="13.90" length="2.34" shape="1904.03,2075.33 1904.57,2076.67 1904.44,2077.55"/>
    </edge>
    <edge id=":B5_10" function="internal">
        <lane id=":B5_10_0" index="0" speed="13.90" length="4.51" shape="1906.81,2078.80 1907.04,2080.89 1906.50,2083.23"/>
    </edge>
    <edge id=":B5_11" function="internal">
        <lane id=":B5_11_0" index="0" speed="13.90" length="2.34" shape="1904.44,2077.55 1903.66,2077.98 1902.22,2077.96"/>
    </edge>
    <edge id=":B5_6" function="internal">
        <lane id=":B5_6_0" index="0" speed="13.90" length="4.72" shape="1903.51,2082.10 1903.79,2080.87 1903.67,2079.78 1903.15,2078.81 1902.22,2077.96"/>
    </edge>
    <edge id=":B5_7" function="internal">
        <lane id=":B5_7_0" index="0" speed="13.90" length="9.02" shape="1903.51,2082.10 1904.65,2079.99 1906.21,2078.57 1908.19,2077.84 1910.59,2077.81"/>
    </edge>
    <edge id=":B5_8" function="internal">
        <lane id=":B5_8_0" index="0" speed="13.90" length="4.67" shape="1903.51,2082.10 1904.68,2081.26 1905.57,2081.17 1906.18,2081.83 1906.50,2083.23"/>
    </edge>
    <edge id=":B6_0" function="internal">
        <lane id=":B6_0_0" index="0" speed="13.90" length="4.72" shape="1869.42,2055.32 1868.30,2054.75 1867.21,2054.61 1866.14,2054.88 1865.09,2055.58"/>
    </edge>
    <edge id=":B6_1" function="internal">
        <lane id=":B6_1_0" index="0" speed="13.90" length="8.70" shape="1869.42,2055.32 1867.33,2053.83 1866.01,2052.63 1864.98,2051.18 1863.75,2048.93"/>
    </edge>
    <edge id=":B6_2" function="internal">
        <lane id=":B6_2_0" index="0" speed="13.90" length="2.34" shape="1869.42,2055.32 1868.89,2053.98 1869.01,2053.10"/>
    </edge>
    <edge id=":B6_9" function="internal">
        <lane id=":B6_9_0" index="0" speed="13.90" length="2.34" shape="1869.01,2053.10 1869.80,2052.67 1871.24,2052.69"/>
    </edge>
    <edge id=":B6_3" function="internal">
        <lane id=":B6_3_0" index="0" speed="13.90" length="7.14" shape="1866.59,2047.44 1867.60,2049.29 1868.44,2050.48 1869.52,2051.47 1871.24,2052.69"/>
    </edge>
    <edge id=":B6_4" function="internal">
        <lane id=":B6_4_0" index="0" speed="13.90" length="4.51" shape="1866.59,2047.44 1867.41,2049.69 1867.44,2051.80"/>
    </edge>
    <edge id=":B6_5" function="internal">
        <lane id=":B6_5_0" index="0" speed="13.90" length="2.34" shape="1866.59,2047.44 1866.44,2048.87 1865.91,2049.60"/>
    </edge>
    <edge id=":B6_10" function="internal">
        <lane id=":B6_10_0" index="0" speed="13.90" length="4.51" shape="1867.44,2051.80 1866.66,2053.77 1865.09,2055.58"/>
    </edge>
    <edge id=":B6_11" function="internal">
        <lane id=":B6_11_0" index="0" speed="13.90" length="2.34" shape="1865.91,2049.60 1865.02,2049.62 1863.75,2048.93"/>
    </edge>
    <edge id=":B6_6" function="internal">
        <lane id=":B6_6_0" index="0" speed="13.90" length="4.72" shape="1862.97,2053.19 1863.79,2052.24 1864.20,2051.21 1864.18,2050.11 1863.75,2048.93"/>
    </edge>
    <edge id=":B6_7" function="internal">
        <lane id=":B6_7_0" index="0" speed="13.90" length="9.02" shape="1862.97,2053.19 1864.97,2051.85 1867.01,2051.32 1869.10,2051.60 1871.24,2052.69"/>
    </edge>
    <edge id=":B6_8" function="internal">
        <lane id=":B6_8_0" index="0" speed="13.90" length="4.67" shape="1862.97,2053.19 1864.40,2052.99 1865.23,2053.33 1865.46,2054.19 1865.09,2055.58"/>
    </edge>
    <edge id=":B7_0" function="internal">
        <lane id=":B7_0_0" index="0" speed="13.90" length="4.72" shape="1845.23,2013.64 1844.51,2012.62 1843.61,2011.98 1842.53,2011.73 1841.28,2011.86"/>
    </edge>
    <edge id=":B7_1" function="internal">
        <lane id=":B7_1_0" index="0" speed="13.90" length="8.70" shape="1845.23,2013.64 1844.08,2011.35 1843.47,2009.68 1843.23,2007.91 1843.19,2005.34"/>
    </edge>
    <edge id=":B7_2" function="internal">
        <lane id=":B7_2_0" index="0" speed="13.90" length="2.34" shape="1845.23,2013.64 1845.39,2012.21 1845.91,2011.48"/>
    </edge>
    <edge id=":B7_9" function="internal">
        <lane id=":B7_9_0" index="0" speed="13.90" length="2.34" shape="1845.91,2011.48 1846.80,2011.46 1848.07,2012.15"/>
    </edge>
    <edge id=":B7_3" function="internal">
        <lane id=":B7_3_0" index="0" speed="13.90" length="7.14" shape="1846.39,2005.34 1846.42,2007.45 1846.62,2008.90 1847.12,2010.27 1848.07,2012.15"/>
    </edge>
    <edge id=":B7_4" function="internal">
        <lane id=":B7_4_0" index="0" speed="13.90" length="4.51" shape="1846.39,2005.34 1846.07,2007.72 1845.11,2009.60"/>
    </edge>
    <edge id=":B7_5" function="internal">
        <lane id=":B7_5_0" index="0" speed="13.90" length="2.34" shape="1846.39,2005.34 1845.59,2006.54 1844.79,2006.94"/>
    </edge>
    <edge id=":B7_10" function="internal">
        <lane id=":B7_10_0" index="0" speed="13.90" length="4.51" shape="1845.11,2009.60 1843.52,2010.98 1841.28,2011.86"/>
    </edge>
    <edge id=":B7_11" function="internal">
        <lane id=":B7_11_0" index="0" speed="13.90" length="2.34" shape="1844.79,2006.94 1843.99,2006.54 1843.19,2005.34"/>
    </edge>
    <edge id=":B7_6" function="internal">
        <lane id=":B7_6_0" index="0" speed="13.90" length="4.72" shape="1840.52,2008.75 1841.69,2008.29 1842.52,2007.57 1843.02,2006.59 1843.19,2005.34"/>
    </edge>
    <edge id=":B7_7" function="internal">
        <lane id=":B7_7_0" index="0" speed="13.90" length="9.02" shape="1840.52,2008.75 1842.90,2008.50 1844.96,2008.98 1846.68,2010.19 1848.07,2012.15"/>
    </edge>
    <edge id=":B7_8" function="internal">
        <lane id=":B7_8_0" index="0" speed="13.90" length="4.67" shape="1840.52,2008.75 1841.87,2009.24 1842.45,2009.93 1842.26,2010.80 1841.28,2011.86"/>
    </edge>
    <edge id=":B8_0" function="internal">
        <lane id=":B8_0_0" index="0" speed="13.90" length="4.72" shape="1843.19,1965.49 1843.02,1964.25 1842.52,1963.26 1841.69,1962.54 1840.52,1962.08"/>
    </edge>
    <edge id=":B8_1" function="internal">
        <lane id=":B8_1_0" index="0" speed="13.90" length="8.70" shape="1843.19,1965.49 1843.23,1962.93 1843.47,1961.16 1844.08,1959.49 1845.23,1957.19"/>
    </edge>
    <edge id=":B8_2" function="internal">
        <lane id=":B8_2_0" index="0" speed="13.90" length="2.34" shape="1843.19,1965.49 1843.99,1964.29 1844.79,1963.89"/>
    </edge>
    <edge id=":B8_9" function="internal">
        <lane id=":B8_9_0" index="0" speed="13.90" length="2.34" shape="1844.79,1963.89 1845.59,1964.29 1846.39,1965.49"/>
    </edge>
    <edge id=":B8_3" function="internal">
        <lane id=":B8_3_0" index="0" speed="13.90" length="7.14" shape="1848.07,1958.68 1847.12,1960.56 1846.62,1961.94 1846.42,1963.39 1846.39,1965.49"/>
    </edge>
    <edge id=":B8_4" function="internal">
        <lane id=":B8_4_0" index="0" speed="13.90" length="4.51" shape="1848.07,1958.68 1846.68,1960.64 1844.96,1961.86"/>
    </edge>
    <edge id=":B8_5" function="internal">
        <lane id=":B8_5_0" index="0" speed="13.90" length="2.34" shape="1848.07,1958.68 1846.80,1959.37 1845.91,1959.35"/>
    </edge>
    <edge id=":B8_10" function="internal">
        <lane id=":B8_10_0" index="0" speed="13.90" length="4.51" shape="1844.96,1961.86 1842.90,1962.34 1840.52,1962.08"/>
    </edge>
    <edge id=":B8_11" function="internal">
        <lane id=":B8_11_0" index="0" speed="13.90" length="2.34" shape="1845.91,1959.35 1845.39,1958.63 1845.23,1957.19"/>
    </edge>
    <edge id=":B8_6" function="internal">
        <lane id=":B8_6_0" index="0" speed="13.90" length="4.72" shape="1841.28,1958.97 1842.53,1959.11 1843.61,1958.86 1844.51,1958.22 1845.23,1957.19"/>
    </edge>
    <edge id=":B8_7" function="internal">
        <lane id=":B8_7_0" index="0" speed="13.90" length="9.02" shape="1841.28,1958.97 1843.52,1959.85 1845.11,1961.23 1846.07,1963.11 1846.39,1965.49"/>
    </edge>
    <edge id=":B8_8" function="internal">
        <lane id=":B8_8_0" index="0" speed="13.90" length="4.67" shape="1841.28,1958.97 1842.26,1960.04 1842.45,1960.91 1841.87,1961.59 1840.52,1962.08"/>
    </edge>
    <edge id=":B9_0" function="internal">
        <lane id=":B9_0_0" index="0" speed="13.90" length="7.14" shape="1871.24,1918.15 1869.52,1919.37 1868.44,1920.35 1867.60,1921.55 1866.59,1923.40"/>
    </edge>
    <edge id=":B9_1" function="internal">
        <lane id=":B9_1_0" index="0" speed="13.90" length="4.51" shape="1871.24,1918.15 1869.10,1919.24 1867.01,1919.52"/>
    </edge>
    <edge id=":B9_2" function="internal">
        <lane id=":B9_2_0" index="0" speed="13.90" length="2.34" shape="1871.24,1918.15 1869.80,1918.17 1869.01,1917.74"/>
    </edge>
    <edge id=":B9_9" function="internal">
        <lane id=":B9_9_0" index="0" speed="13.90" length="4.51" shape="1867.01,1919.52 1864.97,1918.99 1862.97,1917.65"/>
    </edge>
    <edge id=":B9_10" function="internal">
        <lane id=":B9_10_0" index="0" speed="13.90" length="2.34" shape="1869.01,1917.74 1868.89,1916.85 1869.42,1915.51"/>
    </edge>