<routes xmlns:xsi="http://www.w3.org/2001/XMLSchema-instance" xsi:noNamespaceSchemaLocation="http://sumo.dlr.de/xsd/routes_file.xsd">
    <route id="r0" edges="1 2"/>
    <vType id="DEFAULT_VEHTYPE" sigma="0"/>

    <vehicle id="default" depart="0" route="r0"/>

</routes>
