<?xml version="1.0" encoding="UTF-8"?>

<!-- generated on 2022-10-27 23:20:34.207856 by routeSampler.py v1_14_1+2043-e1bac7e
<configuration>
    <interval value="50"/>
    <route-files value="input_routes.rou.xml"/>
    <total-count value="50,100"/>
    <turn-files value="input_turns.xml"/>
    <verbose value="True"/>
</configuration>
-->

<routes xmlns:xsi="http://www.w3.org/2001/XMLSchema-instance" xsi:noNamespaceSchemaLocation="http://sumo.dlr.de/xsd/routes_file.xsd">
<!-- begin="0.0" end="50.0" -->
    <vehicle id="0_0" depart="0.00">
        <route edges="71.121.42 -3 -3.180.00 15 15.180.00"/>
    </vehicle>
    <vehicle id="0_1" depart="1.00">
        <route edges="3.180.00 27 27.80.00 55 71"/>
    </vehicle>
    <vehicle id="0_2" depart="2.00">
        <route edges="-109.80.00 -11 -11.80.00 3 3.180.00 27 27.80.00 -27 -27.80.00"/>
    </vehicle>
    <vehicle id="0_3" depart="3.00">
        <route edges="-79 -79.80.00 75 75.121.42 120 120.180.00 131 131.180.00 -131 -131.180.00"/>
    </vehicle>
    <vehicle id="0_4" depart="4.00">
        <route edges="3.180.00 27 27.80.00 55 71"/>
    </vehicle>
    <vehicle id="0_5" depart="5.00">
        <route edges="45 -68 -43 -43.80.00 43"/>
    </vehicle>
    <vehicle id="0_6" depart="6.00">
        <route edges="-11 -11.80.00 15 15.180.00 -123 -123.121.42 -120 -120.180.00"/>
    </vehicle>
    <vehicle id="0_7" depart="7.00">
        <route edges="-79 -79.80.00 -60 -60.80.00 -31 -31.80.00 -23 -23.80.00 -11 -11.80.00 3 3.180.00 -3 -3.180.00"/>
    </vehicle>
    <vehicle id="0_8" depart="8.00">
        <route edges="3 3.180.00 -3 -3.180.00 11 11.80.00 23 23.80.00 31 31.80.00 64 64.80.00"/>
    </vehicle>
    <vehicle id="0_9" depart="9.00">
        <route edges="144.121.42 -123 -123.121.42 -120 -120.180.00 -64 -64.80.00 58"/>
    </vehicle>
    <vehicle id="0_10" depart="10.00">
        <route edges="-152.80.00 -131 -131.180.00 -109 -109.80.00 23 23.80.00 31 31.80.00 64 64.80.00"/>
    </vehicle>
    <vehicle id="0_11" depart="11.00">
        <route edges="-144 -144.121.42 152"/>
    </vehicle>
    <vehicle id="0_12" depart="12.00">
        <route edges="-109.80.00 -11 -11.80.00 3 3.180.00 27 27.80.00 -27 -27.80.00"/>
    </vehicle>
    <vehicle id="0_13" depart="13.00">
        <route edges="3 3.180.00 -3 -3.180.00 11 11.80.00 23 23.80.00 31 31.80.00 64 64.80.00"/>
    </vehicle>
    <vehicle id="0_14" depart="14.00">
        <route edges="-64.80.00 -31 -31.80.00 -23 -23.80.00 -11 -11.80.00 3 3.180.00 -3"/>
    </vehicle>
    <vehicle id="0_15" depart="15.00">
        <route edges="3.180.00 27 27.80.00 55 71"/>
    </vehicle>
    <vehicle id="0_16" depart="16.00">
        <route edges="3 3.180.00 -3 -3.180.00 11 11.80.00 23 23.80.00 31 31.80.00 64 64.80.00"/>
    </vehicle>
    <vehicle id="0_17" depart="17.00">
        <route edges="-71 -55 -55.80.00 -27 -27.80.00 -3 -3.180.00 11 11.80.00 23 23.80.00 31 31.80.00 64 64.80.00 -64"/>
    </vehicle>
    <vehicle id="0_18" depart="18.00">
        <route edges="120 120.180.00 -120 -120.180.00 -75 -75.121.42 -60"/>
    </vehicle>
    <vehicle id="0_19" depart="19.00">
        <route edges="27 27.80.00 -27 -27.80.00 -3 -3.180.00 11 11.80.00 23 23.80.00 37 -58 -58.121.42"/>
    </vehicle>
    <vehicle id="0_20" depart="20.00">
        <route edges="-11 -11.80.00 15 15.180.00 -123 -123.121.42 -120 -120.180.00"/>
    </vehicle>
    <vehicle id="0_21" depart="21.00">
        <route edges="15 15.180.00 -123 -123.121.42 -109 -109.80.00 -11"/>
    </vehicle>
    <vehicle id="0_22" depart="22.00">
        <route edges="-75 -75.121.42 -60 -60.80.00 -31 -31.80.00 -23 -23.80.00 -11 -11.80.00 3 3.180.00 -71"/>
    </vehicle>
    <vehicle id="0_23" depart="23.00">
        <route edges="-79 -79.80.00 75 75.121.42 120 120.180.00 131 131.180.00 -131 -131.180.00"/>
    </vehicle>
    <vehicle id="0_24" depart="24.00">
        <route edges="-11 -11.80.00 15 15.180.00 -123 -123.121.42 -120 -120.180.00"/>
    </vehicle>
    <vehicle id="0_25" depart="25.00">
        <route edges="-131.180.00 -109 -109.80.00 -11 -11.80.00 3 3.180.00 -71 -55 -55.80.00"/>
    </vehicle>
    <vehicle id="0_26" depart="26.00">
        <route edges="-79 -79.80.00 -60 -60.80.00 -31 -31.80.00 -23 -23.80.00 -11 -11.80.00 3 3.180.00 -3 -3.180.00"/>
    </vehicle>
    <vehicle id="0_27" depart="27.00">
        <route edges="-43.80.00 -27 -27.80.00 -3 -3.180.00 15 15.180.00 -144 -144.121.42 152"/>
    </vehicle>
    <vehicle id="0_28" depart="28.00">
        <route edges="11 11.80.00 23 23.80.00 31 31.80.00 64 64.80.00"/>
    </vehicle>
    <vehicle id="0_29" depart="29.00">
        <route edges="131 131.180.00 144 144.121.42 -15 -15.180.00 3 3.180.00 27 27.80.00 55 71"/>
    </vehicle>
    <vehicle id="0_30" depart="30.00">
        <route edges="-123.121.42 131"/>
    </vehicle>
    <vehicle id="0_31" depart="31.00">
        <route edges="43 68 -45 -45.80.00 -27 -27.80.00 -3 -3.180.00 11 11.80.00"/>
    </vehicle>
    <vehicle id="0_32" depart="32.00">
        <route edges="-123 -123.121.42 131 131.180.00"/>
    </vehicle>
    <vehicle id="0_33" depart="33.00">
        <route edges="23.80.00 31 31.80.00 60 60.80.00 75 75.121.42"/>
    </vehicle>
    <vehicle id="0_34" depart="34.00">
        <route edges="23 23.80.00 -23 -23.80.00 109"/>
    </vehicle>
    <vehicle id="0_35" depart="35.00">
        <route edges="120 120.180.00 -109 -109.80.00 -11 -11.80.00 3 3.180.00 27 27.80.00 43 68 -45"/>
    </vehicle>
    <vehicle id="0_36" depart="36.00">
        <route edges="131 131.180.00 144 144.121.42 -15 -15.180.00 3 3.180.00 27 27.80.00 55 71"/>
    </vehicle>
    <vehicle id="0_37" depart="37.00">
        <route edges="15 15.180.00 -123 -123.121.42 -109 -109.80.00 -11"/>
    </vehicle>
    <vehicle id="0_38" depart="38.00">
        <route edges="-79.80.00 75 75.121.42"/>
    </vehicle>
    <vehicle id="0_39" depart="39.00">
        <route edges="37 -58 -58.121.42 -31 -31.80.00 -23 -23.80.00 -11 -11.80.00"/>
    </vehicle>
    <vehicle id="0_40" depart="40.00">
        <route edges="27.80.00 -27 -27.80.00 -3 -3.180.00 11 11.80.00 23 23.80.00 31 31.80.00 60 60.80.00 75 75.121.42"/>
    </vehicle>
    <vehicle id="0_41" depart="41.00">
        <route edges="-37.80.00 -23 -23.80.00 109 109.80.00 -109"/>
    </vehicle>
    <vehicle id="0_42" depart="42.00">
        <route edges="144 144.121.42 -15 -15.180.00 3 3.180.00 27 27.80.00"/>
    </vehicle>
    <vehicle id="0_43" depart="43.00">
        <route edges="15.180.00 -15 -15.180.00 11 11.80.00 23 23.80.00 31 31.80.00"/>
    </vehicle>
    <vehicle id="0_44" depart="44.00">
        <route edges="-75 -75.121.42 -60 -60.80.00 -31 -31.80.00 -23 -23.80.00 -11 -11.80.00 3 3.180.00 -71"/>
    </vehicle>
    <vehicle id="0_45" depart="45.00">
        <route edges="-27 -27.80.00 -3 -3.180.00 15 15.180.00 -144 -144.121.42 144 144.121.42"/>
    </vehicle>
    <vehicle id="0_46" depart="46.00">
        <route edges="-79.80.00 75 75.121.42 120 120.180.00 131 131.180.00 144 144.121.42"/>
    </vehicle>
    <vehicle id="0_47" depart="47.00">
        <route edges="-109.80.00 23 23.80.00 31 31.80.00 -31 -31.80.00"/>
    </vehicle>
    <vehicle id="0_48" depart="48.00">
        <route edges="-3.180.00 11 11.80.00 23 23.80.00"/>
    </vehicle>
    <vehicle id="0_49" depart="49.00">
        <route edges="-43 -43.80.00 -27 -27.80.00 -3 -3.180.00 11 11.80.00 109 109.80.00"/>
    </vehicle>
<!-- begin="50.0" end="100.0" -->
    <vehicle id="50_0" depart="50.00">
        <route edges="120 120.180.00 -109 -109.80.00 -11 -11.80.00 3 3.180.00 27 27.80.00 43 68 -45"/>
    </vehicle>
    <vehicle id="50_1" depart="50.50">
        <route edges="15 15.180.00 -123 -123.121.42 -109 -109.80.00 -11"/>
    </vehicle>
    <vehicle id="50_2" depart="51.00">
        <route edges="11 11.80.00 23 23.80.00 31 31.80.00 64 64.80.00"/>
    </vehicle>
    <vehicle id="50_3" depart="51.50">
        <route edges="15 15.180.00 -123 -123.121.42 -109 -109.80.00 -11"/>
    </vehicle>
    <vehicle id="50_4" depart="52.00">
        <route edges="-71 -55 -55.80.00 -27 -27.80.00 -3 -3.180.00 11 11.80.00 23 23.80.00 31 31.80.00 64 64.80.00 -64"/>
    </vehicle>
    <vehicle id="50_5" depart="52.50">
        <route edges="-43 -43.80.00 -27 -27.80.00"/>
    </vehicle>
    <vehicle id="50_6" depart="53.00">
        <route edges="-109.80.00 23 23.80.00 31 31.80.00 -31 -31.80.00"/>
    </vehicle>
    <vehicle id="50_7" depart="53.50">
        <route edges="15 15.180.00 -123 -123.121.42 -120 -120.180.00 -75 -75.121.42 75"/>
    </vehicle>
    <vehicle id="50_8" depart="54.00">
        <route edges="-109.80.00 -11 -11.80.00 3 3.180.00 27 27.80.00 -27 -27.80.00"/>
    </vehicle>
    <vehicle id="50_9" depart="54.50">
        <route edges="-43.80.00 -27 -27.80.00 -71 -55 -55.80.00"/>
    </vehicle>
    <vehicle id="50_10" depart="55.00">
        <route edges="71 71.121.42 -3 -3.180.00 11 11.80.00 109 109.80.00 -120"/>
    </vehicle>
    <vehicle id="50_11" depart="55.50">
        <route edges="27 27.80.00 -27 -27.80.00 -3 -3.180.00 11 11.80.00 23 23.80.00 31 31.80.00 64 64.80.00 -75"/>
    </vehicle>
    <vehicle id="50_12" depart="56.00">
        <route edges="23.80.00 31 31.80.00 60 60.80.00 75 75.121.42"/>
    </vehicle>
    <vehicle id="50_13" depart="56.50">
        <route edges="-15 -15.180.00 15 15.180.00"/>
    </vehicle>
    <vehicle id="50_14" depart="57.00">
        <route edges="-43 -43.80.00 -27 -27.80.00"/>
    </vehicle>
    <vehicle id="50_15" depart="57.50">
        <route edges="-109.80.00 -11 -11.80.00 3 3.180.00 27 27.80.00 -27"/>
    </vehicle>
    <vehicle id="50_16" depart="58.00">
        <route edges="-71 -55 -55.80.00 -27 -27.80.00 -3 -3.180.00 11 11.80.00 23 23.80.00 31 31.80.00 58"/>
    </vehicle>
    <vehicle id="50_17" depart="58.50">
        <route edges="3.180.00 27 27.80.00 55 71"/>
    </vehicle>
    <vehicle id="50_18" depart="59.00">
        <route edges="27.80.00 -27 -27.80.00 -3 -3.180.00 11 11.80.00 23 23.80.00 31 31.80.00 60 60.80.00 75 75.121.42"/>
    </vehicle>
    <vehicle id="50_19" depart="59.50">
        <route edges="-109.80.00 23 23.80.00 31 31.80.00 -31 -31.80.00"/>
    </vehicle>
    <vehicle id="50_20" depart="60.00">
        <route edges="-75 -75.121.42 -60 -60.80.00 -31 -31.80.00 -23 -23.80.00 -11 -11.80.00 3 3.180.00 -71"/>
    </vehicle>
    <vehicle id="50_21" depart="60.50">
        <route edges="-55 -55.80.00 -27 -27.80.00 -3 -3.180.00 11 11.80.00 23 23.80.00 31 31.80.00 58 -37 -37.80.00"/>
    </vehicle>
    <vehicle id="50_22" depart="61.00">
        <route edges="-109.80.00 23 23.80.00 31 31.80.00 -31 -31.80.00"/>
    </vehicle>
    <vehicle id="50_23" depart="61.50">
        <route edges="-43.80.00 -27 -27.80.00 27 27.80.00"/>
    </vehicle>
    <vehicle id="50_24" depart="62.00">
        <route edges="120 120.180.00 -109 -109.80.00 -11 -11.80.00 3 3.180.00 27 27.80.00 43 68 -45"/>
    </vehicle>
    <vehicle id="50_25" depart="62.50">
        <route edges="15 15.180.00 -123 -123.121.42 -120 -120.180.00 -75 -75.121.42 75"/>
    </vehicle>
    <vehicle id="50_26" depart="63.00">
        <route edges="3.180.00 27 27.80.00 55 71"/>
    </vehicle>
    <vehicle id="50_27" depart="63.50">
        <route edges="-109.80.00 -11 -11.80.00 3 3.180.00 27 27.80.00 -27"/>
    </vehicle>
    <vehicle id="50_28" depart="64.00">
        <route edges="-3.180.00 3 3.180.00 -3"/>
    </vehicle>
    <vehicle id="50_29" depart="64.50">
        <route edges="71.121.42 -3 -3.180.00 15 15.180.00"/>
    </vehicle>
    <vehicle id="50_30" depart="65.00">
        <route edges="27 27.80.00 -27 -27.80.00 -3 -3.180.00 11 11.80.00 23 23.80.00 31 31.80.00 64 64.80.00 -75"/>
    </vehicle>
    <vehicle id="50_31" depart="65.50">
        <route edges="15.180.00 -15 -15.180.00 11 11.80.00 23 23.80.00 31 31.80.00"/>
    </vehicle>
    <vehicle id="50_32" depart="66.00">
        <route edges="-60 -60.80.00 -31 -31.80.00 -23 -23.80.00 -11 -11.80.00 3 3.180.00 27 27.80.00 43 68 -45 -45.80.00"/>
    </vehicle>
    <vehicle id="50_33" depart="66.50">
        <route edges="-109.80.00 -11 -11.80.00 3 3.180.00 27 27.80.00 -27 -27.80.00"/>
    </vehicle>
    <vehicle id="50_34" depart="67.00">
        <route edges="3.180.00 27 27.80.00 55 71"/>
    </vehicle>
    <vehicle id="50_35" depart="67.50">
        <route edges="-71 -55 -55.80.00 -27 -27.80.00 -3 -3.180.00 11 11.80.00 23 23.80.00 31 31.80.00 58"/>
    </vehicle>
    <vehicle id="50_36" depart="68.00">
        <route edges="3.180.00 27 27.80.00 55 71"/>
    </vehicle>
    <vehicle id="50_37" depart="68.50">
        <route edges="-109.80.00 -11 -11.80.00 3 3.180.00 27 27.80.00 -27 -27.80.00"/>
    </vehicle>
    <vehicle id="50_38" depart="69.00">
        <route edges="-64 -64.80.00 64 64.80.00 120 120.180.00 -120 -120.180.00"/>
    </vehicle>
    <vehicle id="50_39" depart="69.50">
        <route edges="23 23.80.00 -23 -23.80.00 109"/>
    </vehicle>
    <vehicle id="50_40" depart="70.00">
        <route edges="123 123.121.42 -123"/>
    </vehicle>
    <vehicle id="50_41" depart="70.50">
        <route edges="15 15.180.00 -123 -123.121.42 -120 -120.180.00 -75 -75.121.42 75"/>
    </vehicle>
    <vehicle id="50_42" depart="71.00">
        <route edges="-144 -144.121.42 152"/>
    </vehicle>
    <vehicle id="50_43" depart="71.50">
        <route edges="71 71.121.42 -3 -3.180.00 11 11.80.00 109 109.80.00 -120"/>
    </vehicle>
    <vehicle id="50_44" depart="72.00">
        <route edges="-123 -123.121.42 131 131.180.00"/>
    </vehicle>
    <vehicle id="50_45" depart="72.50">
        <route edges="109 109.80.00 -109 -109.80.00 -11 -11.80.00 3 3.180.00 -71 -55 -55.80.00"/>
    </vehicle>
    <vehicle id="50_46" depart="73.00">
        <route edges="-148 -148.80.00 144 144.121.42 -15 -15.180.00 3 3.180.00 -3"/>
    </vehicle>
    <vehicle id="50_47" depart="73.50">
        <route edges="71.121.42 -3 -3.180.00 15 15.180.00"/>
    </vehicle>
    <vehicle id="50_48" depart="74.00">
        <route edges="27.80.00 -27 -27.80.00 -3 -3.180.00 11 11.80.00 23 23.80.00 31 31.80.00 60 60.80.00 75 75.121.42"/>
    </vehicle>
    <vehicle id="50_49" depart="74.50">
        <route edges="11 11.80.00 23 23.80.00 31 31.80.00 64 64.80.00"/>
    </vehicle>
    <vehicle id="50_50" depart="75.00">
        <route edges="-37.80.00 -23 -23.80.00 109 109.80.00 131"/>
    </vehicle>
    <vehicle id="50_51" depart="75.50">
        <route edges="120 120.180.00 -109 -109.80.00 -11 -11.80.00 3 3.180.00 27 27.80.00 45"/>
    </vehicle>
    <vehicle id="50_52" depart="76.00">
        <route edges="68 -45 -45.80.00 -27 -27.80.00 -71 -55"/>
    </vehicle>
    <vehicle id="50_53" depart="76.50">
        <route edges="11.80.00 23 23.80.00 31"/>
    </vehicle>
    <vehicle id="50_54" depart="77.00">
        <route edges="-31.80.00 -23 -23.80.00 109 109.80.00 123"/>
    </vehicle>
    <vehicle id="50_55" depart="77.50">
        <route edges="-43.80.00 -27 -27.80.00 27 27.80.00"/>
    </vehicle>
    <vehicle id="50_56" depart="78.00">
        <route edges="-148 -148.80.00 144 144.121.42 -15 -15.180.00 3 3.180.00 -3"/>
    </vehicle>
    <vehicle id="50_57" depart="78.50">
        <route edges="-71 -55 -55.80.00 -27 -27.80.00 -3 -3.180.00 11 11.80.00 23 23.80.00 31 31.80.00 58"/>
    </vehicle>
    <vehicle id="50_58" depart="79.00">
        <route edges="-11 -11.80.00 15 15.180.00 -123 -123.121.42 -120 -120.180.00"/>
    </vehicle>
    <vehicle id="50_59" depart="79.50">
        <route edges="-109.80.00 -11 -11.80.00 3 3.180.00 27 27.80.00 -27 -27.80.00"/>
    </vehicle>
    <vehicle id="50_60" depart="80.00">
        <route edges="45 -68 -43 -43.80.00 43"/>
    </vehicle>
    <vehicle id="50_61" depart="80.50">
        <route edges="27 27.80.00 -27 -27.80.00 -3 -3.180.00 11 11.80.00 109 109.80.00 131 131.180.00"/>
    </vehicle>
    <vehicle id="50_62" depart="81.00">
        <route edges="68 -45 -45.80.00 -27 -27.80.00 -3 -3.180.00 11 11.80.00 -11"/>
    </vehicle>
    <vehicle id="50_63" depart="81.50">
        <route edges="71 71.121.42 -3 -3.180.00 11 11.80.00 109 109.80.00 -120"/>
    </vehicle>
    <vehicle id="50_64" depart="82.00">
        <route edges="27.80.00 -27 -27.80.00 -3 -3.180.00 11 11.80.00 23 23.80.00 31 31.80.00 60 60.80.00 75 75.121.42"/>
    </vehicle>
    <vehicle id="50_65" depart="82.50">
        <route edges="3.180.00 27 27.80.00 55 71"/>
    </vehicle>
    <vehicle id="50_66" depart="83.00">
        <route edges="-37 -37.80.00 -23 -23.80.00 109 109.80.00 131 131.180.00 144"/>
    </vehicle>
    <vehicle id="50_67" depart="83.50">
        <route edges="-37.80.00 -23 -23.80.00 109 109.80.00 131"/>
    </vehicle>
    <vehicle id="50_68" depart="84.00">
        <route edges="-55 -55.80.00 -27 -27.80.00 -3 -3.180.00 15 15.180.00 -144 -144.121.42 -131"/>
    </vehicle>
    <vehicle id="50_69" depart="84.50">
        <route edges="60.80.00 75 75.121.42 -75"/>
    </vehicle>
    <vehicle id="50_70" depart="85.00">
        <route edges="-55 -55.80.00 -27 -27.80.00 -3 -3.180.00 11 11.80.00 23 23.80.00 31 31.80.00 58 -37 -37.80.00"/>
    </vehicle>
    <vehicle id="50_71" depart="85.50">
        <route edges="3.180.00 27 27.80.00 55 71"/>
    </vehicle>
    <vehicle id="50_72" depart="86.00">
        <route edges="-71 -55 -55.80.00 -27 -27.80.00 -3 -3.180.00 11 11.80.00 23 23.80.00 31 31.80.00 58"/>
    </vehicle>
    <vehicle id="50_73" depart="86.50">
        <route edges="109 109.80.00 -109 -109.80.00 -11 -11.80.00 3 3.180.00 27 27.80.00 43 68 -45"/>
    </vehicle>
    <vehicle id="50_74" depart="87.00">
        <route edges="120 120.180.00 -120 -120.180.00 -75 -75.121.42 -60"/>
    </vehicle>
    <vehicle id="50_75" depart="87.50">
        <route edges="27 27.80.00 -27 -27.80.00 -3 -3.180.00 11 11.80.00 23 23.80.00 37 -58 -58.121.42"/>
    </vehicle>
    <vehicle id="50_76" depart="88.00">
        <route edges="-55 -55.80.00 -27 -27.80.00 -3 -3.180.00 15 15.180.00"/>
    </vehicle>
    <vehicle id="50_77" depart="88.50">
        <route edges="-15.180.00 11 11.80.00 23 23.80.00 31 31.80.00 64 64.80.00 120"/>
    </vehicle>
    <vehicle id="50_78" depart="89.00">
        <route edges="-60 -60.80.00 -31 -31.80.00 -23 -23.80.00 -11 -11.80.00 3 3.180.00 27 27.80.00 43 68 -45 -45.80.00"/>
    </vehicle>
    <vehicle id="50_79" depart="89.50">
        <route edges="71 71.121.42 -3 -3.180.00 11 11.80.00 109 109.80.00 -120"/>
    </vehicle>
    <vehicle id="50_80" depart="90.00">
        <route edges="-79.80.00 75 75.121.42 120 120.180.00 131 131.180.00 144 144.121.42"/>
    </vehicle>
    <vehicle id="50_81" depart="90.50">
        <route edges="-79.80.00 75 75.121.42 120 120.180.00 131 131.180.00 144 144.121.42"/>
    </vehicle>
    <vehicle id="50_82" depart="91.00">
        <route edges="-148 -148.80.00 -131 -131.180.00 -109 -109.80.00 23 23.80.00 37 -58 -58.121.42"/>
    </vehicle>
    <vehicle id="50_83" depart="91.50">
        <route edges="-55 -55.80.00 -27 -27.80.00 -3 -3.180.00 15 15.180.00"/>
    </vehicle>
    <vehicle id="50_84" depart="92.00">
        <route edges="-109.80.00 -11 -11.80.00 3 3.180.00 27 27.80.00 -27"/>
    </vehicle>
    <vehicle id="50_85" depart="92.50">
        <route edges="120 120.180.00 -120 -120.180.00 -75 -75.121.42 -60"/>
    </vehicle>
    <vehicle id="50_86" depart="93.00">
        <route edges="31.80.00 58"/>
    </vehicle>
    <vehicle id="50_87" depart="93.50">
        <route edges="120 120.180.00 -120 -120.180.00 -75 -75.121.42 -60"/>
    </vehicle>
    <vehicle id="50_88" depart="94.00">
        <route edges="-58.121.42 -31 -31.80.00 -23 -23.80.00 -11 -11.80.00 5"/>
    </vehicle>
    <vehicle id="50_89" depart="94.50">
        <route edges="31 31.80.00 -31 -31.80.00 -23 -23.80.00 -11 -11.80.00 3 3.180.00 27 27.80.00 -27"/>
    </vehicle>
    <vehicle id="50_90" depart="95.00">
        <route edges="27 27.80.00 -27 -27.80.00 -3 -3.180.00 11 11.80.00 109 109.80.00 131 131.180.00"/>
    </vehicle>
    <vehicle id="50_91" depart="95.50">
        <route edges="64.80.00 120 120.180.00 131 131.180.00 -131"/>
    </vehicle>
    <vehicle id="50_92" depart="96.00">
        <route edges="-3.180.00 11 11.80.00 23 23.80.00"/>
    </vehicle>
    <vehicle id="50_93" depart="96.50">
        <route edges="-152.80.00 -131 -131.180.00 -109 -109.80.00 23 23.80.00 31 31.80.00 64 64.80.00"/>
    </vehicle>
    <vehicle id="50_94" depart="97.00">
        <route edges="75 75.121.42 120 120.180.00 -109 -109.80.00 23 23.80.00"/>
    </vehicle>
    <vehicle id="50_95" depart="97.50">
        <route edges="15 15.180.00 -123 -123.121.42 -120 -120.180.00 -75 -75.121.42 75"/>
    </vehicle>
    <vehicle id="50_96" depart="98.00">
        <route edges="-55 -55.80.00 -27 -27.80.00 -3 -3.180.00 15 15.180.00"/>
    </vehicle>
    <vehicle id="50_97" depart="98.50">
        <route edges="27.80.00 -27 -27.80.00 -3 -3.180.00 11 11.80.00 23 23.80.00 31 31.80.00 60 60.80.00 75 75.121.42"/>
    </vehicle>
    <vehicle id="50_98" depart="99.00">
        <route edges="27.80.00 -27 -27.80.00 -3 -3.180.00 11 11.80.00 23 23.80.00 31 31.80.00 60 60.80.00 75 75.121.42"/>
    </vehicle>
    <vehicle id="50_99" depart="99.50">
        <route edges="-37.80.00 -23 -23.80.00 109 109.80.00 131"/>
    </vehicle>
</routes>
