<?xml version="1.0" encoding="UTF-8"?>

<!-- generated on 2023-06-29 14:40:43.036581 by routeSampler.py v1_17_0+1318-85f891f765f
<configuration>
    <route-files value="input_routes.rou.xml"/>
    <turn-files value="input_turns.xml"/>
    <verbose value="True"/>
    <interval value="50"/>
    <total-count value="50,100"/>
</configuration>
-->

<routes xmlns:xsi="http://www.w3.org/2001/XMLSchema-instance" xsi:noNamespaceSchemaLocation="http://sumo.dlr.de/xsd/routes_file.xsd">
<!-- begin="0.0" end="50.0" -->
    <vehicle id="0_0" depart="0.35">
        <route edges="71.121.42 -3 -3.180.00 15 15.180.00"/>
    </vehicle>
    <vehicle id="0_1" depart="1.27">
        <route edges="3.180.00 27 27.80.00 55 71"/>
    </vehicle>
    <vehicle id="0_2" depart="1.57">
        <route edges="-109.80.00 -11 -11.80.00 3 3.180.00 27 27.80.00 -27 -27.80.00"/>
    </vehicle>
    <vehicle id="0_3" depart="3.18">
        <route edges="-79 -79.80.00 75 75.121.42 120 120.180.00 131 131.180.00 -131 -131.180.00"/>
    </vehicle>
    <vehicle id="0_4" depart="3.85">
        <route edges="3.180.00 27 27.80.00 55 71"/>
    </vehicle>
    <vehicle id="0_5" depart="5.39">
        <route edges="45 -68 -43 -43.80.00 43"/>
    </vehicle>
    <vehicle id="0_6" depart="5.50">
        <route edges="-11 -11.80.00 15 15.180.00 -123 -123.121.42 -120 -120.180.00"/>
    </vehicle>
    <vehicle id="0_7" depart="5.98">
        <route edges="-79 -79.80.00 -60 -60.80.00 -31 -31.80.00 -23 -23.80.00 -11 -11.80.00 3 3.180.00 -3 -3.180.00"/>
    </vehicle>
    <vehicle id="0_8" depart="5.99">
        <route edges="3 3.180.00 -3 -3.180.00 11 11.80.00 23 23.80.00 31 31.80.00 64 64.80.00"/>
    </vehicle>
    <vehicle id="0_9" depart="8.06">
        <route edges="144.121.42 -123 -123.121.42 -120 -120.180.00 -64 -64.80.00 58"/>
    </vehicle>
    <vehicle id="0_10" depart="9.33">
        <route edges="-152.80.00 -131 -131.180.00 -109 -109.80.00 23 23.80.00 31 31.80.00 64 64.80.00"/>
    </vehicle>
    <vehicle id="0_11" depart="11.11">
        <route edges="-144 -144.121.42 152"/>
    </vehicle>
    <vehicle id="0_12" depart="11.40">
        <route edges="-109.80.00 -11 -11.80.00 3 3.180.00 27 27.80.00 -27 -27.80.00"/>
    </vehicle>
    <vehicle id="0_13" depart="11.44">
        <route edges="3 3.180.00 -3 -3.180.00 11 11.80.00 23 23.80.00 31 31.80.00 64 64.80.00"/>
    </vehicle>
    <vehicle id="0_14" depart="12.46">
        <route edges="-64.80.00 -31 -31.80.00 -23 -23.80.00 -11 -11.80.00 3 3.180.00 -3"/>
    </vehicle>
    <vehicle id="0_15" depart="14.49">
        <route edges="3.180.00 27 27.80.00 55 71"/>
    </vehicle>
    <vehicle id="0_16" depart="15.55">
        <route edges="3 3.180.00 -3 -3.180.00 11 11.80.00 23 23.80.00 31 31.80.00 64 64.80.00"/>
    </vehicle>
    <vehicle id="0_17" depart="15.72">
        <route edges="-71 -55 -55.80.00 -27 -27.80.00 -3 -3.180.00 11 11.80.00 23 23.80.00 31 31.80.00 64 64.80.00 -64"/>
    </vehicle>
    <vehicle id="0_18" depart="15.90">
        <route edges="120 120.180.00 -120 -120.180.00 -75 -75.121.42 -60"/>
    </vehicle>
    <vehicle id="0_19" depart="16.26">
        <route edges="27 27.80.00 -27 -27.80.00 -3 -3.180.00 11 11.80.00 23 23.80.00 37 -58 -58.121.42"/>
    </vehicle>
    <vehicle id="0_20" depart="20.52">
        <route edges="-11 -11.80.00 15 15.180.00 -123 -123.121.42 -120 -120.180.00"/>
    </vehicle>
    <vehicle id="0_21" depart="20.87">
        <route edges="15 15.180.00 -123 -123.121.42 -109 -109.80.00 -11"/>
    </vehicle>
    <vehicle id="0_22" depart="21.36">
        <route edges="-75 -75.121.42 -60 -60.80.00 -31 -31.80.00 -23 -23.80.00 -11 -11.80.00 3 3.180.00 -71"/>
    </vehicle>
    <vehicle id="0_23" depart="21.38">
        <route edges="-79 -79.80.00 75 75.121.42 120 120.180.00 131 131.180.00 -131 -131.180.00"/>
    </vehicle>
    <vehicle id="0_24" depart="23.61">
        <route edges="-11 -11.80.00 15 15.180.00 -123 -123.121.42 -120 -120.180.00"/>
    </vehicle>
    <vehicle id="0_25" depart="24.69">
        <route edges="-131.180.00 -109 -109.80.00 -11 -11.80.00 3 3.180.00 -71 -55 -55.80.00"/>
    </vehicle>
    <vehicle id="0_26" depart="25.43">
        <route edges="-79 -79.80.00 -60 -60.80.00 -31 -31.80.00 -23 -23.80.00 -11 -11.80.00 3 3.180.00 -3 -3.180.00"/>
    </vehicle>
    <vehicle id="0_27" depart="25.54">
        <route edges="-43.80.00 -27 -27.80.00 -3 -3.180.00 15 15.180.00 -144 -144.121.42 152"/>
    </vehicle>
    <vehicle id="0_28" depart="26.14">
        <route edges="11 11.80.00 23 23.80.00 31 31.80.00 64 64.80.00"/>
    </vehicle>
    <vehicle id="0_29" depart="26.97">
        <route edges="131 131.180.00 144 144.121.42 -15 -15.180.00 3 3.180.00 27 27.80.00 55 71"/>
    </vehicle>
    <vehicle id="0_30" depart="28.06">
        <route edges="-123.121.42 131"/>
    </vehicle>
    <vehicle id="0_31" depart="31.67">
        <route edges="43 68 -45 -45.80.00 -27 -27.80.00 -3 -3.180.00 11 11.80.00"/>
    </vehicle>
    <vehicle id="0_32" depart="31.82">
        <route edges="-123 -123.121.42 131 131.180.00"/>
    </vehicle>
    <vehicle id="0_33" depart="31.88">
        <route edges="23.80.00 31 31.80.00 60 60.80.00 75 75.121.42"/>
    </vehicle>
    <vehicle id="0_34" depart="35.66">
        <route edges="23 23.80.00 -23 -23.80.00 109"/>
    </vehicle>
    <vehicle id="0_35" depart="36.48">
        <route edges="120 120.180.00 -109 -109.80.00 -11 -11.80.00 3 3.180.00 27 27.80.00 43 68 -45"/>
    </vehicle>
    <vehicle id="0_36" depart="37.78">
        <route edges="131 131.180.00 144 144.121.42 -15 -15.180.00 3 3.180.00 27 27.80.00 55 71"/>
    </vehicle>
    <vehicle id="0_37" depart="38.04">
        <route edges="15 15.180.00 -123 -123.121.42 -109 -109.80.00 -11"/>
    </vehicle>
    <vehicle id="0_38" depart="38.55">
        <route edges="-79.80.00 75 75.121.42"/>
    </vehicle>
    <vehicle id="0_39" depart="40.18">
        <route edges="37 -58 -58.121.42 -31 -31.80.00 -23 -23.80.00 -11 -11.80.00"/>
    </vehicle>
    <vehicle id="0_40" depart="40.37">
        <route edges="27.80.00 -27 -27.80.00 -3 -3.180.00 11 11.80.00 23 23.80.00 31 31.80.00 60 60.80.00 75 75.121.42"/>
    </vehicle>
    <vehicle id="0_41" depart="40.41">
        <route edges="-37.80.00 -23 -23.80.00 109 109.80.00 -109"/>
    </vehicle>
    <vehicle id="0_42" depart="40.90">
        <route edges="144 144.121.42 -15 -15.180.00 3 3.180.00 27 27.80.00"/>
    </vehicle>
    <vehicle id="0_43" depart="43.04">
        <route edges="15.180.00 -15 -15.180.00 11 11.80.00 23 23.80.00 31 31.80.00"/>
    </vehicle>
    <vehicle id="0_44" depart="43.57">
        <route edges="-75 -75.121.42 -60 -60.80.00 -31 -31.80.00 -23 -23.80.00 -11 -11.80.00 3 3.180.00 -71"/>
    </vehicle>
    <vehicle id="0_45" depart="44.36">
        <route edges="-27 -27.80.00 -3 -3.180.00 15 15.180.00 -144 -144.121.42 144 144.121.42"/>
    </vehicle>
    <vehicle id="0_46" depart="44.63">
        <route edges="-79.80.00 75 75.121.42 120 120.180.00 131 131.180.00 144 144.121.42"/>
    </vehicle>
    <vehicle id="0_47" depart="44.80">
        <route edges="-109.80.00 23 23.80.00 31 31.80.00 -31 -31.80.00"/>
    </vehicle>
    <vehicle id="0_48" depart="45.38">
        <route edges="-3.180.00 11 11.80.00 23 23.80.00"/>
    </vehicle>
    <vehicle id="0_49" depart="46.48">
        <route edges="-43 -43.80.00 -27 -27.80.00 -3 -3.180.00 11 11.80.00 109 109.80.00"/>
    </vehicle>
<!-- begin="50.0" end="100.0" -->
    <vehicle id="50_0" depart="50.77">
        <route edges="-120 -120.180.00 -64 -64.80.00 -31 -31.80.00 -23 -23.80.00 -11 -11.80.00 3 3.180.00 -71 -55 -55.80.00"/>
    </vehicle>
    <vehicle id="50_1" depart="50.86">
        <route edges="-109.80.00 23 23.80.00 31 31.80.00 -31 -31.80.00"/>
    </vehicle>
    <vehicle id="50_2" depart="51.95">
        <route edges="-71 -55 -55.80.00 -27 -27.80.00 -3 -3.180.00 11 11.80.00 23 23.80.00 31 31.80.00 64 64.80.00 -64"/>
    </vehicle>
    <vehicle id="50_3" depart="51.96">
        <route edges="27.80.00 -27 -27.80.00 -3 -3.180.00 11 11.80.00 23 23.80.00 31 31.80.00 60 60.80.00 75 75.121.42"/>
    </vehicle>
    <vehicle id="50_4" depart="52.05">
        <route edges="-43.80.00 -27 -27.80.00 -71 -55 -55.80.00"/>
    </vehicle>
    <vehicle id="50_5" depart="52.39">
        <route edges="-71 -55 -55.80.00 -27 -27.80.00 -3 -3.180.00 11 11.80.00 23 23.80.00 31 31.80.00 64 64.80.00 -64"/>
    </vehicle>
    <vehicle id="50_6" depart="52.40">
        <route edges="144 144.121.42 -123 -123.121.42 -120 -120.180.00 -64 -64.80.00 58"/>
    </vehicle>
    <vehicle id="50_7" depart="52.91">
        <route edges="-45.80.00 -27 -27.80.00 -3 -3.180.00 11 11.80.00 23 23.80.00 31 31.80.00 60 60.80.00 92"/>
    </vehicle>
    <vehicle id="50_8" depart="54.04">
        <route edges="144 144.121.42 -123 -123.121.42 -120 -120.180.00 -64 -64.80.00 58"/>
    </vehicle>
    <vehicle id="50_9" depart="54.59">
        <route edges="-43 -43.80.00 -27 -27.80.00"/>
    </vehicle>
    <vehicle id="50_10" depart="54.69">
        <route edges="-71 -55 -55.80.00 -27 -27.80.00 -3 -3.180.00 11 11.80.00 23 23.80.00 31 31.80.00 64 64.80.00 -64"/>
    </vehicle>
    <vehicle id="50_11" depart="54.71">
        <route edges="23 23.80.00 -23 -23.80.00 109"/>
    </vehicle>
    <vehicle id="50_12" depart="56.01">
        <route edges="-79.80.00 -60 -60.80.00 -31 -31.80.00 -23 -23.80.00 -11 -11.80.00 3 3.180.00 27 27.80.00"/>
    </vehicle>
    <vehicle id="50_13" depart="56.38">
        <route edges="-64 -64.80.00 64 64.80.00 120 120.180.00 123 123.121.42"/>
    </vehicle>
    <vehicle id="50_14" depart="56.43">
        <route edges="-109.80.00 -11 -11.80.00 3 3.180.00 27 27.80.00 -27 -27.80.00"/>
    </vehicle>
    <vehicle id="50_15" depart="56.64">
        <route edges="23 23.80.00 -23 -23.80.00 109"/>
    </vehicle>
    <vehicle id="50_16" depart="56.92">
        <route edges="120 120.180.00 -109 -109.80.00 -11 -11.80.00 3 3.180.00 -71 -55 -55.80.00"/>
    </vehicle>
    <vehicle id="50_17" depart="57.93">
        <route edges="-79.80.00 75 75.121.42"/>
    </vehicle>
    <vehicle id="50_18" depart="58.77">
        <route edges="27.80.00 -27 -27.80.00 -3 -3.180.00 11 11.80.00 23 23.80.00 31 31.80.00 60 60.80.00 75 75.121.42"/>
    </vehicle>
    <vehicle id="50_19" depart="59.14">
        <route edges="-37.80.00 -23 -23.80.00 109 109.80.00 131"/>
    </vehicle>
    <vehicle id="50_20" depart="59.22">
        <route edges="-43 -43.80.00 -27 -27.80.00"/>
    </vehicle>
    <vehicle id="50_21" depart="60.33">
        <route edges="11.80.00 23 23.80.00 31"/>
    </vehicle>
    <vehicle id="50_22" depart="60.73">
        <route edges="-27 -27.80.00 -3 -3.180.00 15 15.180.00 -144 -144.121.42 144 144.121.42"/>
    </vehicle>
    <vehicle id="50_23" depart="61.91">
        <route edges="-79.80.00 75 75.121.42 120 120.180.00 131 131.180.00 144 144.121.42"/>
    </vehicle>
    <vehicle id="50_24" depart="61.93">
        <route edges="-123.121.42 131"/>
    </vehicle>
    <vehicle id="50_25" depart="61.99">
        <route edges="-3.180.00 3 3.180.00 -3"/>
    </vehicle>
    <vehicle id="50_26" depart="62.50">
        <route edges="109 109.80.00 -109 -109.80.00 -11 -11.80.00 3 3.180.00 -71 -55 -55.80.00"/>
    </vehicle>
    <vehicle id="50_27" depart="62.54">
        <route edges="3 3.180.00 -3 -3.180.00 11 11.80.00 23 23.80.00 31 31.80.00 64 64.80.00"/>
    </vehicle>
    <vehicle id="50_28" depart="63.03">
        <route edges="-71 -55 -55.80.00 -27 -27.80.00 -3 -3.180.00 11 11.80.00 23 23.80.00 31 31.80.00 64 64.80.00 -64"/>
    </vehicle>
    <vehicle id="50_29" depart="63.04">
        <route edges="-37.80.00 -23 -23.80.00 109 109.80.00 131"/>
    </vehicle>
    <vehicle id="50_30" depart="63.70">
        <route edges="109 109.80.00 -109 -109.80.00 -11 -11.80.00 3 3.180.00 27 27.80.00 43 68 -45"/>
    </vehicle>
    <vehicle id="50_31" depart="65.57">
        <route edges="-43 -43.80.00 -27 -27.80.00"/>
    </vehicle>
    <vehicle id="50_32" depart="66.83">
        <route edges="-109.80.00 -11 -11.80.00 3 3.180.00 27 27.80.00 -27 -27.80.00"/>
    </vehicle>
    <vehicle id="50_33" depart="67.03">
        <route edges="-109.80.00 -11 -11.80.00 3 3.180.00 27 27.80.00 -27"/>
    </vehicle>
    <vehicle id="50_34" depart="67.09">
        <route edges="-109.80.00 -11 -11.80.00 3 3.180.00 27 27.80.00 -27 -27.80.00"/>
    </vehicle>
    <vehicle id="50_35" depart="67.32">
        <route edges="109 109.80.00 -109 -109.80.00 -11 -11.80.00 3 3.180.00 27 27.80.00 43 68 -45"/>
    </vehicle>
    <vehicle id="50_36" depart="67.42">
        <route edges="-152.80.00 -131 -131.180.00 -109 -109.80.00 23 23.80.00 31 31.80.00 64 64.80.00"/>
    </vehicle>
    <vehicle id="50_37" depart="68.86">
        <route edges="71 71.121.42 -3 -3.180.00 11 11.80.00 109 109.80.00 -120"/>
    </vehicle>
    <vehicle id="50_38" depart="68.89">
        <route edges="27.80.00 -27 -27.80.00 -3 -3.180.00 11 11.80.00 23 23.80.00 31 31.80.00 60 60.80.00 75 75.121.42"/>
    </vehicle>
    <vehicle id="50_39" depart="69.27">
        <route edges="-27.80.00 27 27.80.00 45 -68 -43 -43.80.00"/>
    </vehicle>
    <vehicle id="50_40" depart="69.94">
        <route edges="23 23.80.00 -23 -23.80.00 109"/>
    </vehicle>
    <vehicle id="50_41" depart="70.90">
        <route edges="-37.80.00 -23 -23.80.00 109 109.80.00 131"/>
    </vehicle>
    <vehicle id="50_42" depart="71.17">
        <route edges="64.80.00 120 120.180.00 131 131.180.00 -131"/>
    </vehicle>
    <vehicle id="50_43" depart="71.42">
        <route edges="-43 -43.80.00 -27 -27.80.00 -3 -3.180.00 11 11.80.00 109 109.80.00"/>
    </vehicle>
    <vehicle id="50_44" depart="71.68">
        <route edges="-3.180.00 3 3.180.00 -3"/>
    </vehicle>
    <vehicle id="50_45" depart="71.78">
        <route edges="-109.80.00 -11 -11.80.00 3 3.180.00 27 27.80.00 -27 -27.80.00"/>
    </vehicle>
    <vehicle id="50_46" depart="72.12">
        <route edges="71 71.121.42 -3 -3.180.00 11 11.80.00 109 109.80.00 -120"/>
    </vehicle>
    <vehicle id="50_47" depart="73.23">
        <route edges="64.80.00 120 120.180.00 131 131.180.00 -131"/>
    </vehicle>
    <vehicle id="50_48" depart="74.80">
        <route edges="-131.180.00 -109 -109.80.00 -11 -11.80.00 3 3.180.00 -71 -55 -55.80.00"/>
    </vehicle>
    <vehicle id="50_49" depart="75.05">
        <route edges="15 15.180.00 -123 -123.121.42 -120 -120.180.00 -75 -75.121.42 75"/>
    </vehicle>
    <vehicle id="50_50" depart="75.83">
        <route edges="-144 -144.121.42 -131 -131.180.00 131 131.180.00"/>
    </vehicle>
    <vehicle id="50_51" depart="76.72">
        <route edges="-43.80.00 -27 -27.80.00 27 27.80.00"/>
    </vehicle>
    <vehicle id="50_52" depart="76.97">
        <route edges="-37.80.00 -23 -23.80.00 109 109.80.00 131"/>
    </vehicle>
    <vehicle id="50_53" depart="77.40">
        <route edges="68 -45 -45.80.00 -27 -27.80.00 -3 -3.180.00 11 11.80.00 -11"/>
    </vehicle>
    <vehicle id="50_54" depart="78.09">
        <route edges="109 109.80.00 -109 -109.80.00 -11 -11.80.00 3 3.180.00 27 27.80.00 43 68 -45"/>
    </vehicle>
    <vehicle id="50_55" depart="78.30">
        <route edges="144 144.121.42 -123 -123.121.42 -120 -120.180.00 -64 -64.80.00 58"/>
    </vehicle>
    <vehicle id="50_56" depart="78.43">
        <route edges="71.121.42 -3 -3.180.00 15 15.180.00"/>
    </vehicle>
    <vehicle id="50_57" depart="78.67">
        <route edges="-43.80.00 -27 -27.80.00 -3 -3.180.00 15 15.180.00 -144 -144.121.42 152"/>
    </vehicle>
    <vehicle id="50_58" depart="78.80">
        <route edges="-58.121.42 -31 -31.80.00 -23 -23.80.00 -11 -11.80.00 5"/>
    </vehicle>
    <vehicle id="50_59" depart="79.03">
        <route edges="23.80.00 31 31.80.00 60 60.80.00 75 75.121.42"/>
    </vehicle>
    <vehicle id="50_60" depart="80.79">
        <route edges="68 -45 -45.80.00 -27 -27.80.00 -3 -3.180.00 11 11.80.00 -11"/>
    </vehicle>
    <vehicle id="50_61" depart="80.91">
        <route edges="-109.80.00 -11 -11.80.00 3 3.180.00 27 27.80.00 -27"/>
    </vehicle>
    <vehicle id="50_62" depart="81.30">
        <route edges="75 75.121.42 120 120.180.00 -109 -109.80.00 23 23.80.00"/>
    </vehicle>
    <vehicle id="50_63" depart="81.82">
        <route edges="144.121.42 -123 -123.121.42 -120 -120.180.00 -64 -64.80.00 58"/>
    </vehicle>
    <vehicle id="50_64" depart="81.91">
        <route edges="60.80.00 75 75.121.42 -75"/>
    </vehicle>
    <vehicle id="50_65" depart="82.49">
        <route edges="-37.80.00 -23 -23.80.00 109 109.80.00 -109"/>
    </vehicle>
    <vehicle id="50_66" depart="82.57">
        <route edges="-109.80.00 -11 -11.80.00 3 3.180.00 27 27.80.00 -27"/>
    </vehicle>
    <vehicle id="50_67" depart="82.79">
        <route edges="15 15.180.00 -123 -123.121.42 -109 -109.80.00 -11"/>
    </vehicle>
    <vehicle id="50_68" depart="82.86">
        <route edges="-37 -37.80.00 -23 -23.80.00 109 109.80.00 131 131.180.00 144"/>
    </vehicle>
    <vehicle id="50_69" depart="83.86">
        <route edges="120 120.180.00 -120 -120.180.00 -75 -75.121.42 -60"/>
    </vehicle>
    <vehicle id="50_70" depart="83.99">
        <route edges="-109.80.00 23 23.80.00 31 31.80.00 -31 -31.80.00"/>
    </vehicle>
    <vehicle id="50_71" depart="84.08">
        <route edges="71 71.121.42 -3 -3.180.00 11 11.80.00 109 109.80.00 -120"/>
    </vehicle>
    <vehicle id="50_72" depart="84.20">
        <route edges="27.80.00 -27 -27.80.00 -3 -3.180.00 11 11.80.00 23 23.80.00 31 31.80.00 60 60.80.00 75 75.121.42"/>
    </vehicle>
    <vehicle id="50_73" depart="84.42">
        <route edges="-71 -55 -55.80.00 -27 -27.80.00 -3 -3.180.00 11 11.80.00 23 23.80.00 31 31.80.00 58"/>
    </vehicle>
    <vehicle id="50_74" depart="84.64">
        <route edges="-15 -15.180.00 15 15.180.00"/>
    </vehicle>
    <vehicle id="50_75" depart="84.98">
        <route edges="120 120.180.00 -109 -109.80.00 -11 -11.80.00 3 3.180.00 27 27.80.00 43 68 -45"/>
    </vehicle>
    <vehicle id="50_76" depart="85.73">
        <route edges="3.180.00 -3 -3.180.00 11 11.80.00 23 23.80.00 31 31.80.00 58"/>
    </vehicle>
    <vehicle id="50_77" depart="86.50">
        <route edges="27 27.80.00 -27 -27.80.00 -3 -3.180.00 11 11.80.00 109 109.80.00 131 131.180.00"/>
    </vehicle>
    <vehicle id="50_78" depart="86.58">
        <route edges="-79.80.00 75 75.121.42 120 120.180.00 131 131.180.00 144 144.121.42"/>
    </vehicle>
    <vehicle id="50_79" depart="87.00">
        <route edges="-60 -60.80.00 -31 -31.80.00 -23 -23.80.00 -11 -11.80.00 3 3.180.00 27 27.80.00 43 68 -45 -45.80.00"/>
    </vehicle>
    <vehicle id="50_80" depart="87.20">
        <route edges="11 11.80.00 23 23.80.00 31 31.80.00 64 64.80.00"/>
    </vehicle>
    <vehicle id="50_81" depart="88.17">
        <route edges="144 144.121.42 -123 -123.121.42 -120 -120.180.00 -64 -64.80.00 58"/>
    </vehicle>
    <vehicle id="50_82" depart="90.05">
        <route edges="-71 -55 -55.80.00 -27 -27.80.00 -3 -3.180.00 11 11.80.00 23 23.80.00 31 31.80.00 64 64.80.00 -64"/>
    </vehicle>
    <vehicle id="50_83" depart="90.35">
        <route edges="15.180.00 -15 -15.180.00 11 11.80.00 23 23.80.00 31 31.80.00"/>
    </vehicle>
    <vehicle id="50_84" depart="90.56">
        <route edges="27 27.80.00 -27 -27.80.00 -3 -3.180.00 11 11.80.00 23 23.80.00 31 31.80.00 64 64.80.00 -75"/>
    </vehicle>
    <vehicle id="50_85" depart="91.02">
        <route edges="-37 -37.80.00 -23 -23.80.00 109 109.80.00 131 131.180.00 144"/>
    </vehicle>
    <vehicle id="50_86" depart="91.03">
        <route edges="-43 -43.80.00 -27 -27.80.00"/>
    </vehicle>
    <vehicle id="50_87" depart="93.36">
        <route edges="-64.80.00 -31 -31.80.00 -23 -23.80.00 -11 -11.80.00 3 3.180.00 -3"/>
    </vehicle>
    <vehicle id="50_88" depart="93.36">
        <route edges="-71 -55 -55.80.00 -27 -27.80.00 -3 -3.180.00 11 11.80.00 23 23.80.00 31 31.80.00 58"/>
    </vehicle>
    <vehicle id="50_89" depart="94.33">
        <route edges="-148 -148.80.00 144 144.121.42 -15 -15.180.00 3 3.180.00 -3"/>
    </vehicle>
    <vehicle id="50_90" depart="95.76">
        <route edges="68 -45 -45.80.00 -27 -27.80.00 -71 -55"/>
    </vehicle>
    <vehicle id="50_91" depart="96.67">
        <route edges="-43.80.00 -27 -27.80.00 27 27.80.00"/>
    </vehicle>
    <vehicle id="50_92" depart="96.73">
        <route edges="-144 -144.121.42 152"/>
    </vehicle>
    <vehicle id="50_93" depart="96.83">
        <route edges="68 -45 -45.80.00 -27 -27.80.00 -71 -55"/>
    </vehicle>
    <vehicle id="50_94" depart="97.19">
        <route edges="-148 -148.80.00 144 144.121.42 -15 -15.180.00 3 3.180.00 -3"/>
    </vehicle>
    <vehicle id="50_95" depart="97.21">
        <route edges="-71 -55 -55.80.00 -27 -27.80.00 -3 -3.180.00 11 11.80.00 23 23.80.00 31 31.80.00 58"/>
    </vehicle>
    <vehicle id="50_96" depart="97.46">
        <route edges="-64 -64.80.00 64 64.80.00 120 120.180.00 -120 -120.180.00"/>
    </vehicle>
    <vehicle id="50_97" depart="98.38">
        <route edges="-43.80.00 -27 -27.80.00 27 27.80.00"/>
    </vehicle>
    <vehicle id="50_98" depart="98.48">
        <route edges="-75.121.42 -60 -60.80.00 -31 -31.80.00 -23 -23.80.00 23"/>
    </vehicle>
    <vehicle id="50_99" depart="98.98">
        <route edges="-123.121.42 131"/>
    </vehicle>
</routes>
