<?xml version="1.0" encoding="UTF-8"?>

<!-- generated on 2025-03-14 13:55:44 by Eclipse SUMO netedit Version v1_22_0+0833-3008ed3d5dc
<neteditConfiguration xmlns:xsi="http://www.w3.org/2001/XMLSchema-instance" xsi:noNamespaceSchemaLocation="http://sumo.dlr.de/xsd/neteditConfiguration.xsd">

    <input>
        <sumo-net-file value="/scr1/sumo/tests/tools/net/remap_additionals/usable_lanes/net.net.xml"/>
    </input>

    <output>
        <output-file value="/scr1/sumo/tests/tools/net/remap_additionals/usable_lanes/net.net.xml"/>
    </output>

    <processing>
        <offset.disable-normalization value="true"/>
    </processing>

    <junctions>
        <no-turnarounds value="true"/>
    </junctions>

    <netedit>
        <new-network value="false"/>
    </netedit>

</neteditConfiguration>
-->

<net version="1.20" junctionCornerDetail="5" limitTurnSpeed="5.50" xmlns:xsi="http://www.w3.org/2001/XMLSchema-instance" xsi:noNamespaceSchemaLocation="http://sumo.dlr.de/xsd/net_file.xsd">

    <location netOffset="0.00,0.00" convBoundary="0.00,0.00,100.00,0.00" origBoundary="10000000000.00,10000000000.00,-10000000000.00,-10000000000.00" projParameter="!"/>

    <edge id="E0" from="J0" to="J1" priority="-1">
        <lane id="E0_0" index="0" allow="pedestrian" speed="13.89" length="100.00" width="2.00" shape="0.00,-4.20 100.00,-4.20"/>
        <lane id="E0_1" index="1" allow="bus tram" speed="13.89" length="100.00" shape="0.00,-1.60 100.00,-1.60"/>
    </edge>

    <junction id="J0" type="dead_end" x="0.00" y="0.00" incLanes="" intLanes="" shape="0.00,0.00 0.00,-5.20"/>
    <junction id="J1" type="dead_end" x="100.00" y="0.00" incLanes="E0_0 E0_1" intLanes="" shape="100.00,-5.20 100.00,0.00"/>

</net>
