<?xml version="1.0"?>

<!-- generated on 03/22/11 17:44:00 by SUMO netconvert Version dev-SVN-r9956
<?xml version="1.0" encoding="iso-8859-1"?>

<configuration xmlns:xsi="http://www.w3.org/2001/XMLSchema-instance" xsi:noNamespaceSchemaLocation="http://sumo.sf.net/xsd/netconvertConfiguration.xsd">

    <input>
        <sumo-net value="input_net.net.xml"/>
    </input>

    <output>
        <output-file value="net.net.xml"/>
    </output>

    <processing>
        <no-internal-links value="true"/>
    </processing>

    <report>
        <verbose value="true"/>
    </report>

</configuration>
-->

<net>

   <location netOffset="0.00,0.00" convBoundary="0.00,0.00,1000.00,1000.00" origBoundary="0.00,0.00,1000.00,1000.00" projParameter="!"/>

   <edge id="1fi" from="1" to="m1" priority="2" type="" function="normal">
      <lane id="1fi_0" depart="1" maxspeed="11.11" length="248.50" shape="0.00,495.05 248.50,495.05"/>
      <lane id="1fi_1" depart="0" maxspeed="11.11" length="248.50" shape="0.00,498.35 248.50,498.35"/>
   </edge>
   <edge id="1o" from="0" to="1" priority="1" type="" function="normal">
      <lane id="1o_0" depart="1" maxspeed="11.11" length="488.65" shape="488.65,501.65 0.00,501.65"/>
   </edge>
   <edge id="1si" from="m1" to="0" priority="3" type="" function="normal">
      <lane id="1si_0" depart="1" maxspeed="13.89" length="237.15" shape="251.50,491.75 488.65,491.75"/>
      <lane id="1si_1" depart="0" maxspeed="13.89" length="237.15" shape="251.50,495.05 488.65,495.05"/>
      <lane id="1si_2" depart="0" maxspeed="13.89" length="237.15" shape="251.50,498.35 488.65,498.35"/>
   </edge>
   <edge id="2fi" from="2" to="m2" priority="2" type="" function="normal">
      <lane id="2fi_0" depart="1" maxspeed="11.11" length="248.50" shape="1000.00,504.95 751.50,504.95"/>
      <lane id="2fi_1" depart="0" maxspeed="11.11" length="248.50" shape="1000.00,501.65 751.50,501.65"/>
   </edge>
   <edge id="2o" from="0" to="2" priority="1" type="" function="normal">
      <lane id="2o_0" depart="1" maxspeed="11.11" length="488.65" shape="511.35,498.35 1000.00,498.35"/>
   </edge>
   <edge id="2si" from="m2" to="0" priority="3" type="" function="normal">
      <lane id="2si_0" depart="1" maxspeed="13.89" length="237.15" shape="748.50,508.25 511.35,508.25"/>
      <lane id="2si_1" depart="0" maxspeed="13.89" length="237.15" shape="748.50,504.95 511.35,504.95"/>
      <lane id="2si_2" depart="0" maxspeed="13.89" length="237.15" shape="748.50,501.65 511.35,501.65"/>
   </edge>
   <edge id="3fi" from="3" to="m3" priority="2" type="" function="normal">
      <lane id="3fi_0" depart="1" maxspeed="11.11" length="248.50" shape="504.95,0.00 504.95,248.50"/>
      <lane id="3fi_1" depart="0" maxspeed="11.11" length="248.50" shape="501.65,0.00 501.65,248.50"/>
   </edge>
   <edge id="3o" from="0" to="3" priority="1" type="" function="normal">
      <lane id="3o_0" depart="1" maxspeed="11.11" length="488.65" shape="498.35,488.65 498.35,0.00"/>
   </edge>
   <edge id="3si" from="m3" to="0" priority="3" type="" function="normal">
      <lane id="3si_0" depart="1" maxspeed="13.89" length="237.15" shape="508.25,251.50 508.25,488.65"/>
      <lane id="3si_1" depart="0" maxspeed="13.89" length="237.15" shape="504.95,251.50 504.95,488.65"/>
      <lane id="3si_2" depart="0" maxspeed="13.89" length="237.15" shape="501.65,251.50 501.65,488.65"/>
   </edge>
   <edge id="4fi" from="4" to="m4" priority="2" type="" function="normal">
      <lane id="4fi_0" depart="1" maxspeed="11.11" length="248.50" shape="495.05,1000.00 495.05,751.50"/>
      <lane id="4fi_1" depart="0" maxspeed="11.11" length="248.50" shape="498.35,1000.00 498.35,751.50"/>
   </edge>
   <edge id="4o" from="0" to="4" priority="1" type="" function="normal">
      <lane id="4o_0" depart="1" maxspeed="11.11" length="488.65" shape="501.65,511.35 501.65,1000.00"/>
   </edge>
   <edge id="4si" from="m4" to="0" priority="3" type="" function="normal">
      <lane id="4si_0" depart="1" maxspeed="13.89" length="237.15" shape="491.75,748.50 491.75,511.35"/>
      <lane id="4si_1" depart="0" maxspeed="13.89" length="237.15" shape="495.05,748.50 495.05,511.35"/>
      <lane id="4si_2" depart="0" maxspeed="13.89" length="237.15" shape="498.35,748.50 498.35,511.35"/>
   </edge>

   <row-logic id="0" requestSize="14">
      <logicitem request="0" response="00000000000000" foes="00001001000000"/>
      <logicitem request="1" response="00000000000000" foes="10111001000000"/>
      <logicitem request="2" response="00000110000000" foes="10000111000000"/>
      <logicitem request="3" response="00000100010000" foes="00000100010000"/>
      <logicitem request="4" response="00000100000000" foes="00000100001000"/>
      <logicitem request="5" response="11111111111111" foes="00000000000000"/>
      <logicitem request="6" response="00001100000111" foes="00001100000111"/>
      <logicitem request="7" response="00000000000000" foes="10000000000100"/>
      <logicitem request="8" response="00000000000000" foes="10000001011100"/>
      <logicitem request="9" response="00000000000011" foes="10000001000011"/>
      <logicitem request="10" response="00100000000010" foes="00100000000010"/>
      <logicitem request="11" response="00000000000010" foes="00010000000010"/>
      <logicitem request="12" response="11111111111111" foes="00000000000000"/>
      <logicitem request="13" response="00001110000110" foes="00001110000110"/>
   </row-logic>
   <row-logic id="1" requestSize="1">
      <logicitem request="0" response="0" foes="0"/>
   </row-logic>
   <row-logic id="2" requestSize="1">
      <logicitem request="0" response="0" foes="0"/>
   </row-logic>
   <row-logic id="3" requestSize="1">
      <logicitem request="0" response="0" foes="0"/>
   </row-logic>
   <row-logic id="4" requestSize="1">
      <logicitem request="0" response="0" foes="0"/>
   </row-logic>
   <row-logic id="m1" requestSize="3">
      <logicitem request="0" response="000" foes="000"/>
      <logicitem request="1" response="000" foes="000"/>
      <logicitem request="2" response="000" foes="000"/>
   </row-logic>
   <row-logic id="m2" requestSize="3">
      <logicitem request="0" response="000" foes="000"/>
      <logicitem request="1" response="000" foes="000"/>
      <logicitem request="2" response="000" foes="000"/>
   </row-logic>
   <row-logic id="m3" requestSize="3">
      <logicitem request="0" response="000" foes="000"/>
      <logicitem request="1" response="000" foes="000"/>
      <logicitem request="2" response="000" foes="000"/>
   </row-logic>
   <row-logic id="m4" requestSize="3">
      <logicitem request="0" response="000" foes="000"/>
      <logicitem request="1" response="000" foes="000"/>
      <logicitem request="2" response="000" foes="000"/>
   </row-logic>

   <junction id="0" type="priority" x="500.00" y="500.00" incLanes="4si_0 4si_1 4si_2 2si_0 2si_1 2si_2 3si_0 3si_1 3si_2 1si_0 1si_1 1si_2" intLanes="" shape="490.15,511.35 503.25,511.35 511.35,509.85 511.35,496.75 509.85,488.65 496.75,488.65 488.65,490.15 488.65,503.25"/>
   <junction id="1" type="priority" x="0.00" y="500.00" incLanes="1o_0" intLanes="" shape="0.00,499.95 0.00,493.45 -0.00,503.25 -0.00,500.05"/>
   <junction id="2" type="priority" x="1000.00" y="500.00" incLanes="2o_0" intLanes="" shape="1000.00,500.05 1000.00,506.55 1000.00,496.75 1000.00,499.95"/>
   <junction id="3" type="priority" x="500.00" y="0.00" incLanes="3o_0" intLanes="" shape="500.05,0.00 506.55,0.00 496.75,-0.00 499.95,-0.00"/>
   <junction id="4" type="priority" x="500.00" y="1000.00" incLanes="4o_0" intLanes="" shape="499.95,1000.00 493.45,1000.00 503.25,1000.00 500.05,1000.00"/>
   <junction id="m1" type="priority" x="250.00" y="500.00" incLanes="1fi_0 1fi_1" intLanes="" shape="251.50,499.95 251.50,490.15 248.50,493.45 248.50,499.95"/>
   <junction id="m2" type="priority" x="750.00" y="500.00" incLanes="2fi_0 2fi_1" intLanes="" shape="751.50,506.55 751.50,500.05 748.50,500.05 748.50,509.85"/>
   <junction id="m3" type="priority" x="500.00" y="250.00" incLanes="3fi_0 3fi_1" intLanes="" shape="500.05,251.50 509.85,251.50 506.55,248.50 500.05,248.50"/>
   <junction id="m4" type="priority" x="500.00" y="750.00" incLanes="4fi_0 4fi_1" intLanes="" shape="493.45,751.50 499.95,751.50 499.95,748.50 490.15,748.50"/>

   <succ edge="1fi" lane="1fi_0" junction="m1">
      <succlane lane="1si_0" yield="0" dir="s" state="M"/>
      <succlane lane="1si_1" yield="0" dir="s" state="M"/>
   </succ>
   <succ edge="1fi" lane="1fi_1" junction="m1">
      <succlane lane="1si_2" yield="0" dir="s" state="M"/>
   </succ>
   <succ edge="1o" lane="1o_0" junction="1">
      <succlane lane="1fi_1" yield="0" dir="t" state="M"/>
   </succ>
   <succ edge="1si" lane="1si_0" junction="0">
      <succlane lane="3o_0" yield="1" dir="r" state="m"/>
   </succ>
   <succ edge="1si" lane="1si_1" junction="0">
      <succlane lane="SUMO_NO_DESTINATION" yield="1" dir="s" state="O"/>
   </succ>
   <succ edge="1si" lane="1si_2" junction="0">
      <succlane lane="2o_0" yield="1" dir="s" state="m"/>
   </succ>
   <succ edge="2fi" lane="2fi_0" junction="m2">
      <succlane lane="2si_0" yield="0" dir="s" state="M"/>
      <succlane lane="2si_1" yield="0" dir="s" state="M"/>
   </succ>
   <succ edge="2fi" lane="2fi_1" junction="m2">
      <succlane lane="2si_2" yield="0" dir="s" state="M"/>
   </succ>
   <succ edge="2o" lane="2o_0" junction="2">
      <succlane lane="2fi_1" yield="0" dir="t" state="M"/>
   </succ>
   <succ edge="2si" lane="2si_0" junction="0">
      <succlane lane="4o_0" yield="1" dir="r" state="m"/>
   </succ>
   <succ edge="2si" lane="2si_1" junction="0">
      <succlane lane="SUMO_NO_DESTINATION" yield="1" dir="s" state="O"/>
   </succ>
   <succ edge="2si" lane="2si_2" junction="0">
      <succlane lane="1o_0" yield="1" dir="s" state="m"/>
   </succ>
   <succ edge="3fi" lane="3fi_0" junction="m3">
      <succlane lane="3si_0" yield="0" dir="s" state="M"/>
      <succlane lane="3si_1" yield="0" dir="s" state="M"/>
   </succ>
   <succ edge="3fi" lane="3fi_1" junction="m3">
      <succlane lane="3si_2" yield="0" dir="s" state="M"/>
   </succ>
   <succ edge="3o" lane="3o_0" junction="3">
      <succlane lane="3fi_1" yield="0" dir="t" state="M"/>
   </succ>
   <succ edge="3si" lane="3si_0" junction="0">
      <succlane lane="2o_0" yield="0" dir="r" state="M"/>
   </succ>
   <succ edge="3si" lane="3si_1" junction="0">
      <succlane lane="4o_0" yield="0" dir="s" state="M"/>
   </succ>
   <succ edge="3si" lane="3si_2" junction="0">
      <succlane lane="1o_0" yield="1" dir="l" state="m"/>
      <succlane lane="3o_0" yield="1" dir="t" state="m"/>
   </succ>
   <succ edge="4fi" lane="4fi_0" junction="m4">
      <succlane lane="4si_0" yield="0" dir="s" state="M"/>
      <succlane lane="4si_1" yield="0" dir="s" state="M"/>
   </succ>
   <succ edge="4fi" lane="4fi_1" junction="m4">
      <succlane lane="4si_2" yield="0" dir="s" state="M"/>
   </succ>
   <succ edge="4o" lane="4o_0" junction="4">
      <succlane lane="4fi_1" yield="0" dir="t" state="M"/>
   </succ>
   <succ edge="4si" lane="4si_0" junction="0">
      <succlane lane="1o_0" yield="0" dir="r" state="M"/>
   </succ>
   <succ edge="4si" lane="4si_1" junction="0">
      <succlane lane="3o_0" yield="0" dir="s" state="M"/>
   </succ>
   <succ edge="4si" lane="4si_2" junction="0">
      <succlane lane="2o_0" yield="1" dir="l" state="m"/>
      <succlane lane="4o_0" yield="1" dir="t" state="m"/>
   </succ>

</net>
