<?xml version="1.0" encoding="UTF-8"?>

<!-- generated on 2024-06-04 16:28:41 by Eclipse SUMO netedit Version v1_20_0+0345-f9c5dc4db4d
-->

<data xmlns:xsi="http://www.w3.org/2001/XMLSchema-instance" xsi:noNamespaceSchemaLocation="http://sumo.dlr.de/xsd/datamode_file.xsd">
    <interval id="dataSet" begin="0.00" end="3600.00">
        <edge id="Edge0"/>
        <edge id="Edge1"/>
        <edge id="Edge2"/>
        <edge id="Edge3"/>
        <edge id="Edge4"/>
        <edge id="Edge5"/>
    </interval>
</data>
