<?xml version="1.0" encoding="UTF-8"?>

<!-- generated on 2024-09-26 14:28:50 by Eclipse SUMO netedit Version v1_20_0+2157-7cbf65e8f91
-->

<additional xmlns:xsi="http://www.w3.org/2001/XMLSchema-instance" xsi:noNamespaceSchemaLocation="http://sumo.dlr.de/xsd/additional_file.xsd">
    <!-- StoppingPlaces -->
    <parkingArea id="pa_0" lane="2_0"/>
    <parkingArea id="pa_1" lane="3_0"/>
    <parkingArea id="pa_2" lane="4_0"/>
    <parkingArea id="pa_3" lane="5_0"/>
    <parkingArea id="pa_4" lane="6_0"/>
    <parkingArea id="pa_5" lane="7_0"/>
    <parkingArea id="pa_6" lane="8_0"/>
    <parkingArea id="pa_7" lane="1_0"/>
</additional>
