<?xml version="1.0" encoding="UTF-8"?>

<!-- generated on 2023-07-06 14:50:22 by Eclipse SUMO netedit Version v1_18_0+0154-2cecf1f1665
-->

<routes xmlns:xsi="http://www.w3.org/2001/XMLSchema-instance" xsi:noNamespaceSchemaLocation="http://sumo.dlr.de/xsd/routes_file.xsd">
    <!-- Vehicles, persons and containers (sorted by depart) -->
    <containerFlow id="cf_0" begin="0.00" number="1800" containersPerHour="1800">
        <tranship from="Edge0" containerStop="containerStopA" departPos="0.00"/>
    </containerFlow>
    <containerFlow id="cf_1" begin="0.00" number="22" containersPerHour="1800">
        <tranship from="Edge0" containerStop="containerStopA" departPos="0.00"/>
    </containerFlow>
</routes>
