<?xml version="1.0" encoding="UTF-8"?>

<!-- generated on 2022-05-12 14:55:38 by Eclipse SUMO netedit Version v1_13_0+0209-c80bd0b05ce
-->

<routes xmlns:xsi="http://www.w3.org/2001/XMLSchema-instance" xsi:noNamespaceSchemaLocation="http://sumo.dlr.de/xsd/routes_file.xsd">
    <!-- Vehicles, persons and containers (sorted by depart) -->
    <personFlow id="customID" begin="0.00" end="3600.00" personsPerHour="1800.00">
        <personTrip from="gneE2" to="gneE5"/>
    </personFlow>
    <personFlow id="f_1" begin="0.00" end="3600.00" personsPerHour="1800.00">
        <personTrip from="gneE4" to="gneE5"/>
    </personFlow>
</routes>
