<?xml version="1.0" encoding="UTF-8"?>

<!-- generated on Thu Apr 12 00:04:47 2018 by SUMO netconvert Version c8481b0
This data file and the accompanying materials
are made available under the terms of the Eclipse Public License v2.0
which accompanies this distribution, and is available at
http://www.eclipse.org/legal/epl-v20.html
SPDX-License-Identifier: EPL-2.0
<configuration xmlns:xsi="http://www.w3.org/2001/XMLSchema-instance" xsi:noNamespaceSchemaLocation="http://sumo.dlr.de/xsd/netconvertConfiguration.xsd">

    <input>
        <node-files value="input_plain.nod.xml"/>
        <edge-files value="input_plain.edg.xml"/>
    </input>

    <output>
        <write-license value="true"/>
    </output>

    <processing>
        <ignore-errors.edge-type value="true"/>
        <junctions.corner-detail value="1"/>
    </processing>

    <report>
        <xml-validation value="never"/>
    </report>

</configuration>
-->

<net version="0.27" junctionCornerDetail="1" xmlns:xsi="http://www.w3.org/2001/XMLSchema-instance" xsi:noNamespaceSchemaLocation="http://sumo.dlr.de/xsd/net_file.xsd">

    <location netOffset="-344429.35,-5690041.96" convBoundary="0.00,0.00,184.82,112.33" origBoundary="12.547925,51.288513,12.885676,51.473444" projParameter="+proj=utm +zone=33 +ellps=WGS84 +datum=WGS84 +units=m +no_defs"/>

    <edge id=":823316987_0" function="internal">
        <lane id=":823316987_0_0" index="0" disallow="rail_urban rail rail_electric" speed="13.89" length="8.13" shape="75.77,59.62 74.21,61.47 73.21,62.79 72.39,64.22 71.38,66.41"/>
    </edge>
    <edge id=":823316987_1" function="internal">
        <lane id=":823316987_1_0" index="0" disallow="rail_urban rail rail_electric" speed="13.89" length="4.88" shape="75.77,59.62 73.67,61.50 71.71,62.16"/>
    </edge>
    <edge id=":823316987_2" function="internal">
        <lane id=":823316987_2_0" index="0" disallow="rail_urban rail rail_electric" speed="13.89" length="2.34" shape="75.77,59.62 74.38,60.02 73.51,59.81"/>
    </edge>
    <edge id=":823316987_9" function="internal">
        <lane id=":823316987_9_0" index="0" speed="13.89" length="5.37" shape="71.71,62.16 71.48,62.24 69.21,61.84 66.84,60.31"/>
    </edge>
    <edge id=":823316987_10" function="internal">
        <lane id=":823316987_10_0" index="0" speed="13.89" length="2.34" shape="73.51,59.81 73.16,58.99 73.32,57.56"/>
    </edge>
    <edge id=":823316987_3" function="internal">
        <lane id=":823316987_3_0" index="0" disallow="rail_urban rail rail_electric" speed="13.89" length="5.02" shape="68.94,57.90 70.10,58.65 71.22,58.84 72.29,58.48 73.32,57.56"/>
    </edge>
    <edge id=":823316987_4" function="internal">
        <lane id=":823316987_4_0" index="0" disallow="rail_urban rail rail_electric" speed="13.89" length="9.55" shape="68.94,57.90 70.77,59.89 71.79,61.98 71.99,64.15 71.38,66.41"/>
    </edge>
    <edge id=":823316987_5" function="internal">
        <lane id=":823316987_5_0" index="0" disallow="rail_urban rail rail_electric" speed="13.89" length="4.67" shape="68.94,57.90 69.32,59.29 69.10,60.16 68.27,60.50 66.84,60.31"/>
    </edge>
    <edge id=":823316987_6" function="internal">
        <lane id=":823316987_6_0" index="0" disallow="rail_urban rail rail_electric" speed="13.89" length="5.45" shape="68.45,65.11 68.76,63.89 68.59,62.69 67.95,61.49 66.84,60.31"/>
    </edge>
    <edge id=":823316987_7" function="internal">
        <lane id=":823316987_7_0" index="0" disallow="rail_urban rail rail_electric" speed="13.89" length="9.04" shape="68.45,65.11 69.57,62.68 70.48,61.09 71.59,59.61 73.32,57.56"/>
    </edge>
    <edge id=":823316987_8" function="internal">
        <lane id=":823316987_8_0" index="0" disallow="rail_urban rail rail_electric" speed="13.89" length="2.34" shape="68.45,65.11 69.67,64.34 70.56,64.30"/>
    </edge>
    <edge id=":823316987_11" function="internal">
        <lane id=":823316987_11_0" index="0" speed="13.89" length="2.34" shape="70.56,64.30 71.13,64.99 71.38,66.41"/>
    </edge>
    <edge id=":829260290_0" function="internal">
        <lane id=":829260290_0_0" index="0" allow="delivery bicycle pedestrian" speed="5.56" length="4.67" shape="99.32,68.04 99.77,69.41 99.58,70.28 98.77,70.66 97.34,70.54"/>
    </edge>
    <edge id=":829260299_0" function="internal">
        <lane id=":829260299_0_0" index="0" disallow="rail_urban rail rail_electric" speed="13.89" length="4.67" shape="185.09,41.57 186.14,42.57 186.40,43.42 185.87,44.14 184.55,44.73"/>
    </edge>
    <edge id=":829260312_0" function="internal">
        <lane id=":829260312_0_0" index="0" disallow="rail_urban rail rail_electric" speed="13.89" length="4.67" shape="-1.05,1.21 -1.43,-0.18 -1.21,-1.05 -0.38,-1.39 1.05,-1.21"/>
    </edge>
    <edge id=":829260313_0" function="internal">
        <lane id=":829260313_0_0" index="0" disallow="rail_urban rail rail_electric" speed="13.89" length="11.51" shape="91.64,49.34 88.67,50.56 85.87,50.68 83.33,51.05 81.13,53.00"/>
    </edge>
    <edge id=":829260313_1" function="internal">
        <lane id=":829260313_1_0" index="0" disallow="rail_urban rail rail_electric" speed="13.89" length="39.21" shape="91.64,49.34 80.32,56.84 75.81,57.85 78.11,52.37 87.24,40.39"/>
    </edge>
    <edge id=":829260313_2" function="internal">
        <lane id=":829260313_2_0" index="0" disallow="rail_urban rail rail_electric" speed="13.89" length="5.49" shape="91.64,49.34 90.16,48.51 89.62,47.61 90.02,46.64 91.35,45.59"/>
    </edge>
    <edge id=":829260313_3" function="internal">
        <lane id=":829260313_3_0" index="0" disallow="rail_urban rail rail_electric" speed="13.89" length="14.10" shape="89.71,42.42 86.44,46.72 85.62,48.68 87.26,48.30 91.35,45.59"/>
    </edge>
    <edge id=":829260313_4" function="internal">
        <lane id=":829260313_4_0" index="0" disallow="rail_urban rail rail_electric" speed="13.89" length="13.63" shape="89.71,42.42 87.40,45.11 85.23,47.57 83.15,50.10 81.13,53.00"/>
    </edge>
    <edge id=":829260313_5" function="internal">
        <lane id=":829260313_5_0" index="0" disallow="rail_urban rail rail_electric" speed="13.89" length="2.34" shape="89.71,42.42 88.33,42.84 87.45,42.64"/>
    </edge>
    <edge id=":829260313_9" function="internal">
        <lane id=":829260313_9_0" index="0" speed="13.89" length="2.34" shape="87.45,42.64 87.09,41.83 87.24,40.39"/>
    </edge>
    <edge id=":829260313_6" function="internal">
        <lane id=":829260313_6_0" index="0" disallow="rail_urban rail rail_electric" speed="13.89" length="14.08" shape="78.40,51.34 80.45,48.38 82.62,45.72 84.89,43.13 87.24,40.39"/>
    </edge>
    <edge id=":829260313_7" function="internal">
        <lane id=":829260313_7_0" index="0" disallow="rail_urban rail rail_electric" speed="13.89" length="4.79" shape="78.40,51.34 80.98,49.07 82.27,48.65"/>
    </edge>
    <edge id=":829260313_8" function="internal">
        <lane id=":829260313_8_0" index="0" disallow="rail_urban rail rail_electric" speed="13.89" length="2.44" shape="78.40,51.34 79.70,50.72 80.60,50.80 80.65,50.89"/>
    </edge>
    <edge id=":829260313_10" function="internal">
        <lane id=":829260313_10_0" index="0" speed="13.89" length="9.62" shape="82.27,48.65 84.36,47.98 87.99,47.14 91.35,45.59"/>
    </edge>
    <edge id=":829260313_11" function="internal">
        <lane id=":829260313_11_0" index="0" speed="13.89" length="2.23" shape="80.65,50.89 81.07,51.56 81.13,53.00"/>
    </edge>
    <edge id=":829260314_0" function="internal">
        <lane id=":829260314_0_0" index="0" disallow="rail_urban rail rail_electric" speed="9.73" length="5.18" shape="81.50,57.94 80.39,57.01 79.29,56.71 78.20,57.04 77.12,58.01"/>
    </edge>
    <edge id=":829260314_1" function="internal">
        <lane id=":829260314_1_0" index="0" disallow="rail_urban rail rail_electric" speed="9.73" length="7.50" shape="81.50,57.94 79.71,55.75 78.57,53.94 78.10,52.53 78.29,51.50"/>
    </edge>
    <edge id=":829260314_2" function="internal">
        <lane id=":829260314_2_0" index="0" allow="delivery bicycle pedestrian" speed="5.56" length="4.70" shape="81.50,57.94 81.30,56.50 81.63,55.67 82.50,55.43 83.91,55.80"/>
    </edge>
    <edge id=":829260314_3" function="internal">
        <lane id=":829260314_3_0" index="0" allow="delivery bicycle pedestrian" speed="9.73" length="4.08" shape="81.03,53.17 81.14,53.85 81.97,54.57 83.05,55.24 83.91,55.80"/>
    </edge>
    <edge id=":829260314_4" function="internal">
        <lane id=":829260314_4_0" index="0" disallow="rail_urban rail rail_electric" speed="13.89" length="6.23" shape="81.03,53.17 80.00,54.70 79.20,55.68 78.34,56.62 77.12,58.01"/>
    </edge>
    <edge id=":829260314_5" function="internal">
        <lane id=":829260314_5_0" index="0" disallow="rail_urban rail rail_electric" speed="13.89" length="2.34" shape="81.03,53.17 79.72,53.78 78.83,53.70"/>
    </edge>
    <edge id=":829260314_9" function="internal">
        <lane id=":829260314_9_0" index="0" speed="13.89" length="2.34" shape="78.83,53.70 78.35,52.95 78.29,51.50"/>
    </edge>
    <edge id=":829260314_6" function="internal">
        <lane id=":829260314_6_0" index="0" disallow="rail_urban rail rail_electric" speed="13.89" length="5.74" shape="74.67,55.95 75.80,54.67 76.60,53.81 77.34,52.91 78.29,51.50"/>
    </edge>
    <edge id=":829260314_7" function="internal">
        <lane id=":829260314_7_0" index="0" allow="delivery bicycle pedestrian" speed="9.73" length="4.76" shape="74.67,55.95 76.66,54.25 78.74,53.70"/>
    </edge>
    <edge id=":829260314_8" function="internal">
        <lane id=":829260314_8_0" index="0" disallow="rail_urban rail rail_electric" speed="13.89" length="2.34" shape="74.67,55.95 76.06,55.54 76.93,55.75"/>
    </edge>
    <edge id=":829260314_10" function="internal">
        <lane id=":829260314_10_0" index="0" speed="9.73" length="5.68" shape="78.74,53.70 78.87,53.67 81.28,54.18 83.91,55.80"/>
    </edge>
    <edge id=":829260314_11" function="internal">
        <lane id=":829260314_11_0" index="0" speed="13.89" length="2.34" shape="76.93,55.75 77.28,56.57 77.12,58.01"/>
    </edge>
    <edge id=":829260331_0" function="internal">
        <lane id=":829260331_0_0" index="0" disallow="rail_urban rail rail_electric" speed="13.89" length="4.67" shape="109.26,13.62 110.64,13.21 111.52,13.40 111.88,14.22 111.74,15.66"/>
    </edge>
    <edge id=":847163225_0" function="internal">
        <lane id=":847163225_0_0" index="0" disallow="rail_urban rail rail_electric" speed="13.89" length="4.67" shape="55.25,112.78 54.14,113.71 53.26,113.87 52.60,113.26 52.17,111.88"/>
    </edge>

    <edge id="-68424027#0" from="829260313" to="829260331" priority="6" type="highway.tertiary">
        <lane id="-68424027#0_0" index="0" disallow="rail_urban rail rail_electric" speed="13.89" length="34.67" shape="87.24,40.39 109.26,13.62"/>
    </edge>
    <edge id="-68424027#1" from="829260314" to="829260313" priority="6" type="highway.tertiary">
        <lane id="-68424027#1_0" index="0" disallow="rail_urban rail rail_electric" speed="13.89" length="0.20" shape="78.29,51.50 78.40,51.34"/>
    </edge>
    <edge id="-68424027#2" from="823316987" to="829260314" priority="6" type="highway.tertiary">
        <lane id="-68424027#2_0" index="0" disallow="rail_urban rail rail_electric" speed="13.89" length="2.11" shape="73.32,57.56 74.67,55.95"/>
    </edge>
    <edge id="-68424027#3" from="847163225" to="823316987" priority="6" type="highway.tertiary" shape="53.71,112.33 54.53,109.54 61.29,85.23 71.48,62.23">
        <lane id="-68424027#3_0" index="0" disallow="rail_urban rail rail_electric" speed="13.89" length="49.65" shape="52.17,111.88 52.99,109.10 59.78,84.69 68.45,65.11"/>
    </edge>
    <edge id="-69122430" from="829260299" to="829260313" priority="4" type="highway.residential" shape="184.82,43.15 155.20,38.01 127.51,35.03 117.40,34.95 107.01,37.84 94.69,45.13 86.36,51.21 80.24,51.41">
        <lane id="-69122430_0" index="0" disallow="rail_urban rail rail_electric" speed="13.89" length="96.78" shape="184.55,44.73 154.98,39.60 127.42,36.63 117.61,36.55 107.64,39.32 95.57,46.47 91.64,49.34"/>
    </edge>
    <edge id="-70849826" from="829260290" to="829260314" priority="2" type="highway.service" shape="98.33,69.29 82.71,56.89 79.24,53.00">
        <lane id="-70849826_0" index="0" allow="delivery bicycle pedestrian" speed="5.56" length="20.24" shape="97.34,70.54 81.61,58.06 81.50,57.94"/>
    </edge>
    <edge id="-75091036#1" from="823316987" to="829260312" priority="5" type="highway.unclassified">
        <lane id="-75091036#1_0" index="0" disallow="rail_urban rail rail_electric" speed="13.89" length="90.02" shape="66.84,60.31 -1.05,1.21"/>
    </edge>
    <edge id="68424027#0" from="829260331" to="829260313" priority="6" type="highway.tertiary">
        <lane id="68424027#0_0" index="0" disallow="rail_urban rail rail_electric" speed="13.89" length="34.67" shape="111.74,15.66 89.71,42.42"/>
    </edge>
    <edge id="68424027#1" from="829260313" to="829260314" priority="6" type="highway.tertiary">
        <lane id="68424027#1_0" index="0" disallow="rail_urban rail rail_electric" speed="13.89" length="0.20" shape="81.13,53.00 81.03,53.17"/>
    </edge>
    <edge id="68424027#2" from="829260314" to="823316987" priority="6" type="highway.tertiary">
        <lane id="68424027#2_0" index="0" disallow="rail_urban rail rail_electric" speed="13.89" length="2.11" shape="77.12,58.01 75.77,59.62"/>
    </edge>
    <edge id="68424027#3" from="823316987" to="847163225" priority="6" type="highway.tertiary" shape="71.48,62.23 61.29,85.23 54.53,109.54 53.71,112.33">
        <lane id="68424027#3_0" index="0" disallow="rail_urban rail rail_electric" speed="13.89" length="49.22" shape="71.38,66.41 62.80,85.77 56.07,109.97 55.25,112.78"/>
    </edge>
    <edge id="69122430" from="829260313" to="829260299" priority="4" type="highway.residential" shape="80.24,51.41 86.36,51.21 94.69,45.13 107.01,37.84 117.40,34.95 127.51,35.03 155.20,38.01 184.82,43.15">
        <lane id="69122430_0" index="0" disallow="rail_urban rail rail_electric" speed="13.89" length="97.38" shape="91.35,45.59 93.81,43.79 106.38,36.36 117.19,33.35 127.60,33.43 155.42,36.42 185.09,41.57"/>
    </edge>
    <edge id="70849826" from="829260314" to="829260290" priority="2" type="highway.service" shape="79.24,53.00 82.71,56.89 98.33,69.29">
        <lane id="70849826_0" index="0" allow="delivery bicycle pedestrian" speed="5.56" length="19.69" shape="83.91,55.80 99.32,68.04"/>
    </edge>
    <edge id="75091036#1" from="829260312" to="823316987" priority="5" type="highway.unclassified">
        <lane id="75091036#1_0" index="0" disallow="rail_urban rail rail_electric" speed="13.89" length="90.02" shape="1.05,-1.21 68.94,57.90"/>
    </edge>

    <junction id="823316987" type="priority" x="71.48" y="62.23" incLanes="68424027#2_0 75091036#1_0 -68424027#3_0" intLanes=":823316987_0_0 :823316987_9_0 :823316987_10_0 :823316987_3_0 :823316987_4_0 :823316987_5_0 :823316987_6_0 :823316987_7_0 :823316987_11_0" shape="76.99,60.65 72.09,56.53 69.99,56.69 65.79,61.52 66.99,64.46 72.84,67.06 74.57,63.64">
        <request index="0" response="000000000" foes="100010000" cont="0"/>
        <request index="1" response="011000000" foes="011110000" cont="1"/>
        <request index="2" response="010001000" foes="010001000" cont="1"/>
        <request index="3" response="010000000" foes="010000100" cont="0"/>
        <request index="4" response="010000011" foes="110000011" cont="0"/>
        <request index="5" response="001000010" foes="001000010" cont="0"/>
        <request index="6" response="000000000" foes="000100010" cont="0"/>
        <request index="7" response="000000000" foes="000011110" cont="0"/>
        <request index="8" response="000010001" foes="000010001" cont="1"/>
    </junction>
    <junction id="829260290" type="priority" x="98.33" y="69.29" incLanes="70849826_0" intLanes=":829260290_0_0" shape="98.33,69.29 100.32,66.78 98.33,69.29">
        <request index="0" response="0" foes="0" cont="0"/>
    </junction>
    <junction id="829260299" type="priority" x="184.82" y="43.15" incLanes="69122430_0" intLanes=":829260299_0_0" shape="184.82,43.15 185.37,40.00 184.82,43.15">
        <request index="0" response="0" foes="0" cont="0"/>
    </junction>
    <junction id="829260312" type="priority" x="0.00" y="0.00" incLanes="-75091036#1_0" intLanes=":829260312_0_0" shape="0.00,0.00 -2.10,2.41 0.00,0.00">
        <request index="0" response="0" foes="0" cont="0"/>
    </junction>
    <junction id="829260313" type="priority" x="80.24" y="51.41" incLanes="-69122430_0 68424027#0_0 -68424027#1_0" intLanes=":829260313_0_0 :829260313_1_0 :829260313_2_0 :829260313_3_0 :829260313_4_0 :829260313_9_0 :829260313_6_0 :829260313_10_0 :829260313_11_0" shape="91.79,51.21 91.20,43.72 90.94,43.44 86.00,39.37 76.53,51.30 81.95,54.70">
        <request index="0" response="000010000" foes="100010000" cont="0"/>
        <request index="1" response="011010000" foes="011110000" cont="0"/>
        <request index="2" response="010001000" foes="010001000" cont="0"/>
        <request index="3" response="000000000" foes="010000100" cont="0"/>
        <request index="4" response="000000000" foes="110000011" cont="0"/>
        <request index="5" response="001000010" foes="001000010" cont="1"/>
        <request index="6" response="000000000" foes="000100010" cont="0"/>
        <request index="7" response="000011000" foes="000011110" cont="1"/>
        <request index="8" response="000010001" foes="000010001" cont="1"/>
    </junction>
    <junction id="829260314" type="priority" x="79.24" y="53.00" incLanes="-70849826_0 68424027#1_0 -68424027#2_0" intLanes=":829260314_0_0 :829260314_1_0 :829260314_2_0 :829260314_3_0 :829260314_4_0 :829260314_9_0 :829260314_6_0 :829260314_10_0 :829260314_11_0" shape="80.31,59.01 85.12,54.71 82.86,53.25 77.45,49.84 76.05,51.74 73.45,54.92 78.35,59.04">
        <request index="0" response="000010000" foes="100010000" cont="0"/>
        <request index="1" response="011010000" foes="011110000" cont="0"/>
        <request index="2" response="010001000" foes="010001000" cont="0"/>
        <request index="3" response="000000000" foes="010000100" cont="0"/>
        <request index="4" response="000000000" foes="110000011" cont="0"/>
        <request index="5" response="001000010" foes="001000010" cont="1"/>
        <request index="6" response="000000000" foes="000100010" cont="0"/>
        <request index="7" response="000011000" foes="000011110" cont="1"/>
        <request index="8" response="000010001" foes="000010001" cont="1"/>
    </junction>
    <junction id="829260331" type="priority" x="110.50" y="14.64" incLanes="-68424027#0_0" intLanes=":829260331_0_0" shape="110.50,14.64 108.03,12.61 110.50,14.64">
        <request index="0" response="0" foes="0" cont="0"/>
    </junction>
    <junction id="847163225" type="priority" x="53.71" y="112.33" incLanes="68424027#3_0" intLanes=":847163225_0_0" shape="53.71,112.33 56.78,113.23 53.71,112.33">
        <request index="0" response="0" foes="0" cont="0"/>
    </junction>

    <junction id=":823316987_9_0" type="internal" x="71.71" y="62.16" incLanes=":823316987_1_0 -68424027#3_0" intLanes=":823316987_4_0 :823316987_5_0 :823316987_6_0 :823316987_7_0"/>
    <junction id=":823316987_10_0" type="internal" x="73.51" y="59.81" incLanes=":823316987_2_0 -68424027#3_0 75091036#1_0" intLanes=":823316987_3_0 :823316987_7_0"/>
    <junction id=":823316987_11_0" type="internal" x="70.56" y="64.30" incLanes=":823316987_8_0 68424027#2_0 75091036#1_0" intLanes=":823316987_0_0 :823316987_4_0"/>
    <junction id=":829260313_9_0" type="internal" x="87.45" y="42.64" incLanes=":829260313_5_0 -68424027#1_0 -69122430_0" intLanes=":829260313_1_0 :829260313_6_0"/>
    <junction id=":829260313_10_0" type="internal" x="82.27" y="48.65" incLanes=":829260313_7_0 68424027#0_0" intLanes=":829260313_1_0 :829260313_2_0 :829260313_3_0 :829260313_4_0"/>
    <junction id=":829260313_11_0" type="internal" x="80.65" y="50.89" incLanes=":829260313_8_0 -69122430_0 68424027#0_0" intLanes=":829260313_0_0 :829260313_4_0"/>
    <junction id=":829260314_9_0" type="internal" x="78.83" y="53.70" incLanes=":829260314_5_0 -68424027#2_0 -70849826_0" intLanes=":829260314_1_0 :829260314_6_0"/>
    <junction id=":829260314_10_0" type="internal" x="78.74" y="53.70" incLanes=":829260314_7_0 68424027#1_0" intLanes=":829260314_1_0 :829260314_2_0 :829260314_3_0 :829260314_4_0"/>
    <junction id=":829260314_11_0" type="internal" x="76.93" y="55.75" incLanes=":829260314_8_0 -70849826_0 68424027#1_0" intLanes=":829260314_0_0 :829260314_4_0"/>

    <connection from="-68424027#0" to="68424027#0" fromLane="0" toLane="0" via=":829260331_0_0" dir="t" state="M"/>
    <connection from="-68424027#1" to="-68424027#0" fromLane="0" toLane="0" via=":829260313_6_0" dir="s" state="M"/>
    <connection from="-68424027#1" to="69122430" fromLane="0" toLane="0" via=":829260313_7_0" dir="l" state="m"/>
    <connection from="-68424027#1" to="68424027#1" fromLane="0" toLane="0" via=":829260313_8_0" dir="t" state="m"/>
    <connection from="-68424027#2" to="-68424027#1" fromLane="0" toLane="0" via=":829260314_6_0" dir="s" state="M"/>
    <connection from="-68424027#2" to="70849826" fromLane="0" toLane="0" via=":829260314_7_0" dir="l" state="m"/>
    <connection from="-68424027#2" to="68424027#2" fromLane="0" toLane="0" via=":829260314_8_0" dir="t" state="m"/>
    <connection from="-68424027#3" to="-75091036#1" fromLane="0" toLane="0" via=":823316987_6_0" dir="r" state="M"/>
    <connection from="-68424027#3" to="-68424027#2" fromLane="0" toLane="0" via=":823316987_7_0" dir="s" state="M"/>
    <connection from="-68424027#3" to="68424027#3" fromLane="0" toLane="0" via=":823316987_8_0" dir="t" state="m"/>
    <connection from="-69122430" to="68424027#1" fromLane="0" toLane="0" via=":829260313_0_0" dir="r" state="m"/>
    <connection from="-69122430" to="-68424027#0" fromLane="0" toLane="0" via=":829260313_1_0" dir="l" state="m"/>
    <connection from="-69122430" to="69122430" fromLane="0" toLane="0" via=":829260313_2_0" dir="t" state="m"/>
    <connection from="-70849826" to="68424027#2" fromLane="0" toLane="0" via=":829260314_0_0" dir="r" state="m"/>
    <connection from="-70849826" to="-68424027#1" fromLane="0" toLane="0" via=":829260314_1_0" dir="l" state="m"/>
    <connection from="-70849826" to="70849826" fromLane="0" toLane="0" via=":829260314_2_0" dir="t" state="m"/>
    <connection from="-75091036#1" to="75091036#1" fromLane="0" toLane="0" via=":829260312_0_0" dir="t" state="M"/>
    <connection from="68424027#0" to="69122430" fromLane="0" toLane="0" via=":829260313_3_0" dir="r" state="M"/>
    <connection from="68424027#0" to="68424027#1" fromLane="0" toLane="0" via=":829260313_4_0" dir="s" state="M"/>
    <connection from="68424027#0" to="-68424027#0" fromLane="0" toLane="0" via=":829260313_5_0" dir="t" state="m"/>
    <connection from="68424027#1" to="70849826" fromLane="0" toLane="0" via=":829260314_3_0" dir="r" state="M"/>
    <connection from="68424027#1" to="68424027#2" fromLane="0" toLane="0" via=":829260314_4_0" dir="s" state="M"/>
    <connection from="68424027#1" to="-68424027#1" fromLane="0" toLane="0" via=":829260314_5_0" dir="t" state="m"/>
    <connection from="68424027#2" to="68424027#3" fromLane="0" toLane="0" via=":823316987_0_0" dir="s" state="M"/>
    <connection from="68424027#2" to="-75091036#1" fromLane="0" toLane="0" via=":823316987_1_0" dir="l" state="m"/>
    <connection from="68424027#2" to="-68424027#2" fromLane="0" toLane="0" via=":823316987_2_0" dir="t" state="m"/>
    <connection from="68424027#3" to="-68424027#3" fromLane="0" toLane="0" via=":847163225_0_0" dir="t" state="M"/>
    <connection from="69122430" to="-69122430" fromLane="0" toLane="0" via=":829260299_0_0" dir="t" state="M"/>
    <connection from="70849826" to="-70849826" fromLane="0" toLane="0" via=":829260290_0_0" dir="t" state="M"/>
    <connection from="75091036#1" to="-68424027#2" fromLane="0" toLane="0" via=":823316987_3_0" dir="r" state="m"/>
    <connection from="75091036#1" to="68424027#3" fromLane="0" toLane="0" via=":823316987_4_0" dir="l" state="m"/>
    <connection from="75091036#1" to="-75091036#1" fromLane="0" toLane="0" via=":823316987_5_0" dir="t" state="m"/>

    <connection from=":823316987_0" to="68424027#3" fromLane="0" toLane="0" dir="s" state="M"/>
    <connection from=":823316987_1" to="-75091036#1" fromLane="0" toLane="0" via=":823316987_9_0" dir="l" state="m"/>
    <connection from=":823316987_9" to="-75091036#1" fromLane="0" toLane="0" dir="l" state="M"/>
    <connection from=":823316987_2" to="-68424027#2" fromLane="0" toLane="0" via=":823316987_10_0" dir="t" state="m"/>
    <connection from=":823316987_10" to="-68424027#2" fromLane="0" toLane="0" dir="t" state="M"/>
    <connection from=":823316987_3" to="-68424027#2" fromLane="0" toLane="0" dir="r" state="M"/>
    <connection from=":823316987_4" to="68424027#3" fromLane="0" toLane="0" dir="l" state="M"/>
    <connection from=":823316987_5" to="-75091036#1" fromLane="0" toLane="0" dir="t" state="M"/>
    <connection from=":823316987_6" to="-75091036#1" fromLane="0" toLane="0" dir="r" state="M"/>
    <connection from=":823316987_7" to="-68424027#2" fromLane="0" toLane="0" dir="s" state="M"/>
    <connection from=":823316987_8" to="68424027#3" fromLane="0" toLane="0" via=":823316987_11_0" dir="t" state="m"/>
    <connection from=":823316987_11" to="68424027#3" fromLane="0" toLane="0" dir="t" state="M"/>
    <connection from=":829260290_0" to="-70849826" fromLane="0" toLane="0" dir="t" state="M"/>
    <connection from=":829260299_0" to="-69122430" fromLane="0" toLane="0" dir="t" state="M"/>
    <connection from=":829260312_0" to="75091036#1" fromLane="0" toLane="0" dir="t" state="M"/>
    <connection from=":829260313_0" to="68424027#1" fromLane="0" toLane="0" dir="r" state="M"/>
    <connection from=":829260313_1" to="-68424027#0" fromLane="0" toLane="0" dir="l" state="M"/>
    <connection from=":829260313_2" to="69122430" fromLane="0" toLane="0" dir="t" state="M"/>
    <connection from=":829260313_3" to="69122430" fromLane="0" toLane="0" dir="r" state="M"/>
    <connection from=":829260313_4" to="68424027#1" fromLane="0" toLane="0" dir="s" state="M"/>
    <connection from=":829260313_5" to="-68424027#0" fromLane="0" toLane="0" via=":829260313_9_0" dir="t" state="m"/>
    <connection from=":829260313_9" to="-68424027#0" fromLane="0" toLane="0" dir="t" state="M"/>
    <connection from=":829260313_6" to="-68424027#0" fromLane="0" toLane="0" dir="s" state="M"/>
    <connection from=":829260313_7" to="69122430" fromLane="0" toLane="0" via=":829260313_10_0" dir="l" state="m"/>
    <connection from=":829260313_10" to="69122430" fromLane="0" toLane="0" dir="l" state="M"/>
    <connection from=":829260313_8" to="68424027#1" fromLane="0" toLane="0" via=":829260313_11_0" dir="t" state="m"/>
    <connection from=":829260313_11" to="68424027#1" fromLane="0" toLane="0" dir="t" state="M"/>
    <connection from=":829260314_0" to="68424027#2" fromLane="0" toLane="0" dir="r" state="M"/>
    <connection from=":829260314_1" to="-68424027#1" fromLane="0" toLane="0" dir="l" state="M"/>
    <connection from=":829260314_2" to="70849826" fromLane="0" toLane="0" dir="t" state="M"/>
    <connection from=":829260314_3" to="70849826" fromLane="0" toLane="0" dir="r" state="M"/>
    <connection from=":829260314_4" to="68424027#2" fromLane="0" toLane="0" dir="s" state="M"/>
    <connection from=":829260314_5" to="-68424027#1" fromLane="0" toLane="0" via=":829260314_9_0" dir="t" state="m"/>
    <connection from=":829260314_9" to="-68424027#1" fromLane="0" toLane="0" dir="t" state="M"/>
    <connection from=":829260314_6" to="-68424027#1" fromLane="0" toLane="0" dir="s" state="M"/>
    <connection from=":829260314_7" to="70849826" fromLane="0" toLane="0" via=":829260314_10_0" dir="l" state="m"/>
    <connection from=":829260314_10" to="70849826" fromLane="0" toLane="0" dir="l" state="M"/>
    <connection from=":829260314_8" to="68424027#2" fromLane="0" toLane="0" via=":829260314_11_0" dir="t" state="m"/>
    <connection from=":829260314_11" to="68424027#2" fromLane="0" toLane="0" dir="t" state="M"/>
    <connection from=":829260331_0" to="68424027#0" fromLane="0" toLane="0" dir="t" state="M"/>
    <connection from=":847163225_0" to="-68424027#3" fromLane="0" toLane="0" dir="t" state="M"/>

</net>
