<?xml version="1.0" encoding="UTF-8"?>

<!-- generated on 2023-11-06 16:40:58 by Eclipse SUMO netedit Version v1_18_0+2440-94ba841a93d
-->

<routes xmlns:xsi="http://www.w3.org/2001/XMLSchema-instance" xsi:noNamespaceSchemaLocation="http://sumo.dlr.de/xsd/routes_file.xsd">
    <!-- Routes -->
    <route id="route_0" edges="Edge0 Edge1 Edge2" color="yellow">
        <stop busStop="busStopA" duration="70.00" until="12.00" extension="10.00" triggered="person" parking="1" expected="perA perB" permitted="A B" tripId="tripA" line="true" actType="walking"/>
    </route>
    <route id="route_1" edges="EdgeCenter0 EdgeCenter1" color="yellow">
        <stop busStop="busStopB" duration="60.00" until="20.00" extension="20.00" triggered="container" parking="1" expected="conA conB" permitted="C D" tripId="tripB" line="true" onDemand="1" actType="singing"/>
    </route>
</routes>
