<?xml version="1.0" encoding="UTF-8"?>

<!-- generated on 2022-02-23 10:32:42 by Eclipse SUMO netedit Version v1_12_0+0795-6d648fd3cc7
-->

<additional xmlns:xsi="http://www.w3.org/2001/XMLSchema-instance" xsi:noNamespaceSchemaLocation="http://sumo.dlr.de/xsd/additional_file.xsd">
    <poi id="poi_0" color="red" layer="202.00" x="35.00" y="5.00"/>
    <poi id="poi_1" color="white" layer="202.00" x="35.00" y="-5.00" imgFile="berlin_icon.ico" width="10.00" height="10.00"/>
</additional>
