<?xml version="1.0" encoding="UTF-8"?>

<!-- generated on 24.02.2021 09:28:03 by Eclipse SUMO netedit Version v1_8_0+1355-d0d47400df
<configuration xmlns:xsi="http://www.w3.org/2001/XMLSchema-instance" xsi:noNamespaceSchemaLocation="http://sumo.dlr.de/xsd/netconvertConfiguration.xsd">

    <input>
        <sumo-net-file value="C:\Users\alva_pa\.texttest\tmp\netedit.gui.24Feb092702.7188\netedit.gui\shapeElements\poi\move\input_net.net.xml"/>
    </input>

    <output>
        <output-file value="C:\Users\alva_pa\.texttest\tmp\netedit.gui.24Feb092702.7188\netedit.gui\shapeElements\poi\move\net.net.xml"/>
    </output>

    <processing>
        <geometry.min-radius.fix.railways value="false"/>
        <geometry.max-grade.fix value="false"/>
        <offset.disable-normalization value="true"/>
        <lefthand value="false"/>
    </processing>

    <junctions>
        <no-turnarounds value="true"/>
        <junctions.corner-detail value="5"/>
        <junctions.limit-turn-speed value="5.5"/>
        <rectangular-lane-cut value="false"/>
    </junctions>

    <pedestrian>
        <walkingareas value="false"/>
    </pedestrian>

    <netedit>
        <additional-files value="C:\Users\alva_pa\.texttest\tmp\netedit.gui.24Feb092702.7188\netedit.gui\shapeElements\poi\move\additionals.xml"/>
        <additionals-output value="C:\Users\alva_pa\.texttest\tmp\netedit.gui.24Feb092702.7188\netedit.gui\shapeElements\poi\move\additionals.xml"/>
        <route-files value="C:\Users\alva_pa\.texttest\tmp\netedit.gui.24Feb092702.7188\netedit.gui\shapeElements\poi\move\routes.xml"/>
        <demandelements-output value="C:\Users\alva_pa\.texttest\tmp\netedit.gui.24Feb092702.7188\netedit.gui\shapeElements\poi\move\routes.xml"/>
        <data-files value="C:\Users\alva_pa\.texttest\tmp\netedit.gui.24Feb092702.7188\netedit.gui\shapeElements\poi\move\datas.xml"/>
        <dataelements-output value="C:\Users\alva_pa\.texttest\tmp\netedit.gui.24Feb092702.7188\netedit.gui\shapeElements\poi\move\datas.xml"/>
    </netedit>

    <visualisation>
        <gui-settings-file value="C:\Users\alva_pa\.texttest\tmp\netedit.gui.24Feb092702.7188\netedit.gui\shapeElements\poi\move\gui-settings.xml"/>
        <window-size value="936,697"/>
        <window-pos value="50,50"/>
        <gui-testing value="true"/>
        <gui-testing-debug value="true"/>
        <gui-testing.setting-output value="C:\Users\alva_pa\.texttest\tmp\netedit.gui.24Feb092702.7188\netedit.gui\shapeElements\poi\move\guisettingsoutput.xml"/>
    </visualisation>

    <report>
        <no-warnings value="true"/>
        <aggregate-warnings value="5"/>
        <error-log value="C:\Users\alva_pa\.texttest\tmp\netedit.gui.24Feb092702.7188\netedit.gui\shapeElements\poi\move\log.txt"/>
    </report>

</configuration>
-->

<additional xmlns:xsi="http://www.w3.org/2001/XMLSchema-instance" xsi:noNamespaceSchemaLocation="http://sumo.dlr.de/xsd/additional_file.xsd">
    <poi id="poi_0" color="red" layer="202.00" x="28.00" y="8.00"/>
    <poi id="poi_1" color="white" layer="202.00" x="26.00" y="-2.00" imgFile="berlin_icon.ico" width="10.00" height="10.00"/>
</additional>
