<additional xmlns:xsi="http://www.w3.org/2001/XMLSchema-instance" xsi:noNamespaceSchemaLocation="http://sumo.dlr.de/xsd/additional_file.xsd">
    
    <!-- non valid frequency (missing) -->
    <e1Detector id="E1_01" lane="gneE0_0" pos="15" file="fileA.txt" vTypes="bus taxi private" friendlyPos="0"/>
    
    <!-- non valid frequency (dummy) -->
    <e1Detector id="E1_02" lane="gneE0_0" pos="18" freq="dummyFrequency" file="fileA.txt" vTypes="bus taxi private" friendlyPos="0"/>

    <!-- non valid frequency (negative) -->
    <e1Detector id="E1_03" lane="gneE0_0" pos="21" freq="-100.00" file="fileA.txt" vTypes="bus taxi private" friendlyPos="0"/>

    <!-- valid frequency -->
    <e1Detector id="E1_04" lane="gneE0_0" pos="24" freq="120.00" file="fileA.txt" vTypes="bus taxi private" friendlyPos="0"/>

</additional>
