<?xml version="1.0" encoding="UTF-8"?>

<!-- generated on 2022-10-26 13:53:13 by Eclipse SUMO netedit Version v1_14_1+1971-16be6bdbb69
-->

<routes xmlns:xsi="http://www.w3.org/2001/XMLSchema-instance" xsi:noNamespaceSchemaLocation="http://sumo.dlr.de/xsd/routes_file.xsd">
    <!-- Vehicles, persons and containers (sorted by depart) -->
    <personFlow id="pf_0" begin="0.00" end="3600.00" number="1800">
        <walk from="gneE2" busStop="busStop"/>
    </personFlow>
    <personFlow id="pf_1" begin="0.00" end="20.50" number="1800">
        <walk from="gneE2" busStop="busStop"/>
    </personFlow>
    <personFlow id="pf_2" begin="0.00" end="20.50" number="51">
        <walk from="gneE2" busStop="busStop"/>
    </personFlow>
</routes>
