<?xml version="1.0" encoding="UTF-8"?>

<!-- generated on 2023-07-05 18:01:30 by Eclipse SUMO netconvert Version v1_18_0+0125-f889bec6f9d
This data file and the accompanying materials
are made available under the terms of the Eclipse Public License v2.0
which accompanies this distribution, and is available at
http://www.eclipse.org/legal/epl-v20.html
This file may also be made available under the following Secondary
Licenses when the conditions for such availability set forth in the Eclipse
Public License 2.0 are satisfied: GNU General Public License, version 2
or later which is available at
https://www.gnu.org/licenses/old-licenses/gpl-2.0-standalone.html
SPDX-License-Identifier: EPL-2.0 OR GPL-2.0-or-later
<configuration xmlns:xsi="http://www.w3.org/2001/XMLSchema-instance" xsi:noNamespaceSchemaLocation="http://sumo.dlr.de/xsd/netconvertConfiguration.xsd">

    <input>
        <type-files value="/home/kobo/dlr/sumo/data/typemap/osmNetconvert.typ.xml,/home/kobo/dlr/sumo/data/typemap/osmNetconvertUrbanDe.typ.xml,/home/kobo/dlr/sumo/data/typemap/osmNetconvertPedestrians.typ.xml"/>
        <osm-files value="osm.xml"/>
    </input>

    <output>
        <write-license value="true"/>
    </output>

    <projection>
        <proj.utm value="true"/>
    </projection>

    <processing>
        <geometry.remove value="true"/>
    </processing>

    <tls_building>
        <tls.discard-simple value="true"/>
        <tls.join value="true"/>
        <tls.guess-signals value="true"/>
        <tls.default-type value="actuated"/>
    </tls_building>

    <junctions>
        <junctions.join value="true"/>
    </junctions>

    <pedestrian>
        <crossings.guess value="true"/>
    </pedestrian>

    <formats>
        <osm.sidewalks value="true"/>
    </formats>

    <report>
        <xml-validation value="never"/>
    </report>

</configuration>
-->

<net version="1.16" junctionCornerDetail="5" walkingareas="true" limitTurnSpeed="5.50" xmlns:xsi="http://www.w3.org/2001/XMLSchema-instance" xsi:noNamespaceSchemaLocation="http://sumo.dlr.de/xsd/net_file.xsd">

    <location netOffset="-604185.54,-5793657.25" convBoundary="0.00,0.00,1017.41,1568.08" origBoundary="10.527770,52.283258,10.542687,52.297305" projParameter="+proj=utm +zone=32 +ellps=WGS84 +datum=WGS84 +units=m +no_defs"/>

    <type id="highway.cycleway" priority="1" numLanes="1" speed="5.56" allow="bicycle" oneway="0" width="2.00"/>
    <type id="highway.footway" priority="1" numLanes="1" speed="2.78" allow="pedestrian" oneway="1" width="2.00"/>
    <type id="highway.path" priority="1" numLanes="1" speed="5.56" allow="pedestrian bicycle" oneway="0" width="2.00"/>
    <type id="highway.residential" priority="3" numLanes="1" speed="13.89" disallow="pedestrian tram rail_urban rail rail_electric rail_fast ship" oneway="0" sidewalkWidth="2.00"/>
    <type id="highway.secondary" priority="11" numLanes="1" speed="13.89" disallow="pedestrian tram rail_urban rail rail_electric rail_fast ship" oneway="0" sidewalkWidth="3.00"/>
    <type id="highway.service" priority="1" numLanes="1" speed="5.56" allow="pedestrian delivery bicycle" oneway="0"/>
    <type id="highway.tertiary" priority="10" numLanes="1" speed="13.89" disallow="pedestrian tram rail_urban rail rail_electric rail_fast ship" oneway="0" sidewalkWidth="3.00"/>

    <edge id=":1345567407_0" function="internal">
        <lane id=":1345567407_0_0" index="0" disallow="pedestrian tram rail_urban rail rail_electric rail_fast ship" speed="8.33" length="4.97" shape="822.60,1427.82 821.65,1422.94"/>
    </edge>
    <edge id=":1345567407_1" function="internal">
        <lane id=":1345567407_1_0" index="0" disallow="pedestrian tram rail_urban rail rail_electric rail_fast ship" speed="8.33" length="4.99" shape="824.79,1422.32 825.74,1427.22"/>
    </edge>
    <edge id=":2303941367_0" function="internal">
        <lane id=":2303941367_0_0" index="0" disallow="pedestrian tram rail_urban rail rail_electric rail_fast ship" speed="13.89" length="8.07" shape="866.85,1350.82 865.69,1342.83"/>
    </edge>
    <edge id=":2303941367_1" function="internal">
        <lane id=":2303941367_1_0" index="0" disallow="pedestrian tram rail_urban rail rail_electric rail_fast ship" speed="13.89" length="8.47" shape="872.04,1342.00 872.85,1344.33 874.14,1345.66 875.46,1347.00 876.33,1349.32"/>
        <lane id=":2303941367_1_1" index="1" disallow="pedestrian tram rail_urban rail rail_electric rail_fast ship" speed="13.89" length="8.47" shape="868.86,1342.41 869.68,1344.77 870.98,1346.12 872.29,1347.47 873.17,1349.82"/>
        <lane id=":2303941367_1_2" index="2" disallow="pedestrian tram rail_urban rail rail_electric rail_fast ship" speed="13.89" length="8.47" shape="868.86,1342.41 870.01,1350.32"/>
    </edge>
    <edge id=":2663214240_0" function="internal">
        <lane id=":2663214240_0_0" index="0" allow="pedestrian bicycle" speed="4.10" length="4.25" width="2.00" shape="932.03,1493.45 930.94,1494.02 930.42,1494.75 930.49,1495.64 931.14,1496.69"/>
    </edge>
    <edge id=":2663214240_1" function="internal">
        <lane id=":2663214240_1_0" index="0" allow="pedestrian bicycle" speed="2.89" length="2.92" width="2.00" shape="932.03,1493.45 931.15,1493.23 930.75,1492.85 930.82,1492.29 931.36,1491.57"/>
    </edge>
    <edge id=":2663214240_2" function="internal">
        <lane id=":2663214240_2_0" index="0" allow="pedestrian bicycle" speed="4.33" length="3.69" width="2.00" shape="927.89,1491.89 928.46,1492.28 929.41,1492.20 930.47,1491.89 931.36,1491.57"/>
    </edge>
    <edge id=":2663214240_3" function="internal">
        <lane id=":2663214240_3_0" index="0" allow="pedestrian bicycle" speed="5.56" length="5.84" width="2.00" shape="927.89,1491.89 928.59,1493.46 929.22,1494.46 930.00,1495.38 931.14,1496.69"/>
    </edge>
    <edge id=":2663214240_w0" function="walkingarea">
        <lane id=":2663214240_w0_0" index="0" allow="pedestrian" speed="2.78" length="4.03" width="2.00" shape="930.37,1497.33 931.91,1496.05 931.53,1495.36 931.54,1495.06 931.68,1494.80 931.96,1494.58 932.36,1494.40 931.03,1490.63 928.23,1490.03 926.37,1490.77"/>
    </edge>
    <edge id=":27557116_0" function="internal">
        <lane id=":27557116_0_0" index="0" disallow="pedestrian tram rail_urban rail rail_electric rail_fast ship" speed="13.89" length="8.89" shape="865.29,1360.95 865.35,1358.41 866.17,1356.70 867.00,1354.98 867.11,1352.44"/>
    </edge>
    <edge id=":27557116_1" function="internal">
        <lane id=":27557116_1_0" index="0" disallow="pedestrian tram rail_urban rail rail_electric rail_fast ship" speed="13.89" length="7.94" shape="876.59,1350.94 877.89,1358.71"/>
        <lane id=":27557116_1_1" index="1" disallow="pedestrian tram rail_urban rail rail_electric rail_fast ship" speed="13.89" length="7.94" shape="873.43,1351.44 874.74,1359.27"/>
        <lane id=":27557116_1_2" index="2" disallow="pedestrian tram rail_urban rail rail_electric rail_fast ship" speed="13.89" length="7.94" shape="870.27,1351.94 871.59,1359.83"/>
    </edge>
    <edge id=":27557117_0" function="internal">
        <lane id=":27557117_0_0" index="0" disallow="pedestrian tram rail_urban rail rail_electric rail_fast ship" speed="3.65" length="4.67" shape="850.94,1217.96 851.59,1216.67 852.34,1216.18 853.18,1216.49 854.12,1217.59"/>
    </edge>
    <edge id=":30162008_0" function="internal">
        <lane id=":30162008_0_0" index="0" disallow="pedestrian tram rail_urban rail rail_electric rail_fast ship" speed="3.65" length="4.67" shape="981.34,1384.15 982.69,1384.64 983.27,1385.32 983.08,1386.19 982.11,1387.25"/>
    </edge>
    <edge id=":30323970_0" function="internal">
        <lane id=":30323970_0_0" index="0" disallow="pedestrian tram rail_urban rail rail_electric rail_fast ship" speed="3.65" length="4.67" shape="483.06,1458.65 482.06,1457.62 481.83,1456.75 482.39,1456.05 483.73,1455.52"/>
    </edge>
    <edge id=":30323970_w0" function="walkingarea">
        <lane id=":30323970_w0_0" index="0" allow="pedestrian" speed="2.78" length="9.40" width="3.00" shape="484.06,1453.95 484.68,1451.02 482.11,1463.15 482.73,1460.21"/>
    </edge>
    <edge id=":31130852_0" function="internal">
        <lane id=":31130852_0_0" index="0" allow="pedestrian bicycle" speed="2.89" length="2.92" width="2.00" shape="1013.82,1425.47 1014.12,1424.62 1014.54,1424.25 1015.09,1424.37 1015.76,1424.97"/>
    </edge>
    <edge id=":31130855_0" function="internal">
        <lane id=":31130855_0_0" index="0" disallow="pedestrian tram rail_urban rail rail_electric rail_fast ship" speed="13.89" length="8.03" shape="915.85,1501.77 917.18,1503.69 918.43,1504.77 919.73,1505.82 921.22,1507.66"/>
    </edge>
    <edge id=":31130902_0" function="internal">
        <lane id=":31130902_0_0" index="0" disallow="pedestrian tram rail_urban rail rail_electric rail_fast ship" speed="8.33" length="5.28" shape="817.67,1402.93 817.62,1401.41 817.97,1400.35 818.32,1399.29 818.27,1397.77"/>
    </edge>
    <edge id=":31130902_1" function="internal">
        <lane id=":31130902_1_0" index="0" disallow="pedestrian tram rail_urban rail rail_electric rail_fast ship" speed="3.65" length="4.67" shape="817.67,1402.93 818.22,1401.60 818.93,1401.05 819.79,1401.29 820.81,1402.31"/>
    </edge>
    <edge id=":3445436400_0" function="internal">
        <lane id=":3445436400_0_0" index="0" allow="pedestrian bicycle" speed="4.71" length="4.69" width="2.00" shape="875.97,1296.83 874.79,1297.08 874.03,1297.72 873.69,1298.75 873.77,1300.15"/>
    </edge>
    <edge id=":3445436400_1" function="internal">
        <lane id=":3445436400_1_0" index="0" allow="pedestrian delivery bicycle" speed="5.56" length="5.92" shape="875.97,1296.83 870.05,1296.94"/>
    </edge>
    <edge id=":3445436400_2" function="internal">
        <lane id=":3445436400_2_0" index="0" allow="pedestrian delivery bicycle" speed="3.65" length="4.68" shape="875.97,1296.83 874.77,1296.04 874.37,1295.24 874.76,1294.43 875.96,1293.63"/>
    </edge>
    <edge id=":3445436400_3" function="internal">
        <lane id=":3445436400_3_0" index="0" allow="pedestrian bicycle" speed="5.15" length="5.36" width="2.00" shape="872.34,1290.52 872.70,1291.94 873.43,1292.92 874.51,1293.49 875.96,1293.63"/>
    </edge>
    <edge id=":3445436400_4" function="internal">
        <lane id=":3445436400_4_0" index="0" allow="pedestrian bicycle" speed="5.56" length="9.74" width="2.00" shape="872.34,1290.52 873.77,1300.15"/>
    </edge>
    <edge id=":3445436400_5" function="internal">
        <lane id=":3445436400_5_0" index="0" allow="pedestrian bicycle" speed="5.56" length="7.62" width="2.00" shape="872.34,1290.52 872.46,1293.32 872.13,1295.32 871.32,1296.53 870.05,1296.94"/>
    </edge>
    <edge id=":3445436400_6" function="internal">
        <lane id=":3445436400_6_0" index="0" allow="pedestrian delivery bicycle" speed="5.56" length="5.93" shape="870.02,1293.74 875.96,1293.63"/>
    </edge>
    <edge id=":3445436400_7" function="internal">
        <lane id=":3445436400_7_0" index="0" allow="pedestrian bicycle" speed="5.56" length="7.91" width="2.00" shape="870.02,1293.74 871.22,1294.13 872.24,1295.33 873.09,1297.34 873.77,1300.15"/>
    </edge>
    <edge id=":3445436400_8" function="internal">
        <lane id=":3445436400_8_0" index="0" allow="pedestrian delivery bicycle" speed="3.65" length="4.67" shape="870.02,1293.74 871.23,1294.53 871.64,1295.33 871.24,1296.13 870.05,1296.94"/>
    </edge>
    <edge id=":3445436400_w0" function="walkingarea">
        <lane id=":3445436400_w0_0" index="0" allow="pedestrian" speed="2.78" length="5.83" width="3.20" shape="872.79,1300.34 874.76,1299.97 874.77,1299.15 874.93,1298.85 875.18,1298.63 875.53,1298.49 875.98,1298.43 875.95,1292.03 874.58,1291.89 874.08,1291.68 873.71,1291.36 873.46,1290.93 873.33,1290.41 871.34,1290.64 871.27,1291.47 871.09,1291.76 870.83,1291.97 870.46,1292.09 870.01,1292.14 870.07,1298.54 871.43,1298.73 871.94,1298.98 872.34,1299.33 872.62,1299.78"/>
    </edge>
    <edge id=":3445436414_0" function="internal">
        <lane id=":3445436414_0_0" index="0" allow="pedestrian bicycle" speed="5.56" length="6.99" width="2.00" shape="905.12,1448.21 908.05,1454.56"/>
    </edge>
    <edge id=":3445436414_1" function="internal">
        <lane id=":3445436414_1_0" index="0" allow="pedestrian bicycle" speed="5.09" length="5.88" width="2.00" shape="905.12,1448.21 905.77,1450.10 905.86,1451.59 905.39,1452.65 904.36,1453.31"/>
    </edge>
    <edge id=":3445436414_2" function="internal">
        <lane id=":3445436414_2_0" index="0" allow="pedestrian bicycle" speed="5.51" length="5.83" width="2.00" shape="903.72,1451.41 904.86,1451.31 905.96,1451.80 907.03,1452.89 908.05,1454.56"/>
    </edge>
    <edge id=":3445436414_3" function="internal">
        <lane id=":3445436414_3_0" index="0" allow="pedestrian bicycle" speed="2.89" length="2.92" width="2.00" shape="903.72,1451.41 904.59,1451.65 904.98,1452.04 904.91,1452.59 904.36,1453.31"/>
    </edge>
    <edge id=":3445436414_w0" function="walkingarea">
        <lane id=":3445436414_w0_0" index="0" allow="pedestrian" speed="2.78" length="4.48" width="2.00" shape="907.15,1454.99 908.96,1454.13 906.04,1447.80 904.21,1448.61 904.39,1449.43 904.31,1449.76 904.12,1450.05 903.81,1450.28 903.39,1450.47 904.68,1454.25 905.75,1454.07 906.19,1454.13 906.57,1454.31 906.89,1454.59"/>
    </edge>
    <edge id=":4002570893_0" function="internal">
        <lane id=":4002570893_0_0" index="0" allow="pedestrian bicycle" speed="5.56" length="3.41" width="2.00" shape="926.53,1488.54 927.82,1491.70"/>
    </edge>
    <edge id=":4002570893_w0" function="walkingarea">
        <lane id=":4002570893_w0_0" index="0" allow="pedestrian" speed="2.78" length="3.22" width="2.00" shape="927.49,1493.56 929.34,1492.82 927.45,1488.16 925.61,1488.92 925.77,1489.76 925.68,1490.12 925.48,1490.43 925.18,1490.70 924.76,1490.92 925.55,1492.76 926.38,1492.58 926.72,1492.66 927.02,1492.85 927.28,1493.15"/>
    </edge>
    <edge id=":4002570894_0" function="internal">
        <lane id=":4002570894_0_0" index="0" allow="pedestrian bicycle" speed="5.56" length="5.00" width="2.00" shape="913.80,1465.78 916.07,1470.23"/>
    </edge>
    <edge id=":4002570894_w0" function="walkingarea">
        <lane id=":4002570894_w0_0" index="0" allow="pedestrian" speed="2.78" length="4.03" width="2.00" shape="915.18,1470.69 916.96,1469.78 914.69,1465.33 912.91,1466.24 913.14,1467.06 913.08,1467.41 912.92,1467.72 912.64,1468.00 912.24,1468.24 913.13,1470.03 913.97,1469.81 914.33,1469.86 914.65,1470.02 914.94,1470.30"/>
    </edge>
    <edge id=":4002570895_0" function="internal">
        <lane id=":4002570895_0_0" index="0" allow="bicycle" speed="5.56" length="5.25" width="2.00" shape="859.44,1360.23 858.82,1355.02"/>
    </edge>
    <edge id=":4002570895_c0" function="crossing" crossingEdges="346603023#3">
        <lane id=":4002570895_c0_0" index="0" allow="pedestrian" speed="2.78" length="2.00" width="4.00" shape="858.06,1357.12 860.05,1356.89"/>
    </edge>
    <edge id=":4002570895_w0" function="walkingarea">
        <lane id=":4002570895_w0_0" index="0" allow="pedestrian" speed="2.78" length="1.86" width="4.00" shape="861.75,1358.62 861.76,1356.62 859.82,1354.90 860.28,1358.87"/>
    </edge>
    <edge id=":4002570895_w1" function="walkingarea">
        <lane id=":4002570895_w1_0" index="0" allow="pedestrian" speed="2.78" length="0.63" width="4.00" shape="858.29,1359.10 857.83,1355.13 858.43,1356.62 858.45,1358.62"/>
    </edge>
    <edge id=":4002570896_0" function="internal">
        <lane id=":4002570896_0_0" index="0" allow="bicycle" speed="5.56" length="5.29" width="2.00" shape="857.39,1340.66 857.23,1335.38"/>
    </edge>
    <edge id=":4002570896_c0" function="crossing" crossingEdges="346603023#4">
        <lane id=":4002570896_c0_0" index="0" allow="pedestrian" speed="2.78" length="2.00" width="4.00" shape="856.32,1337.42 858.31,1337.33"/>
    </edge>
    <edge id=":4002570896_w0" function="walkingarea">
        <lane id=":4002570896_w0_0" index="0" allow="pedestrian" speed="2.78" length="1.64" width="4.00" shape="860.11,1338.55 859.77,1336.58 858.23,1335.34 858.40,1339.33"/>
    </edge>
    <edge id=":4002570896_w1" function="walkingarea">
        <lane id=":4002570896_w1_0" index="0" allow="pedestrian" speed="2.78" length="0.78" width="4.00" shape="856.40,1339.42 856.23,1335.42 856.49,1337.14 856.81,1339.11"/>
    </edge>
    <edge id=":5458979048_w0" function="walkingarea">
        <lane id=":5458979048_w0_0" index="0" allow="pedestrian" speed="2.78" length="3.01" width="2.00" shape="875.45,1457.69 876.66,1456.10 875.63,1455.20 875.34,1454.81 875.14,1454.35 874.96,1453.78 874.75,1453.03 872.82,1453.57 872.89,1454.42 872.76,1454.76 872.54,1455.05 872.22,1455.28 871.79,1455.46 872.39,1457.37 873.56,1457.14 874.09,1457.16 874.58,1457.25 875.03,1457.43"/>
    </edge>
    <edge id=":5458979062_w0" function="walkingarea">
        <lane id=":5458979062_w0_0" index="0" allow="pedestrian" speed="2.78" length="4.04" width="2.00" shape="863.22,1401.91 865.18,1401.53 866.65,1397.79 865.48,1396.17 863.93,1395.59 861.98,1396.04 862.08,1397.39 861.95,1398.00 861.71,1398.56 861.35,1399.08 860.88,1399.55 861.78,1401.40 862.45,1401.03 862.72,1401.04 862.93,1401.20 863.10,1401.48"/>
    </edge>
    <edge id=":5458979070_w0" function="walkingarea">
        <lane id=":5458979070_w0_0" index="0" allow="pedestrian" speed="2.78" length="3.38" width="2.00" shape="856.81,1360.27 858.80,1360.11 860.18,1358.60 860.16,1356.60 858.30,1355.13 856.31,1355.37"/>
    </edge>
    <edge id=":5458979072_w0" function="walkingarea">
        <lane id=":5458979072_w0_0" index="0" allow="pedestrian" speed="2.78" length="3.35" width="2.00" shape="855.03,1340.72 857.03,1340.59 858.53,1338.84 858.22,1336.86 856.55,1335.61 854.56,1335.86"/>
    </edge>
    <edge id=":558992105_0" function="internal">
        <lane id=":558992105_0_0" index="0" allow="pedestrian delivery bicycle" speed="3.65" length="4.67" shape="824.18,1544.04 823.64,1545.38 822.94,1545.93 822.08,1545.71 821.05,1544.69"/>
    </edge>
    <edge id=":653266284_0" function="internal">
        <lane id=":653266284_0_0" index="0" allow="pedestrian delivery bicycle" speed="5.56" length="4.12" shape="930.28,1341.60 930.23,1340.39 930.03,1339.56 929.59,1338.83 928.78,1337.93"/>
    </edge>
    <edge id=":653266284_1" function="internal">
        <lane id=":653266284_1_0" index="0" allow="pedestrian delivery bicycle" speed="3.65" length="4.67" shape="930.28,1341.60 931.06,1340.38 931.86,1339.97 932.66,1340.36 933.48,1341.55"/>
    </edge>
    <edge id=":653266284_2" function="internal">
        <lane id=":653266284_2_0" index="0" allow="pedestrian delivery bicycle" speed="5.56" length="6.55" shape="931.10,1335.72 932.38,1337.15 933.09,1338.31 933.39,1339.63 933.48,1341.55"/>
    </edge>
    <edge id=":653266284_3" function="internal">
        <lane id=":653266284_3_0" index="0" allow="pedestrian delivery bicycle" speed="3.65" length="4.67" shape="931.10,1335.72 931.35,1337.14 931.04,1337.98 930.19,1338.25 928.78,1337.93"/>
    </edge>
    <edge id=":653266284_w0" function="walkingarea">
        <lane id=":653266284_w0_0" index="0" allow="pedestrian" speed="2.78" length="5.37" width="3.20" shape="928.68,1341.62 935.08,1341.53 935.20,1339.29 935.38,1338.46 935.63,1337.84 935.97,1337.41 936.38,1337.18 935.17,1335.45 934.10,1335.57 933.61,1335.48 933.13,1335.29 932.68,1335.00 932.26,1334.62 927.62,1339.03 928.32,1339.84 928.51,1340.18 928.61,1340.55 928.66,1341.01"/>
    </edge>
    <edge id=":653266355_0" function="internal">
        <lane id=":653266355_0_0" index="0" disallow="pedestrian tram rail_urban rail rail_electric rail_fast ship" speed="13.89" length="9.99" shape="860.09,1301.14 858.83,1291.24"/>
    </edge>
    <edge id=":653266355_1" function="internal">
        <lane id=":653266355_1_0" index="0" allow="delivery bicycle" speed="7.55" length="3.21" shape="860.09,1301.14 860.28,1297.94"/>
    </edge>
    <edge id=":653266355_7" function="internal">
        <lane id=":653266355_7_0" index="0" allow="delivery bicycle" speed="7.55" length="10.53" shape="860.28,1297.94 861.88,1295.64 864.87,1294.24 869.27,1293.75"/>
    </edge>
    <edge id=":653266355_2" function="internal">
        <lane id=":653266355_2_0" index="0" allow="delivery bicycle" speed="4.91" length="5.16" shape="869.29,1296.95 867.87,1297.16 866.92,1297.79 866.44,1298.82 866.43,1300.26"/>
    </edge>
    <edge id=":653266355_3" function="internal">
        <lane id=":653266355_3_0" index="0" allow="delivery bicycle" speed="8.01" length="13.11" shape="869.29,1296.95 864.96,1296.62 861.77,1295.56 859.73,1293.77 858.83,1291.24"/>
    </edge>
    <edge id=":653266355_4" function="internal">
        <lane id=":653266355_4_0" index="0" allow="pedestrian delivery bicycle" speed="3.65" length="4.67" shape="869.29,1296.95 868.09,1296.16 867.68,1295.36 868.07,1294.56 869.27,1293.75"/>
    </edge>
    <edge id=":653266355_5" function="internal">
        <lane id=":653266355_5_0" index="0" allow="delivery bicycle" speed="6.54" length="8.41" shape="862.01,1290.88 862.59,1292.16 863.99,1293.06 866.22,1293.59 869.27,1293.75"/>
    </edge>
    <edge id=":653266355_6" function="internal">
        <lane id=":653266355_6_0" index="0" disallow="pedestrian tram rail_urban rail rail_electric rail_fast ship" speed="13.89" length="9.90" shape="862.01,1290.88 863.26,1300.70"/>
    </edge>
    <edge id=":653266355_w0" function="walkingarea">
        <lane id=":653266355_w0_0" index="0" allow="pedestrian" speed="2.78" length="3.20" width="3.20" shape="869.31,1298.55 869.28,1295.35 869.25,1292.15 864.08,1292.82 864.84,1294.27 865.76,1295.38 866.68,1296.49 867.48,1297.93"/>
    </edge>
    <edge id=":6900765896_0" function="internal">
        <lane id=":6900765896_0_0" index="0" disallow="pedestrian tram rail_urban rail rail_electric rail_fast ship" speed="8.33" length="9.46" shape="943.82,1396.76 934.64,1399.04"/>
    </edge>
    <edge id=":6900765896_1" function="internal">
        <lane id=":6900765896_1_0" index="0" allow="delivery bicycle" speed="6.76" length="3.40" shape="943.82,1396.76 940.80,1397.06 940.46,1396.95"/>
    </edge>
    <edge id=":6900765896_7" function="internal">
        <lane id=":6900765896_7_0" index="0" allow="delivery bicycle" speed="6.76" length="7.46" shape="940.46,1396.95 938.54,1396.29 937.03,1394.43 936.28,1391.49"/>
    </edge>
    <edge id=":6900765896_2" function="internal">
        <lane id=":6900765896_2_0" index="0" allow="delivery bicycle" speed="4.91" length="5.17" shape="939.46,1391.14 939.82,1392.54 940.53,1393.43 941.61,1393.80 943.05,1393.65"/>
    </edge>
    <edge id=":6900765896_3" function="internal">
        <lane id=":6900765896_3_0" index="0" allow="delivery bicycle" speed="6.95" length="10.25" shape="939.46,1391.14 939.42,1394.08 938.61,1396.38 937.01,1398.03 934.64,1399.04"/>
    </edge>
    <edge id=":6900765896_4" function="internal">
        <lane id=":6900765896_4_0" index="0" allow="pedestrian delivery bicycle" speed="3.65" length="4.67" shape="939.46,1391.14 938.79,1392.42 938.04,1392.91 937.20,1392.60 936.28,1391.49"/>
    </edge>
    <edge id=":6900765896_5" function="internal">
        <lane id=":6900765896_5_0" index="0" allow="delivery bicycle" speed="5.53" length="5.58" shape="933.87,1395.93 935.07,1395.39 935.88,1394.47 936.28,1393.17 936.28,1391.49"/>
    </edge>
    <edge id=":6900765896_6" function="internal">
        <lane id=":6900765896_6_0" index="0" disallow="pedestrian tram rail_urban rail rail_electric rail_fast ship" speed="8.33" length="9.46" shape="933.87,1395.93 943.05,1393.65"/>
    </edge>
    <edge id=":6900765896_w0" function="walkingarea">
        <lane id=":6900765896_w0_0" index="0" allow="pedestrian" speed="2.78" length="3.20" width="3.20" shape="941.05,1390.97 937.87,1391.32 934.68,1391.66"/>
    </edge>
    <edge id=":7619033657_0" function="internal">
        <lane id=":7619033657_0_0" index="0" allow="pedestrian delivery bicycle" speed="3.65" length="4.67" shape="787.70,1435.65 789.04,1436.17 789.61,1436.86 789.40,1437.73 788.40,1438.78"/>
    </edge>
    <edge id=":cluster_2663214238_273542034_273542611_3445436408_#4more_0" function="internal">
        <lane id=":cluster_2663214238_273542034_273542611_3445436408_#4more_0_0" index="0" allow="bicycle" speed="9.72" length="26.50" width="2.00" shape="874.53,1420.02 872.32,1412.72 869.39,1405.84 866.65,1399.87 865.05,1395.32"/>
    </edge>
    <edge id=":cluster_2663214238_273542034_273542611_3445436408_#4more_1" function="internal">
        <lane id=":cluster_2663214238_273542034_273542611_3445436408_#4more_1_0" index="0" disallow="pedestrian tram rail_urban rail rail_electric rail_fast ship" speed="13.89" length="25.94" shape="878.21,1419.05 870.95,1394.15"/>
    </edge>
    <edge id=":cluster_2663214238_273542034_273542611_3445436408_#4more_2" function="internal">
        <lane id=":cluster_2663214238_273542034_273542611_3445436408_#4more_2_0" index="0" disallow="pedestrian tram rail_urban rail rail_electric rail_fast ship" speed="10.59" length="2.84" shape="878.21,1419.05 878.48,1416.22"/>
    </edge>
    <edge id=":cluster_2663214238_273542034_273542611_3445436408_#4more_3" function="internal">
        <lane id=":cluster_2663214238_273542034_273542611_3445436408_#4more_3_0" index="0" allow="bicycle" speed="5.99" length="1.69" width="2.00" shape="878.21,1419.05 879.84,1418.60"/>
    </edge>
    <edge id=":cluster_2663214238_273542034_273542611_3445436408_#4more_4" function="internal">
        <lane id=":cluster_2663214238_273542034_273542611_3445436408_#4more_4_0" index="0" disallow="pedestrian tram rail_urban rail rail_electric rail_fast ship" speed="3.65" length="1.29" shape="878.21,1419.05 878.62,1417.82"/>
    </edge>
    <edge id=":cluster_2663214238_273542034_273542611_3445436408_#4more_27" function="internal">
        <lane id=":cluster_2663214238_273542034_273542611_3445436408_#4more_27_0" index="0" disallow="pedestrian tram rail_urban rail rail_electric rail_fast ship" speed="10.59" length="22.22" shape="878.48,1416.22 878.62,1414.73 881.78,1410.96 887.69,1407.72 896.35,1405.03"/>
    </edge>
    <edge id=":cluster_2663214238_273542034_273542611_3445436408_#4more_28" function="internal">
        <lane id=":cluster_2663214238_273542034_273542611_3445436408_#4more_28_0" index="0" allow="bicycle" speed="5.99" length="14.43" width="2.00" shape="879.84,1418.60 893.76,1414.78"/>
    </edge>
    <edge id=":cluster_2663214238_273542034_273542611_3445436408_#4more_29" function="internal">
        <lane id=":cluster_2663214238_273542034_273542611_3445436408_#4more_29_0" index="0" disallow="pedestrian tram rail_urban rail rail_electric rail_fast ship" speed="3.65" length="3.39" shape="878.62,1417.82 878.67,1417.68 879.33,1417.08 880.21,1417.25 881.30,1418.20"/>
    </edge>
    <edge id=":cluster_2663214238_273542034_273542611_3445436408_#4more_5" function="internal">
        <lane id=":cluster_2663214238_273542034_273542611_3445436408_#4more_5_0" index="0" allow="bicycle" speed="6.29" length="8.57" width="2.00" shape="897.14,1408.13 895.09,1408.99 893.85,1410.38 893.40,1412.31 893.76,1414.78"/>
    </edge>
    <edge id=":cluster_2663214238_273542034_273542611_3445436408_#4more_6" function="internal">
        <lane id=":cluster_2663214238_273542034_273542611_3445436408_#4more_6_0" index="0" disallow="pedestrian tram rail_urban rail rail_electric rail_fast ship" speed="8.07" length="9.29" shape="897.14,1408.13 892.46,1409.63 889.30,1411.53 888.90,1412.08"/>
    </edge>
    <edge id=":cluster_2663214238_273542034_273542611_3445436408_#4more_7" function="internal">
        <lane id=":cluster_2663214238_273542034_273542611_3445436408_#4more_7_0" index="0" allow="bicycle" speed="6.95" length="34.80" width="2.00" shape="897.00,1407.54 884.44,1409.33 874.93,1407.89 868.46,1403.22 866.67,1399.07"/>
    </edge>
    <edge id=":cluster_2663214238_273542034_273542611_3445436408_#4more_8" function="internal">
        <lane id=":cluster_2663214238_273542034_273542611_3445436408_#4more_8_0" index="0" disallow="pedestrian tram rail_urban rail rail_electric rail_fast ship" speed="11.11" length="27.69" shape="897.14,1408.13 888.22,1409.02 881.41,1406.89 876.70,1401.72 875.31,1397.34"/>
    </edge>
    <edge id=":cluster_2663214238_273542034_273542611_3445436408_#4more_9" function="internal">
        <lane id=":cluster_2663214238_273542034_273542611_3445436408_#4more_9_0" index="0" disallow="pedestrian tram rail_urban rail rail_electric rail_fast ship" speed="3.65" length="4.67" shape="897.14,1408.13 895.78,1407.65 895.20,1406.97 895.39,1406.10 896.35,1405.03"/>
    </edge>
    <edge id=":cluster_2663214238_273542034_273542611_3445436408_#4more_30" function="internal">
        <lane id=":cluster_2663214238_273542034_273542611_3445436408_#4more_30_0" index="0" disallow="pedestrian tram rail_urban rail rail_electric rail_fast ship" speed="8.07" length="4.83" shape="888.90,1412.08 887.64,1413.82 887.49,1416.50"/>
    </edge>
    <edge id=":cluster_2663214238_273542034_273542611_3445436408_#4more_31" function="internal">
        <lane id=":cluster_2663214238_273542034_273542611_3445436408_#4more_31_0" index="0" allow="bicycle" speed="6.95" length="4.09" width="2.00" shape="866.67,1399.07 865.05,1395.32"/>
    </edge>
    <edge id=":cluster_2663214238_273542034_273542611_3445436408_#4more_32" function="internal">
        <lane id=":cluster_2663214238_273542034_273542611_3445436408_#4more_32_0" index="0" disallow="pedestrian tram rail_urban rail rail_electric rail_fast ship" speed="11.11" length="4.00" shape="875.31,1397.34 874.09,1393.52"/>
    </edge>
    <edge id=":cluster_2663214238_273542034_273542611_3445436408_#4more_10" function="internal">
        <lane id=":cluster_2663214238_273542034_273542611_3445436408_#4more_10_0" index="0" allow="bicycle" speed="6.95" length="10.90" width="2.00" shape="887.79,1390.81 889.65,1397.48 891.27,1401.11"/>
    </edge>