<?xml version="1.0" encoding="UTF-8"?>

<!-- generated on 2024-06-04 13:05:24 by Eclipse SUMO netedit Version v1_20_0+0345-f9c5dc4db4d
<configuration xmlns:xsi="http://www.w3.org/2001/XMLSchema-instance" xsi:noNamespaceSchemaLocation="http://sumo.dlr.de/xsd/neteditConfiguration.xsd">

    <input>
        <additional-files value="C:\Users\alva_pa\.texttest\tmp\netedit.gui.04Jun130306.18636\netedit.gui\elements\additional\busstop\create\default\additionals.add.xml"/>
        <route-files value="C:\Users\alva_pa\.texttest\tmp\netedit.gui.04Jun130306.18636\netedit.gui\elements\additional\busstop\create\default\routes.rou.xml"/>
        <data-files value="C:\Users\alva_pa\.texttest\tmp\netedit.gui.04Jun130306.18636\netedit.gui\elements\additional\busstop\create\default\datas.dat.xml"/>
        <sumo-net-file value="D:\Netedit_dev\tests\netedit\elements\net.net.xml"/>
    </input>

    <processing>
        <geometry.min-radius.fix.railways value="false"/>
        <geometry.max-grade.fix value="false"/>
        <offset.disable-normalization value="true"/>
        <lefthand value="0"/>
    </processing>

    <junctions>
        <no-internal-links value="false"/>
        <no-turnarounds value="true"/>
        <junctions.corner-detail value="5"/>
        <junctions.limit-turn-speed value="5.50"/>
        <rectangular-lane-cut value="0"/>
    </junctions>

    <pedestrian>
        <walkingareas value="0"/>
    </pedestrian>

    <netedit>
        <ignore-supermode-question value="true"/>
    </netedit>

    <visualisation>
        <gui-settings-file value="C:\Users\alva_pa\.texttest\tmp\netedit.gui.04Jun130306.18636\netedit.gui\elements\additional\busstop\create\default\gui-settings.xml"/>
        <window-size value="1280, 720"/>
        <window-pos value="50,50"/>
        <gui-testing value="true"/>
        <gui-testing.setting-output value="C:\Users\alva_pa\.texttest\tmp\netedit.gui.04Jun130306.18636\netedit.gui\elements\additional\busstop\create\default\guisettingsoutput.xml"/>
    </visualisation>

    <report>
        <no-warnings value="true"/>
        <error-log value="C:\Users\alva_pa\.texttest\tmp\netedit.gui.04Jun130306.18636\netedit.gui\elements\additional\busstop\create\default\log.txt"/>
    </report>

</configuration>
-->

<edges version="1.20" xmlns:xsi="http://www.w3.org/2001/XMLSchema-instance" xsi:noNamespaceSchemaLocation="http://sumo.dlr.de/xsd/edges_file.xsd">
    <edge id="Edge0" from="Junction0" to="Junction1" priority="-1" numLanes="2" speed="13.89" length="65.00">
        <lane index="0" allow="pedestrian" width="2.00"/>
        <lane index="1" disallow="pedestrian" width="3.00"/>
    </edge>
    <edge id="Edge1" from="Junction1" to="Junction2" priority="-1" numLanes="2" speed="13.89" length="30.00">
        <lane index="0" allow="pedestrian" width="2.00"/>
        <lane index="1" disallow="pedestrian" width="3.00"/>
    </edge>
    <edge id="Edge2" from="Junction2" to="Junction3" priority="-1" numLanes="2" speed="13.89" length="57.50">
        <lane index="0" allow="pedestrian" width="2.00"/>
        <lane index="1" disallow="pedestrian" width="3.00"/>
    </edge>
    <edge id="Edge3" from="Junction3" to="Junction2" priority="-1" numLanes="2" speed="13.89" length="57.50">
        <lane index="0" allow="pedestrian" width="2.00"/>
        <lane index="1" disallow="pedestrian" width="3.00"/>
    </edge>
    <edge id="Edge4" from="Junction2" to="Junction1" priority="-1" numLanes="2" speed="13.89" length="30.00">
        <lane index="0" allow="pedestrian" width="2.00"/>
        <lane index="1" disallow="pedestrian" width="3.00"/>
    </edge>
    <edge id="Edge5" from="Junction1" to="Junction0" priority="-1" numLanes="2" speed="13.89" length="65.00">
        <lane index="0" allow="pedestrian" width="2.00"/>
        <lane index="1" disallow="pedestrian" width="3.00"/>
    </edge>
    <edge id="EdgeBike0" from="Junction3" to="Junction4" priority="-1" numLanes="3" speed="13.89" length="7.00">
        <lane index="0" allow="pedestrian" width="2.00"/>
        <lane index="1" allow="bicycle" width="1.00"/>
        <lane index="2" allow="bus" width="3.00"/>
    </edge>
    <edge id="EdgeBike1" from="Junction4" to="Junction3" priority="-1" numLanes="3" speed="13.89" length="7.00">
        <lane index="0" allow="pedestrian" width="2.00"/>
        <lane index="1" allow="bicycle" width="1.00"/>
        <lane index="2" allow="bus" width="3.00"/>
    </edge>
    <edge id="EdgeCenter0" from="Junction4" to="Junction5" priority="-1" numLanes="2" speed="13.89" length="47.50">
        <lane index="0" allow="pedestrian" width="2.00"/>
        <lane index="1" disallow="pedestrian" width="3.00"/>
    </edge>
    <edge id="EdgeCenter1" from="Junction5" to="Junction4" priority="-1" numLanes="2" speed="13.89" length="47.50">
        <lane index="0" allow="pedestrian" width="2.00"/>
        <lane index="1" disallow="pedestrian" width="3.00"/>
    </edge>
    <edge id="EdgeExternBot" from="JunctionExtern0" to="JunctionExtern1" priority="-1" numLanes="1" speed="13.89" shape="-60.00,0.00 -45.00,0.00 -45.00,-25.00 -40.00,-30.00 40.00,-30.00 45.00,-25.00 45.00,0.00 60.00,0.00" length="175.00" width="3.00" disallow="pedestrian"/>
    <edge id="EdgeExternTop" from="JunctionExtern1" to="JunctionExtern0" priority="-1" numLanes="1" speed="13.89" shape="60.00,0.00 45.00,0.00 45.00,25.00 40.00,30.00 -40.00,30.00 -45.00,25.00 -45.00,0.00 -60.00,0.00" length="175.00" width="3.00" disallow="pedestrian"/>
</edges>
