<?xml version="1.0" encoding="UTF-8"?>

<!-- generated on 2024-06-11 09:12:52 by Eclipse SUMO netedit Version v1_20_0+0353-d865fbd950c
<configuration xmlns:xsi="http://www.w3.org/2001/XMLSchema-instance" xsi:noNamespaceSchemaLocation="http://sumo.dlr.de/xsd/neteditConfiguration.xsd">

    <input>
        <additional-files value="D:\Netedit_dev\tests\netedit\elements\demand\additionals.add.xml"/>
        <route-files value="C:\Users\alva_pa\.texttest\tmp\netedit.gui.11Jun084156.16320\netedit.gui\elements\demand\trip\create\default\routes.rou.xml"/>
        <data-files value="C:\Users\alva_pa\.texttest\tmp\netedit.gui.11Jun084156.16320\netedit.gui\elements\demand\trip\create\default\datas.dat.xml"/>
        <sumo-net-file value="D:\Netedit_dev\tests\netedit\elements\net.net.xml"/>
    </input>

    <processing>
        <geometry.min-radius.fix.railways value="false"/>
        <geometry.max-grade.fix value="false"/>
        <offset.disable-normalization value="true"/>
        <lefthand value="0"/>
    </processing>

    <junctions>
        <no-internal-links value="false"/>
        <no-turnarounds value="true"/>
        <junctions.corner-detail value="5"/>
        <junctions.limit-turn-speed value="5.50"/>
        <rectangular-lane-cut value="0"/>
    </junctions>

    <pedestrian>
        <walkingareas value="0"/>
    </pedestrian>

    <netedit>
        <ignore-supermode-question value="true"/>
    </netedit>

    <visualisation>
        <gui-settings-file value="C:\Users\alva_pa\.texttest\tmp\netedit.gui.11Jun084156.16320\netedit.gui\elements\demand\trip\create\default\gui-settings.xml"/>
        <window-size value="1280, 720"/>
        <window-pos value="50,50"/>
        <gui-testing value="true"/>
        <gui-testing.setting-output value="C:\Users\alva_pa\.texttest\tmp\netedit.gui.11Jun084156.16320\netedit.gui\elements\demand\trip\create\default\guisettingsoutput.xml"/>
    </visualisation>

    <report>
        <no-warnings value="true"/>
        <error-log value="C:\Users\alva_pa\.texttest\tmp\netedit.gui.11Jun084156.16320\netedit.gui\elements\demand\trip\create\default\log.txt"/>
    </report>

</configuration>
-->

<nodes version="1.20" xmlns:xsi="http://www.w3.org/2001/XMLSchema-instance" xsi:noNamespaceSchemaLocation="http://sumo.dlr.de/xsd/nodes_file.xsd">
    <location netOffset="0.00,0.00" convBoundary="-60.00,-30.00,60.00,30.00" origBoundary="-10000000000.00,-10000000000.00,10000000000.00,10000000000.00" projParameter="!"/>

    <node id="Junction0" x="-35.00" y="-20.00" type="dead_end"/>
    <node id="Junction1" x="35.00" y="-20.00" type="traffic_light" tl="Junction1"/>
    <node id="Junction2" x="35.00" y="20.00" type="traffic_light" tl="Junction2"/>
    <node id="Junction3" x="-35.00" y="20.00" type="traffic_light" tl="Junction3"/>
    <node id="Junction4" x="-35.00" y="0.00" type="traffic_light" tl="Junction4"/>
    <node id="Junction5" x="0.00" y="0.00" type="priority"/>
    <node id="JunctionExtern0" x="-60.00" y="0.00" type="priority"/>
    <node id="JunctionExtern1" x="60.00" y="0.00" type="priority"/>
</nodes>
