<?xml version="1.0" encoding="UTF-8"?>

<!-- generated on 2024-06-04 10:49:28 by Eclipse SUMO netedit Version v1_20_0+0345-f9c5dc4db4d
<configuration xmlns:xsi="http://www.w3.org/2001/XMLSchema-instance" xsi:noNamespaceSchemaLocation="http://sumo.dlr.de/xsd/neteditConfiguration.xsd">

    <input>
        <additional-files value="D:\SUMO\tests\netedit\demandelements\additionals.add.xml"/>
        <route-files value="C:\Users\alva_pa\.texttest\tmp\netedit.gui.04Jun101318.7608\netedit.gui\demandelements\route\create_consecutive\default\routes.rou.xml"/>
        <data-files value="C:\Users\alva_pa\.texttest\tmp\netedit.gui.04Jun101318.7608\netedit.gui\demandelements\route\create_consecutive\default\datas.dat.xml"/>
        <sumo-net-file value="D:\SUMO\tests\netedit\demandelements\net.net.xml"/>
    </input>

    <output>
        <output-file value="D:\SUMO\tests\netedit\demandelements\net.net.xml"/>
    </output>

    <processing>
        <geometry.min-radius.fix.railways value="false"/>
        <geometry.max-grade.fix value="false"/>
        <offset.disable-normalization value="true"/>
        <lefthand value="0"/>
    </processing>

    <junctions>
        <no-internal-links value="false"/>
        <no-turnarounds value="true"/>
        <junctions.corner-detail value="5"/>
        <junctions.limit-turn-speed value="5.50"/>
        <rectangular-lane-cut value="0"/>
    </junctions>

    <pedestrian>
        <walkingareas value="0"/>
    </pedestrian>

    <netedit>
        <ignore-supermode-question value="true"/>
    </netedit>

    <visualisation>
        <gui-settings-file value="C:\Users\alva_pa\.texttest\tmp\netedit.gui.04Jun101318.7608\netedit.gui\demandelements\route\create_consecutive\default\gui-settings.xml"/>
        <window-size value="1280, 720"/>
        <window-pos value="50,50"/>
        <gui-testing value="true"/>
        <gui-testing.setting-output value="C:\Users\alva_pa\.texttest\tmp\netedit.gui.04Jun101318.7608\netedit.gui\demandelements\route\create_consecutive\default\guisettingsoutput.xml"/>
    </visualisation>

    <report>
        <no-warnings value="true"/>
        <error-log value="C:\Users\alva_pa\.texttest\tmp\netedit.gui.04Jun101318.7608\netedit.gui\demandelements\route\create_consecutive\default\log.txt"/>
    </report>

</configuration>
-->

<net version="1.20" junctionCornerDetail="5" limitTurnSpeed="5.50" xmlns:xsi="http://www.w3.org/2001/XMLSchema-instance" xsi:noNamespaceSchemaLocation="http://sumo.dlr.de/xsd/net_file.xsd">

    <location netOffset="-10.00,-30.00" convBoundary="-40.00,-20.00,30.00,20.00" origBoundary="-10000000000.00,-10000000000.00,10000000000.00,10000000000.00" projParameter="!"/>

    <edge id=":Junction0_w0" function="walkingarea">
        <lane id=":Junction0_w0_0" index="0" allow="pedestrian" speed="2.78" length="8.00" width="2.00" shape="-40.00,-23.00 -40.00,-25.00 -40.00,-15.00 -40.00,-17.00"/>
    </edge>
    <edge id=":Junction1_0" function="internal">
        <lane id=":Junction1_0_0" index="0" disallow="pedestrian" speed="5.28" length="5.64" width="3.00" shape="28.50,-15.00 28.28,-16.53 27.62,-17.62 26.53,-18.28 25.00,-18.50"/>
    </edge>
    <edge id=":Junction1_1" function="internal">
        <lane id=":Junction1_1_0" index="0" disallow="pedestrian" speed="6.94" length="10.48" width="3.00" shape="25.00,-21.50 27.84,-21.09 29.88,-19.88 31.09,-17.84 31.50,-15.00"/>
    </edge>
    <edge id=":Junction1_w0" function="walkingarea">
        <lane id=":Junction1_w0_0" index="0" allow="pedestrian" speed="2.78" length="1.41" width="2.00" shape="25.00,-17.00 25.00,-15.00 27.00,-15.00 26.94,-15.61 26.78,-16.11 26.50,-16.50 26.11,-16.78 25.61,-16.94"/>
    </edge>
    <edge id=":Junction1_w1" function="walkingarea">
        <lane id=":Junction1_w1_0" index="0" allow="pedestrian" speed="2.78" length="12.73" width="2.00" shape="33.00,-15.00 35.00,-15.00 34.72,-18.06 33.89,-20.56 32.50,-22.50 30.56,-23.89 28.06,-24.72 25.00,-25.00 25.00,-23.00 27.44,-22.78 29.44,-22.11 31.00,-21.00 32.11,-19.44 32.78,-17.44"/>
    </edge>
    <edge id=":Junction2_0" function="internal">
        <lane id=":Junction2_0_0" index="0" disallow="pedestrian" speed="6.94" length="10.48" width="3.00" shape="31.50,15.00 31.09,17.84 29.88,19.88 27.84,21.09 25.00,21.50"/>
    </edge>
    <edge id=":Junction2_1" function="internal">
        <lane id=":Junction2_1_0" index="0" disallow="pedestrian" speed="5.28" length="5.64" width="3.00" shape="25.00,18.50 26.53,18.28 27.62,17.62 28.28,16.53 28.50,15.00"/>
    </edge>
    <edge id=":Junction2_w0" function="walkingarea">
        <lane id=":Junction2_w0_0" index="0" allow="pedestrian" speed="2.78" length="12.73" width="2.00" shape="25.00,23.00 25.00,25.00 28.06,24.72 30.56,23.89 32.50,22.50 33.89,20.56 34.72,18.06 35.00,15.00 33.00,15.00 32.78,17.44 32.11,19.44 31.00,21.00 29.44,22.11 27.44,22.78"/>
    </edge>
    <edge id=":Junction2_w1" function="walkingarea">
        <lane id=":Junction2_w1_0" index="0" allow="pedestrian" speed="2.78" length="1.41" width="2.00" shape="27.00,15.00 25.00,15.00 25.00,17.00 25.61,16.94 26.11,16.78 26.50,16.50 26.78,16.11 26.94,15.61"/>
    </edge>
    <edge id=":Junction3_0" function="internal">
        <lane id=":Junction3_0_0" index="0" allow="bicycle" speed="8.11" length="14.66" width="1.00" shape="-32.50,20.50 -37.31,20.06 -40.75,18.75 -42.81,16.56 -43.50,13.50"/>
        <lane id=":Junction3_0_1" index="1" allow="bus" speed="7.86" length="13.72" width="3.00" shape="-32.50,21.50 -36.44,21.00 -39.25,19.50 -40.94,17.00 -41.50,13.50"/>
    </edge>
    <edge id=":Junction3_2" function="internal">
        <lane id=":Junction3_2_0" index="0" allow="bicycle" speed="5.34" length="6.45" width="1.00" shape="-36.50,13.50 -36.25,15.25 -35.50,16.50 -34.25,17.25 -32.50,17.50"/>
        <lane id=":Junction3_2_1" index="1" allow="bus" speed="6.44" length="8.88" width="3.00" shape="-38.50,13.50 -38.12,15.69 -37.00,17.25 -35.12,18.19 -32.50,18.50"/>
    </edge>
    <edge id=":Junction3_w0" function="walkingarea">
        <lane id=":Junction3_w0_0" index="0" allow="pedestrian" speed="2.78" length="16.32" width="2.00" shape="-44.00,13.50 -46.00,13.50 -45.62,17.01 -44.50,19.89 -42.62,22.12 -40.00,23.72 -36.62,24.68 -32.50,25.00 -32.50,23.00 -36.01,22.74 -38.89,21.94 -41.12,20.62 -42.72,18.78 -43.68,16.40"/>
    </edge>
    <edge id=":Junction3_w1" function="walkingarea">
        <lane id=":Junction3_w1_0" index="0" allow="pedestrian" speed="2.78" length="3.54" width="2.00" shape="-32.50,17.00 -32.50,15.00 -34.00,13.50 -36.00,13.50 -35.90,14.57 -35.61,15.44 -35.12,16.12 -34.44,16.61 -33.57,16.90"/>
    </edge>
    <edge id=":Junction4_0" function="internal">
        <lane id=":Junction4_0_0" index="0" allow="bicycle" speed="8.32" length="16.16" width="1.00" shape="-43.50,6.50 -42.81,2.56 -40.75,-0.25 -37.31,-1.94 -32.50,-2.50"/>
        <lane id=":Junction4_0_1" index="1" allow="bus" speed="7.86" length="13.72" width="3.00" shape="-41.50,6.50 -40.94,3.00 -39.25,0.50 -36.44,-1.00 -32.50,-1.50"/>
    </edge>
    <edge id=":Junction4_2" function="internal">
        <lane id=":Junction4_2_0" index="0" allow="bicycle" speed="5.59" length="6.45" width="1.00" shape="-32.50,2.50 -34.25,2.75 -35.50,3.50 -36.25,4.75 -36.50,6.50"/>
        <lane id=":Junction4_2_1" index="1" allow="bus" speed="6.44" length="8.88" width="3.00" shape="-32.50,1.50 -35.13,1.81 -37.00,2.75 -38.13,4.31 -38.50,6.50"/>
    </edge>
    <edge id=":Junction4_w0" function="walkingarea">
        <lane id=":Junction4_w0_0" index="0" allow="pedestrian" speed="2.78" length="16.32" width="2.00" shape="-32.50,-3.00 -32.50,-5.00 -36.62,-4.68 -40.00,-3.72 -42.62,-2.12 -44.50,0.11 -45.63,2.99 -46.00,6.50 -44.00,6.50 -43.68,3.60 -42.72,1.22 -41.12,-0.62 -38.89,-1.94 -36.01,-2.74"/>
    </edge>
    <edge id=":Junction4_w1" function="walkingarea">
        <lane id=":Junction4_w1_0" index="0" allow="pedestrian" speed="2.78" length="3.54" width="2.00" shape="-36.00,6.50 -34.00,6.50 -32.50,5.00 -32.50,3.00 -33.57,3.10 -34.44,3.39 -35.12,3.88 -35.61,4.56 -35.90,5.43"/>
    </edge>
    <edge id=":JunctionCenter_0" function="internal">
        <lane id=":JunctionCenter_0_0" index="0" disallow="pedestrian" speed="3.53" length="4.38" width="3.00" shape="15.00,-1.50 16.12,-0.75 16.50,0.00 16.12,0.75 15.00,1.50"/>
    </edge>
    <edge id=":JunctionCenter_c0" function="crossing" crossingEdges="EdgeCenter1 EdgeCenter0">
        <lane id=":JunctionCenter_c0_0" index="0" allow="pedestrian" speed="2.78" length="6.00" width="4.00" shape="17.00,3.00 17.00,-3.00" outlineShape="15.00,3.00 15.00,-3.00 19.00,-3.00 19.00,3.00 15.00,3.00"/>
    </edge>
    <edge id=":JunctionCenter_w0" function="walkingarea">
        <lane id=":JunctionCenter_w0_0" index="0" allow="pedestrian" speed="2.78" length="2.24" width="4.00" shape="19.00,3.00 15.00,3.00 15.00,5.00"/>
    </edge>
    <edge id=":JunctionCenter_w1" function="walkingarea">
        <lane id=":JunctionCenter_w1_0" index="0" allow="pedestrian" speed="2.78" length="2.24" width="4.00" shape="15.00,-5.00 15.00,-3.00 19.00,-3.00"/>
    </edge>

    <edge id="Edge0" from="Junction0" to="Junction1" priority="-1" length="65.00">
        <lane id="Edge0_0" index="0" allow="pedestrian" speed="13.89" length="65.00" width="2.00" shape="-40.00,-24.00 25.00,-24.00"/>
        <lane id="Edge0_1" index="1" disallow="pedestrian" speed="13.89" length="65.00" width="3.00" shape="-40.00,-21.50 25.00,-21.50"/>
    </edge>
    <edge id="Edge1" from="Junction1" to="Junction2" priority="-1" length="30.00">
        <lane id="Edge1_0" index="0" allow="pedestrian" speed="13.89" length="30.00" width="2.00" shape="34.00,-15.00 34.00,15.00"/>
        <lane id="Edge1_1" index="1" disallow="pedestrian" speed="13.89" length="30.00" width="3.00" shape="31.50,-15.00 31.50,15.00"/>
    </edge>
    <edge id="Edge2" from="Junction2" to="Junction3" priority="-1" length="57.50">
        <lane id="Edge2_0" index="0" allow="pedestrian" speed="13.89" length="57.50" width="2.00" shape="25.00,24.00 -32.50,24.00"/>
        <lane id="Edge2_1" index="1" disallow="pedestrian" speed="13.89" length="57.50" width="3.00" shape="25.00,21.50 -32.50,21.50"/>
    </edge>
    <edge id="Edge3" from="Junction3" to="Junction2" priority="-1" length="57.50">
        <lane id="Edge3_0" index="0" allow="pedestrian" speed="13.89" length="57.50" width="2.00" shape="-32.50,16.00 25.00,16.00"/>
        <lane id="Edge3_1" index="1" disallow="pedestrian" speed="13.89" length="57.50" width="3.00" shape="-32.50,18.50 25.00,18.50"/>
    </edge>
    <edge id="Edge4" from="Junction2" to="Junction1" priority="-1" length="30.00">
        <lane id="Edge4_0" index="0" allow="pedestrian" speed="13.89" length="30.00" width="2.00" shape="26.00,15.00 26.00,-15.00"/>
        <lane id="Edge4_1" index="1" disallow="pedestrian" speed="13.89" length="30.00" width="3.00" shape="28.50,15.00 28.50,-15.00"/>
    </edge>
    <edge id="Edge5" from="Junction1" to="Junction0" priority="-1" length="65.00">
        <lane id="Edge5_0" index="0" allow="pedestrian" speed="13.89" length="65.00" width="2.00" shape="25.00,-16.00 -40.00,-16.00"/>
        <lane id="Edge5_1" index="1" disallow="pedestrian" speed="13.89" length="65.00" width="3.00" shape="25.00,-18.50 -40.00,-18.50"/>
    </edge>
    <edge id="EdgeBike0" from="Junction3" to="Junction4" priority="-1" length="7.00">
        <lane id="EdgeBike0_0" index="0" allow="pedestrian" speed="13.89" length="7.00" width="2.00" shape="-45.00,13.50 -45.00,6.50"/>
        <lane id="EdgeBike0_1" index="1" allow="bicycle" speed="13.89" length="7.00" width="1.00" shape="-43.50,13.50 -43.50,6.50"/>
        <lane id="EdgeBike0_2" index="2" allow="bus" speed="13.89" length="7.00" width="3.00" shape="-41.50,13.50 -41.50,6.50"/>
    </edge>
    <edge id="EdgeBike1" from="Junction4" to="Junction3" priority="-1" length="7.00">
        <lane id="EdgeBike1_0" index="0" allow="pedestrian" speed="13.89" length="7.00" width="2.00" shape="-35.00,6.50 -35.00,13.50"/>
        <lane id="EdgeBike1_1" index="1" allow="bicycle" speed="13.89" length="7.00" width="1.00" shape="-36.50,6.50 -36.50,13.50"/>
        <lane id="EdgeBike1_2" index="2" allow="bus" speed="13.89" length="7.00" width="3.00" shape="-38.50,6.50 -38.50,13.50"/>
    </edge>
    <edge id="EdgeCenter0" from="Junction4" to="JunctionCenter" priority="-1" length="47.50">
        <lane id="EdgeCenter0_0" index="0" allow="pedestrian" speed="13.89" length="47.50" width="2.00" shape="-32.50,-4.00 15.00,-4.00"/>
        <lane id="EdgeCenter0_1" index="1" disallow="pedestrian" speed="13.89" length="47.50" width="3.00" shape="-32.50,-1.50 15.00,-1.50"/>
    </edge>
    <edge id="EdgeCenter1" from="JunctionCenter" to="Junction4" priority="-1" length="47.50">
        <lane id="EdgeCenter1_0" index="0" allow="pedestrian" speed="13.89" length="47.50" width="2.00" shape="15.00,4.00 -32.50,4.00"/>
        <lane id="EdgeCenter1_1" index="1" disallow="pedestrian" speed="13.89" length="47.50" width="3.00" shape="15.00,1.50 -32.50,1.50"/>
    </edge>

    <tlLogic id="Junction1" type="static" programID="0" offset="0">
        <phase duration="42" state="GGGG"/>
        <phase duration="3"  state="yyyy"/>
        <phase duration="42" state="GGGG"/>
        <phase duration="3"  state="yyyy"/>
    </tlLogic>
    <tlLogic id="Junction2" type="static" programID="0" offset="0">
        <phase duration="42" state="GGGG"/>
        <phase duration="3"  state="yyyy"/>
        <phase duration="42" state="GGGG"/>
        <phase duration="3"  state="yyyy"/>
    </tlLogic>
    <tlLogic id="Junction3" type="static" programID="0" offset="0">
        <phase duration="90" state="GGGg"/>
    </tlLogic>
    <tlLogic id="Junction4" type="static" programID="0" offset="0">
        <phase duration="90" state="gGGG"/>
    </tlLogic>

    <junction id="Junction0" type="dead_end" x="-40.00" y="-20.00" incLanes="Edge5_0 Edge5_1" intLanes="" shape="-40.00,-20.00 -40.00,-15.00 -40.00,-20.00"/>
    <junction id="Junction1" type="traffic_light" x="30.00" y="-20.00" incLanes="Edge4_0 Edge4_1 Edge0_0 Edge0_1" intLanes=":Junction1_0_0 :Junction1_1_0" shape="25.00,-15.00 35.00,-15.00 34.72,-18.06 33.89,-20.56 32.50,-22.50 30.56,-23.89 28.06,-24.72 25.00,-25.00">
        <request index="0" response="00" foes="00" cont="0"/>
        <request index="1" response="00" foes="00" cont="0"/>
    </junction>
    <junction id="Junction2" type="traffic_light" x="30.00" y="20.00" incLanes="Edge1_0 Edge1_1 Edge3_0 Edge3_1" intLanes=":Junction2_0_0 :Junction2_1_0" shape="35.00,15.00 25.00,15.00 25.00,25.00 28.06,24.72 30.56,23.89 32.50,22.50 33.89,20.56 34.72,18.06">
        <request index="0" response="00" foes="00" cont="0"/>
        <request index="1" response="00" foes="00" cont="0"/>
    </junction>
    <junction id="Junction3" type="traffic_light" x="-40.00" y="20.00" incLanes="Edge2_0 Edge2_1 EdgeBike1_0 EdgeBike1_1 EdgeBike1_2" intLanes=":Junction3_0_0 :Junction3_0_1 :Junction3_2_0 :Junction3_2_1" shape="-32.50,25.00 -32.50,15.00 -33.33,14.83 -33.62,14.62 -33.83,14.33 -33.96,13.96 -34.00,13.50 -46.00,13.50 -45.63,17.01 -44.50,19.89 -42.62,22.12 -40.00,23.72 -36.62,24.68">
        <request index="0" response="0000" foes="0000" cont="0"/>
        <request index="1" response="0000" foes="0000" cont="0"/>
        <request index="2" response="0000" foes="1000" cont="0"/>
        <request index="3" response="0100" foes="0100" cont="0"/>
    </junction>
    <junction id="Junction4" type="traffic_light" x="-40.00" y="0.00" incLanes="EdgeBike0_0 EdgeBike0_1 EdgeBike0_2 EdgeCenter1_0 EdgeCenter1_1" intLanes=":Junction4_0_0 :Junction4_0_1 :Junction4_2_0 :Junction4_2_1" shape="-46.00,6.50 -34.00,6.50 -33.83,5.67 -33.62,5.38 -33.33,5.17 -32.96,5.04 -32.50,5.00 -32.50,-5.00 -36.63,-4.68 -40.00,-3.72 -42.62,-2.12 -44.50,0.11 -45.62,2.99">
        <request index="0" response="0010" foes="0010" cont="0"/>
        <request index="1" response="0000" foes="0001" cont="0"/>
        <request index="2" response="0000" foes="0000" cont="0"/>
        <request index="3" response="0000" foes="0000" cont="0"/>
    </junction>
    <junction id="JunctionCenter" type="priority" x="15.00" y="0.00" incLanes="EdgeCenter0_0 EdgeCenter0_1 :JunctionCenter_w0_0" intLanes=":JunctionCenter_0_0 :JunctionCenter_c0_0" shape="15.00,0.00 15.00,-5.00 15.00,0.00">
        <request index="0" response="00" foes="10" cont="0"/>
        <request index="1" response="01" foes="01" cont="0"/>
    </junction>

    <connection from="Edge0" to="Edge1" fromLane="1" toLane="1" via=":Junction1_1_0" tl="Junction1" linkIndex="3" dir="l" state="O"/>
    <connection from="Edge1" to="Edge2" fromLane="1" toLane="1" via=":Junction2_0_0" tl="Junction2" linkIndex="1" dir="l" state="O"/>
    <connection from="Edge2" to="EdgeBike0" fromLane="1" toLane="1" via=":Junction3_0_0" tl="Junction3" linkIndex="0" dir="l" state="O"/>
    <connection from="Edge2" to="EdgeBike0" fromLane="1" toLane="2" via=":Junction3_0_1" tl="Junction3" linkIndex="1" dir="l" state="O"/>
    <connection from="Edge3" to="Edge4" fromLane="1" toLane="1" via=":Junction2_1_0" tl="Junction2" linkIndex="3" dir="r" state="O"/>
    <connection from="Edge4" to="Edge5" fromLane="1" toLane="1" via=":Junction1_0_0" tl="Junction1" linkIndex="1" dir="r" state="O"/>
    <connection from="EdgeBike0" to="EdgeCenter0" fromLane="1" toLane="1" via=":Junction4_0_0" tl="Junction4" linkIndex="0" dir="l" state="o"/>
    <connection from="EdgeBike0" to="EdgeCenter0" fromLane="2" toLane="1" via=":Junction4_0_1" tl="Junction4" linkIndex="1" dir="l" state="O"/>
    <connection from="EdgeBike1" to="Edge3" fromLane="1" toLane="1" via=":Junction3_2_0" tl="Junction3" linkIndex="2" dir="r" state="O"/>
    <connection from="EdgeBike1" to="Edge3" fromLane="2" toLane="1" via=":Junction3_2_1" tl="Junction3" linkIndex="3" dir="r" state="o"/>
    <connection from="EdgeCenter0" to="EdgeCenter1" fromLane="1" toLane="1" via=":JunctionCenter_0_0" dir="t" state="M"/>
    <connection from="EdgeCenter1" to="EdgeBike1" fromLane="1" toLane="1" via=":Junction4_2_0" tl="Junction4" linkIndex="2" dir="r" state="O"/>
    <connection from="EdgeCenter1" to="EdgeBike1" fromLane="1" toLane="2" via=":Junction4_2_1" tl="Junction4" linkIndex="3" dir="r" state="O"/>

    <connection from=":Junction1_0" to="Edge5" fromLane="0" toLane="1" dir="r" state="M"/>
    <connection from=":Junction1_1" to="Edge1" fromLane="0" toLane="1" dir="l" state="M"/>
    <connection from=":Junction2_0" to="Edge2" fromLane="0" toLane="1" dir="l" state="M"/>
    <connection from=":Junction2_1" to="Edge4" fromLane="0" toLane="1" dir="r" state="M"/>
    <connection from=":Junction3_0" to="EdgeBike0" fromLane="0" toLane="1" dir="l" state="M"/>
    <connection from=":Junction3_0" to="EdgeBike0" fromLane="1" toLane="2" dir="l" state="M"/>
    <connection from=":Junction3_2" to="Edge3" fromLane="0" toLane="1" dir="r" state="M"/>
    <connection from=":Junction3_2" to="Edge3" fromLane="1" toLane="1" dir="r" state="M"/>
    <connection from=":Junction4_0" to="EdgeCenter0" fromLane="0" toLane="1" dir="l" state="M"/>
    <connection from=":Junction4_0" to="EdgeCenter0" fromLane="1" toLane="1" dir="l" state="M"/>
    <connection from=":Junction4_2" to="EdgeBike1" fromLane="0" toLane="1" dir="r" state="M"/>
    <connection from=":Junction4_2" to="EdgeBike1" fromLane="1" toLane="2" dir="r" state="M"/>
    <connection from=":JunctionCenter_0" to="EdgeCenter1" fromLane="0" toLane="1" dir="t" state="M"/>

    <connection from=":Junction0_w0" to="Edge0" fromLane="0" toLane="0" dir="s" state="M"/>
    <connection from="Edge5" to=":Junction0_w0" fromLane="0" toLane="0" dir="s" state="M"/>
    <connection from=":Junction1_w0" to="Edge5" fromLane="0" toLane="0" dir="s" state="M"/>
    <connection from="Edge4" to=":Junction1_w0" fromLane="0" toLane="0" dir="s" state="M"/>
    <connection from=":Junction1_w1" to="Edge1" fromLane="0" toLane="0" dir="s" state="M"/>
    <connection from="Edge0" to=":Junction1_w1" fromLane="0" toLane="0" dir="s" state="M"/>
    <connection from=":Junction2_w0" to="Edge2" fromLane="0" toLane="0" dir="s" state="M"/>
    <connection from="Edge1" to=":Junction2_w0" fromLane="0" toLane="0" dir="s" state="M"/>
    <connection from=":Junction2_w1" to="Edge4" fromLane="0" toLane="0" dir="s" state="M"/>
    <connection from="Edge3" to=":Junction2_w1" fromLane="0" toLane="0" dir="s" state="M"/>
    <connection from=":Junction3_w0" to="EdgeBike0" fromLane="0" toLane="0" dir="s" state="M"/>
    <connection from="Edge2" to=":Junction3_w0" fromLane="0" toLane="0" dir="s" state="M"/>
    <connection from=":Junction3_w1" to="Edge3" fromLane="0" toLane="0" dir="s" state="M"/>
    <connection from="EdgeBike1" to=":Junction3_w1" fromLane="0" toLane="0" dir="s" state="M"/>
    <connection from=":Junction4_w0" to="EdgeCenter0" fromLane="0" toLane="0" dir="s" state="M"/>
    <connection from="EdgeBike0" to=":Junction4_w0" fromLane="0" toLane="0" dir="s" state="M"/>
    <connection from=":Junction4_w1" to="EdgeBike1" fromLane="0" toLane="0" dir="s" state="M"/>
    <connection from="EdgeCenter1" to=":Junction4_w1" fromLane="0" toLane="0" dir="s" state="M"/>
    <connection from=":JunctionCenter_c0" to=":JunctionCenter_w1" fromLane="0" toLane="0" dir="s" state="M"/>
    <connection from=":JunctionCenter_w0" to=":JunctionCenter_c0" fromLane="0" toLane="0" dir="s" state="m"/>
    <connection from=":JunctionCenter_w0" to="EdgeCenter1" fromLane="0" toLane="0" dir="s" state="M"/>
    <connection from="EdgeCenter0" to=":JunctionCenter_w1" fromLane="0" toLane="0" dir="s" state="M"/>
</net>
