<?xml version="1.0" encoding="UTF-8"?>
<!-- generated on 2021-02-18 21:22:56.373084 by $Id$ v1_8_0+1268-8ea3cb9
  options: -n net.net.xml -a input_additional.add.xml -r input_routes.rou.xml -o out.add.xml -v <doubleminus>abort-unordered <doubleminus>debug-stop stop_b
-->
<additional xmlns:xsi="http://www.w3.org/2001/XMLSchema-instance" xsi:noNamespaceSchemaLocation="http://sumo.dlr.de/xsd/additional_file.xsd">
</additional>
