<?xml version="1.0" encoding="UTF-8"?>

<!-- generated on Thu 07 Jan 2021 12:22:07 PM CET by Eclipse SUMO netedit Version v1_8_0+0409-0e91982
<configuration xmlns:xsi="http://www.w3.org/2001/XMLSchema-instance" xsi:noNamespaceSchemaLocation="http://sumo.dlr.de/xsd/netconvertConfiguration.xsd">

    <input>
        <node-files value="input_nodes.nod.xml"/>
        <edge-files value="input_edges.edg.xml"/>
    </input>

    <output>
        <plain-output-prefix value="/home/erdm_ja/scr1/sumo/tests/netconvert/function/keep_edges/components_railstops/input_edges"/>
    </output>

    <processing>
        <offset.disable-normalization value="true"/>
    </processing>

    <netedit>
        <additional-files value="/home/erdm_ja/scr1/sumo/tests/netconvert/function/keep_edges/components_railstops/input_ptstops.add.xml"/>
    </netedit>

    <report>
        <aggregate-warnings value="5"/>
    </report>

</configuration>
-->

<nodes version="1.9" xmlns:xsi="http://www.w3.org/2001/XMLSchema-instance" xsi:noNamespaceSchemaLocation="http://sumo.dlr.de/xsd/nodes_file.xsd">
    <location netOffset="0.00,100.00" convBoundary="-963.58,-15.97,2000.00,1519.66" origBoundary="-10000000000.00,-10000000000.00,10000000000.00,10000000000.00" projParameter="!"/>

    <node id="cluster_gneJ0_gneJ4" x="0.00" y="300.00" type="priority"/>
    <node id="cluster_gneJ18_gneJ20_gneJ22_gneJ24" x="900.00" y="600.00" type="priority"/>
    <node id="cluster_gneJ28_gneJ31" x="133.67" y="834.75" type="priority"/>
    <node id="cluster_gneJ33_gneJ37_gneJ38" x="400.00" y="700.00" type="priority"/>
    <node id="gneJ1" x="200.00" y="300.00" type="priority"/>
    <node id="gneJ10" x="200.00" y="200.00" type="priority"/>
    <node id="gneJ11" x="-11.63" y="205.94" type="priority"/>
    <node id="gneJ12" x="-36.80" y="60.49" type="priority"/>
    <node id="gneJ13" x="-137.50" y="-9.44" type="priority"/>
    <node id="gneJ14" x="227.06" y="198.48" type="priority"/>
    <node id="gneJ17" x="700.00" y="600.00" type="priority"/>
    <node id="gneJ19" x="900.00" y="400.00" type="priority"/>
    <node id="gneJ2" x="200.00" y="500.00" type="priority"/>
    <node id="gneJ21" x="1100.00" y="600.00" type="priority"/>
    <node id="gneJ23" x="900.00" y="800.00" type="priority"/>
    <node id="gneJ27" x="125.43" y="767.23" type="priority"/>
    <node id="gneJ29" x="300.00" y="900.00" type="priority"/>
    <node id="gneJ3" x="0.00" y="500.00" type="priority"/>
    <node id="gneJ30" x="300.00" y="700.00" type="priority"/>
    <node id="gneJ34" x="400.00" y="900.00" type="priority"/>
    <node id="gneJ35" x="600.00" y="900.00" type="priority"/>
    <node id="gneJ36" x="600.00" y="700.00" type="priority"/>
    <node id="gneJ39" x="773.66" y="1040.27" type="dead_end"/>
    <node id="gneJ40" x="1377.11" y="1282.36" type="dead_end"/>
    <node id="gneJ41" x="1622.98" y="1131.83" type="priority"/>
    <node id="gneJ42" x="1743.75" y="953.50" type="priority"/>
    <node id="gneJ43" x="1655.97" y="764.63" type="priority"/>
    <node id="gneJ44" x="1454.88" y="723.52" type="priority"/>
    <node id="gneJ45" x="1307.11" y="803.51" type="priority"/>
    <node id="gneJ46" x="1337.11" y="997.94" type="priority"/>
    <node id="gneJ47" x="1434.88" y="1103.49" type="priority"/>
    <node id="gneJ48" x="1838.98" y="1519.66" type="priority"/>
    <node id="gneJ49" x="2000.00" y="1500.00" type="priority"/>
    <node id="gneJ50" x="2000.00" y="1300.00" type="priority"/>
    <node id="gneJ51" x="1800.00" y="1300.00" type="priority"/>
    <node id="gneJ52" x="1800.00" y="1500.00" type="priority"/>
    <node id="gneJ55" x="427.62" y="281.11" type="dead_end"/>
    <node id="gneJ56" x="613.28" y="369.84" type="priority"/>
    <node id="gneJ57" x="564.73" y="498.25" type="dead_end"/>
    <node id="gneJ58" x="748.14" y="335.32" type="dead_end"/>
    <node id="gneJ62" x="-942.29" y="843.63" type="priority"/>
    <node id="gneJ63" x="-765.55" y="1000.55" type="dead_end"/>
    <node id="gneJ65" x="-884.11" y="771.77" type="dead_end"/>
    <node id="gneJ66" x="-963.58" y="961.24" type="dead_end"/>
    <node id="gneJ69" x="-361.59" y="802.18" type="dead_end"/>
    <node id="gneJ7" x="-1.37" y="-15.97" type="priority"/>
    <node id="gneJ70" x="-375.16" y="990.35" type="dead_end"/>
    <node id="gneJ71" x="-198.00" y="806.42" type="dead_end"/>
    <node id="gneJ72" x="-359.05" y="662.33" type="dead_end"/>
    <node id="gneJ73" x="-540.44" y="803.88" type="dead_end"/>
    <node id="gneJ74" x="-222.58" y="1097.15" type="dead_end"/>
    <node id="gneJ75" x="-221.74" y="924.24" type="dead_end"/>
    <node id="gneJ76" x="-61.54" y="932.71" type="dead_end"/>
    <node id="gneJ77" x="-222.58" y="824.22" type="dead_end"/>
    <node id="gneJ78" x="-684.45" y="822.86" type="dead_end"/>
    <node id="gneJ79" x="-605.37" y="908.81" type="dead_end"/>
    <node id="gneJ8" x="206.55" y="-3.85" type="priority"/>
    <node id="gneJ80" x="-523.35" y="1008.48" type="dead_end"/>
    <node id="gneJ81" x="-449.91" y="1086.50" type="dead_end"/>
    <node id="gneJ82" x="996.57" y="1174.27" type="dead_end"/>
    <node id="gneJ83" x="1223.36" y="1264.48" type="dead_end"/>
    <node id="gneJ9" x="200.00" y="200.00" type="priority"/>
</nodes>
