<?xml version="1.0"?>

<!-- generated on 07/31/08 15:26:00 by SUMO netgen Version dev-SVN-r5892
<configuration>

   <random_network>
      <random-net>true</random-net>
      <rand-iterations>10</rand-iterations>
   </random_network>

   <output>
      <output-file>net.net.xml</output-file>
   </output>

   <report>
      <verbose>true</verbose>
   </report>

</configuration>
-->

<net>

   <net-offset>162.29,362.77</net-offset>
   <conv-boundary>0.00,0.00,554.80,574.23</conv-boundary>
   <orig-boundary>-162.29,-362.77,392.51,211.46</orig-boundary>
   <orig-proj>!</orig-proj>

   <edges no="10">11 13 15 17 19 25 3 38 7 9</edges>
   <node_count>10</node_count>


   <edge id="11" from="1" to="10" priority="-1" type="netgen-default" function="normal">
      <lanes>
         <lane id="11_0" depart="1" vclasses="" maxspeed="13.90" length="165.16">158.23,365.76 0.49,414.71</lane>
      </lanes>
   </edge>

   <edge id="13" from="2" to="12" priority="-1" type="netgen-default" function="normal">
      <lanes>
         <lane id="13_0" depart="1" vclasses="" maxspeed="13.90" length="129.35">109.65,134.56 229.84,182.37</lane>
      </lanes>
      <cedge id="38">13_0</cedge>
   </edge>

   <edge id="15" from="2" to="14" priority="-1" type="netgen-default" function="normal">
      <lanes>
         <lane id="15_0" depart="1" vclasses="" maxspeed="13.90" length="144.70">104.77,132.96 46.14,0.67</lane>
      </lanes>
   </edge>

   <edge id="17" from="8" to="12" priority="-1" type="netgen-default" function="normal">
      <lanes>
         <lane id="17_0" depart="1" vclasses="" maxspeed="13.90" length="224.28">367.64,365.14 233.90,185.09</lane>
      </lanes>
      <cedge id="38">17_0</cedge>
   </edge>

   <edge id="19" from="8" to="18" priority="-1" type="netgen-default" function="normal">
      <lanes>
         <lane id="19_0" depart="1" vclasses="" maxspeed="13.90" length="190.22">377.74,367.47 554.18,296.38</lane>
      </lanes>
   </edge>

   <edge id="25" from="8" to="24" priority="-1" type="netgen-default" function="normal">
      <lanes>
         <lane id="25_0" depart="1" vclasses="" maxspeed="13.90" length="212.61">376.41,371.65 491.34,550.51</lane>
      </lanes>
   </edge>

   <edge id="3" from="1" to="2" priority="-1" type="netgen-default" function="normal">
      <lanes>
         <lane id="3_0" depart="1" vclasses="" maxspeed="13.90" length="226.97">159.54,358.40 106.55,137.71</lane>
      </lanes>
      <cedge id="15">3_0</cedge>
      <cedge id="13">3_0</cedge>
   </edge>

   <edge id="38" from="12" to="37" priority="-1" type="netgen-default" function="normal">
      <lanes>
         <lane id="38_0" depart="1" vclasses="" maxspeed="13.90" length="180.51">232.78,179.47 168.03,10.97</lane>
      </lanes>
   </edge>

   <edge id="7" from="1" to="6" priority="-1" type="netgen-default" function="normal">
      <lanes>
         <lane id="7_0" depart="1" vclasses="" maxspeed="13.90" length="206.62">164.02,367.62 167.26,574.21</lane>
      </lanes>
   </edge>

   <edge id="9" from="1" to="8" priority="-1" type="netgen-default" function="normal">
      <lanes>
         <lane id="9_0" depart="1" vclasses="" maxspeed="13.90" length="198.74">167.10,361.30 365.69,368.84</lane>
      </lanes>
      <cedge id="17">9_0</cedge>
      <cedge id="19">9_0</cedge>
      <cedge id="25">9_0</cedge>
   </edge>


   <row-logic>
      <key>12</key>
      <requestsize>2</requestsize>
      <lanenumber>2</lanenumber>
      <logic>
         <logicitem request="0" response="10" foes="10"/>
         <logicitem request="1" response="00" foes="01"/>
      </logic>
   </row-logic>

   <row-logic>
      <key>2</key>
      <requestsize>2</requestsize>
      <lanenumber>1</lanenumber>
      <logic>
         <logicitem request="0" response="00" foes="00"/>
         <logicitem request="1" response="00" foes="00"/>
      </logic>
   </row-logic>

   <row-logic>
      <key>8</key>
      <requestsize>3</requestsize>
      <lanenumber>1</lanenumber>
      <logic>
         <logicitem request="0" response="000" foes="000"/>
         <logicitem request="1" response="000" foes="000"/>
         <logicitem request="2" response="000" foes="000"/>
      </logic>
   </row-logic>



   <junction id="1" type="DEAD_END" x="162.29" y="362.77">
      <inclanes></inclanes>
      <shape>162.42,367.64 165.62,367.59 167.04,362.90 167.16,359.70 161.10,358.03 157.99,358.77 157.76,364.23 158.71,367.29</shape>
   </junction>

   <junction id="10" type="DEAD_END" x="0.00" y="413.13">
      <inclanes>11_0</inclanes>
      <shape>0.96,416.24 0.01,413.18</shape>
   </junction>

   <junction id="12" type="priority" x="237.52" y="187.21">
      <inclanes>17_0 13_0</inclanes>
      <shape>232.61,186.05 235.18,184.14 234.27,178.89 231.29,180.04 230.43,180.89 229.25,183.86</shape>
   </junction>

   <junction id="14" type="DEAD_END" x="47.65" y="0.00">
      <inclanes>15_0</inclanes>
      <shape>44.68,1.32 47.61,0.02</shape>
   </junction>

   <junction id="18" type="DEAD_END" x="554.80" y="297.91">
      <inclanes>19_0</inclanes>
      <shape>553.58,294.90 554.78,297.87</shape>
   </junction>

   <junction id="2" type="priority" x="107.74" y="135.58">
      <inclanes>3_0</inclanes>
      <shape>105.00,138.08 108.11,137.33 109.06,136.05 110.24,133.08 106.23,132.31 103.31,133.61</shape>
   </junction>

   <junction id="24" type="DEAD_END" x="489.95" y="551.41">
      <inclanes>25_0</inclanes>
      <shape>492.68,549.65 489.99,551.38</shape>
   </junction>

   <junction id="37" type="DEAD_END" x="169.57" y="10.38">
      <inclanes>38_0</inclanes>
      <shape>166.54,11.54 169.52,10.40</shape>
   </junction>

   <junction id="6" type="DEAD_END" x="165.61" y="574.23">
      <inclanes>7_0</inclanes>
      <shape>168.86,574.18 165.66,574.23</shape>
   </junction>

   <junction id="8" type="priority" x="373.91" y="370.80">
      <inclanes>9_0</inclanes>
      <shape>375.07,372.51 377.76,370.78 378.34,368.96 377.14,365.99 368.93,364.18 366.36,366.09 365.76,367.24 365.63,370.43</shape>
   </junction>


   <succ edge="11" lane="11_0" junction="10">
      <succlane lane="SUMO_NO_DESTINATION" yield="1" dir="s" state="O"/>
   </succ>

   <succ edge="13" lane="13_0" junction="12">
      <succlane lane="38_0" yield="0" dir="r" state="M"/>
   </succ>

   <succ edge="15" lane="15_0" junction="14">
      <succlane lane="SUMO_NO_DESTINATION" yield="1" dir="s" state="O"/>
   </succ>

   <succ edge="17" lane="17_0" junction="12">
      <succlane lane="38_0" yield="1" dir="s" state="m"/>
   </succ>

   <succ edge="19" lane="19_0" junction="18">
      <succlane lane="SUMO_NO_DESTINATION" yield="1" dir="s" state="O"/>
   </succ>

   <succ edge="25" lane="25_0" junction="24">
      <succlane lane="SUMO_NO_DESTINATION" yield="1" dir="s" state="O"/>
   </succ>

   <succ edge="3" lane="3_0" junction="2">
      <succlane lane="15_0" yield="0" dir="s" state="M"/>
      <succlane lane="13_0" yield="0" dir="l" state="M"/>
   </succ>

   <succ edge="38" lane="38_0" junction="37">
      <succlane lane="SUMO_NO_DESTINATION" yield="1" dir="s" state="O"/>
   </succ>

   <succ edge="7" lane="7_0" junction="6">
      <succlane lane="SUMO_NO_DESTINATION" yield="1" dir="s" state="O"/>
   </succ>

   <succ edge="9" lane="9_0" junction="8">
      <succlane lane="17_0" yield="0" dir="r" state="M"/>
      <succlane lane="19_0" yield="0" dir="s" state="M"/>
      <succlane lane="25_0" yield="0" dir="l" state="M"/>
   </succ>


</net>
