<?xml version="1.0" encoding="UTF-8"?>

<!-- generated on 2023-01-23 11:21:16 by Eclipse SUMO netedit Version v1_15_0+1802-6c0f80f73ea
-->

<additional xmlns:xsi="http://www.w3.org/2001/XMLSchema-instance" xsi:noNamespaceSchemaLocation="http://sumo.dlr.de/xsd/additional_file.xsd">
    <!-- StoppingPlaces -->
    <busStop id="bs_0" lane="gneE0_0" startPos="16.00" endPos="26.00"/>
    <busStop id="bs_1" lane="gneE0_0" startPos="5.00" endPos="15.00"/>
    <busStop id="bs_2" lane="gneE0_0" startPos="30.00" endPos="40.00"/>
</additional>
