<flowdefs>

	<flow id="0" from="beg" begin="10" end="20" number="2"/>

</flowdefs>
