<?xml version="1.0" encoding="UTF-8"?>

<!-- generated on 2024-11-01 10:31:58 by Eclipse SUMO sumo Version v1_21_0+0544-8c77a935d25
This data file and the accompanying materials
are made available under the terms of the Eclipse Public License v2.0
which accompanies this distribution, and is available at
http://www.eclipse.org/legal/epl-v20.html
This file may also be made available under the following Secondary
Licenses when the conditions for such availability set forth in the Eclipse
Public License 2.0 are satisfied: GNU General Public License, version 2
or later which is available at
https://www.gnu.org/licenses/old-licenses/gpl-2.0-standalone.html
SPDX-License-Identifier: EPL-2.0 OR GPL-2.0-or-later
<sumoConfiguration xmlns:xsi="http://www.w3.org/2001/XMLSchema-instance" xsi:noNamespaceSchemaLocation="http://sumo.dlr.de/xsd/sumoConfiguration.xsd">

    <input>
        <net-file value="net.net.xml"/>
        <route-files value="input_routes.rou.xml"/>
    </input>

    <output>
        <write-license value="true"/>
        <tripinfo-output value="tripinfos.xml"/>
        <railsignal-block-output value="railsignal_blocks.xml"/>
    </output>

    <processing>
        <time-to-teleport.railsignal-deadlock value="200"/>
        <default.speeddev value="0"/>
    </processing>

    <report>
        <xml-validation value="never"/>
        <duration-log.disable value="true"/>
        <no-step-log value="true"/>
    </report>

    <mesoscopic>
        <mesosim value="true"/>
        <meso-junction-control value="true"/>
    </mesoscopic>

</sumoConfiguration>
-->

<railsignal-block-output>
    <railSignal id="A">
        <link linkIndex="0" from="a_0" to="b_0">
            <driveWay id="A.0" vehicle="t3" edges="b c d e f g">
                <forward lanes="b_0 c_0"/>
                <bidi lanes="-b_0 -c_0 -d_0 -e_0"
                    deadlockCheck="-f_0 -g_0"/>
                <flank lanes=""/>
                <conflictLinks signals="F_0 J3_0"/>
                <foes driveWays="A.0 G.d0 J3.0.2"/>
                <sidings foe="G.d0">
                    <siding start="c" end="c" length="194.64"/>
                    <siding start="c" end="d" length="294.64"/>
                </sidings>
            </driveWay>
            <subDriveWay id="A.0.0" vehicle="" edges="b">
                <forward lanes="b_0"/>
            </subDriveWay>
        </link>
    </railSignal>
    <railSignal id="C">
        <link linkIndex="0" from="c_0" to="d_0">
            <driveWay id="C.0" vehicle="t3" edges="d e f g">
                <forward lanes="d_0"/>
                <bidi lanes="-d_0 -e_0"
                    deadlockCheck="-f_0 -g_0"/>
                <flank lanes=""/>
                <conflictLinks signals=""/>
                <foes driveWays="C.0"/>
            </driveWay>
        </link>
    </railSignal>
    <railSignal id="D">
        <link linkIndex="0" from="d_0" to="e_0">
            <driveWay id="D.0" vehicle="t3" edges="e f g">
                <forward lanes="e_0 f_0 g_0"/>
                <bidi lanes="-e_0 -f_0 -g_0"/>
                <flank lanes=""/>
                <conflictLinks signals=""/>
                <foes driveWays="D.0 F.0.0 G.d0"/>
            </driveWay>
            <subDriveWay id="D.0.0" vehicle="" edges="e f">
                <forward lanes="e_0 f_0"/>
            </subDriveWay>
        </link>
    </railSignal>
    <railSignal id="F">
        <link linkIndex="0" from="-g_0" to="-f_0">
            <driveWay id="F.0" vehicle="t2" edges="-f -e2 -d2.0 -d2 -d20 -c2 -b -a -E1">
                <forward lanes="-f_0 -e2_0 -d2.0_0"/>
                <bidi lanes="f_0 e2_0 d20_0 d2.100_0 d2_0 c2_0"
                    deadlockCheck="b_0 a_0 E1_0"/>
                <flank lanes=""/>
                <conflictLinks signals="A_0 D_0 J0_0"/>
                <foes driveWays="D.0.0 F.0 J0.0 J5.d0"/>
                <sidings foe="J0.0">
                    <siding start="-e2" end="-d2.0" length="234.74"/>
                    <siding start="-e2" end="-d2" length="334.74"/>
                </sidings>
                <sidings foe="J5.d0">
                    <siding start="-e2" end="-d2.0" length="234.74"/>
                    <siding start="-e2" end="-d2" length="334.74"/>
                </sidings>
            </driveWay>
            <subDriveWay id="F.0.0" vehicle="" edges="-f">
                <forward lanes="-f_0"/>
            </subDriveWay>
        </link>
    </railSignal>
    <railSignal id="J0">
        <link linkIndex="0" from="E1_0" to="a_0">
            <driveWay id="J0.0" vehicle="t3" edges="a b c d e f g">
                <forward lanes="a_0"/>
                <bidi lanes="-a_0 -b_0 -c_0 -d_0 -e_0"
                    deadlockCheck="-f_0 -g_0"/>
                <flank lanes=""/>
                <conflictLinks signals="F_0 J3_0"/>
                <foes driveWays="G.d0 J0.0 J3.0.1"/>
                <sidings foe="G.d0">
                    <siding start="c" end="c" length="194.64"/>
                    <siding start="c" end="d" length="294.64"/>
                </sidings>
            </driveWay>
        </link>
    </railSignal>
    <railSignal id="J3">
        <link linkIndex="0" from="-d2_0" to="-d20_0">
            <driveWay id="J3.0" vehicle="t2" edges="-d20 -c2 -b -a -E1">
                <forward lanes="-d20_0 -c2_0 -b_0 -a_0 -E1_0"/>
                <bidi lanes="d2_0 c2_0 b_0 a_0 E1_0"/>
                <flank lanes=""/>
                <conflictLinks signals=""/>
                <foes driveWays="A.0.0 J0.0 J3.0 J3.1.0 J5.d0"/>
            </driveWay>
            <subDriveWay id="J3.0.0" vehicle="" edges="-d20">
                <forward lanes="-d20_0"/>
            </subDriveWay>
            <subDriveWay id="J3.0.1" vehicle="" edges="-d20 -c2 -b -a">
                <forward lanes="-d20_0 -c2_0 -b_0 -a_0"/>
            </subDriveWay>
            <subDriveWay id="J3.0.2" vehicle="" edges="-d20 -c2 -b">
                <forward lanes="-d20_0 -c2_0 -b_0"/>
            </subDriveWay>
            <driveWay id="J3.1" vehicle="t0" edges="-d20 -E2">
                <forward lanes="-d20_0 -E2_0"/>
                <bidi lanes="d2_0 E2_0"/>
                <flank lanes=""/>
                <conflictLinks signals=""/>
                <foes driveWays="J3.0.0 J3.1"/>
            </driveWay>
            <subDriveWay id="J3.1.0" vehicle="" edges="-d20">
                <forward lanes="-d20_0"/>
            </subDriveWay>
        </link>
    </railSignal>
    <railSignal id="J6">
        <link linkIndex="0" from="-d2.0_0" to="-d2_0">
            <driveWay id="J6.0" vehicle="t2" edges="-d2 -d20 -c2 -b -a -E1">
                <forward lanes="-d2_0"/>
                <bidi lanes="d2.100_0 d2_0 c2_0"
                    deadlockCheck="b_0 a_0 E1_0"/>
                <flank lanes=""/>
                <conflictLinks signals=""/>
                <foes driveWays="J6.0 J6.1"/>
            </driveWay>
            <driveWay id="J6.1" vehicle="t0" edges="-d2 -d20 -E2">
                <forward lanes="-d2_0"/>
                <bidi lanes="d2.100_0 d2_0 E2_0"/>
                <flank lanes=""/>
                <conflictLinks signals=""/>
                <foes driveWays="J6.0 J6.1"/>
            </driveWay>
        </link>
    </railSignal>
    <departJunction id="G">
        <driveWay id="G.d0" vehicle="t2" edges="-g -f -e2 -d2.0 -d2 -d20 -c2 -b -a -E1">
            <forward lanes="-g_0"/>
            <bidi lanes="g_0 f_0 e2_0 d20_0 d2.100_0 d2_0 c2_0"
                    deadlockCheck="b_0 a_0 E1_0"/>
            <flank lanes=""/>
            <conflictLinks signals="A_0 D_0 J0_0"/>
            <foes driveWays="D.0 G.d0 J0.0 J5.d0"/>
            <sidings foe="J0.0">
                <siding start="-e2" end="-d2.0" length="234.74"/>
                <siding start="-e2" end="-d2" length="334.74"/>
            </sidings>
            <sidings foe="J5.d0">
                <siding start="-e2" end="-d2.0" length="234.74"/>
                <siding start="-e2" end="-d2" length="334.74"/>
            </sidings>
        </driveWay>
    </departJunction>
    <departJunction id="J5">
        <driveWay id="J5.d0" vehicle="t3" edges="E1 a b c d e f g">
            <forward lanes="E1_0"/>
            <bidi lanes="-E1_0 -a_0 -b_0 -c_0 -d_0 -e_0"
                    deadlockCheck="-f_0 -g_0"/>
            <flank lanes=""/>
            <conflictLinks signals="F_0 J3_0"/>
            <foes driveWays="G.d0 J3.0 J5.d0"/>
            <sidings foe="G.d0">
                <siding start="c" end="c" length="194.64"/>
                <siding start="c" end="d" length="294.64"/>
            </sidings>
        </driveWay>
    </departJunction>
</railsignal-block-output>
