<?xml version="1.0" encoding="UTF-8"?>

<!-- generated on 2023-01-25 08:45:18 by Eclipse SUMO netconvert Version v1_15_0+1914-84100d0141c
This data file and the accompanying materials
are made available under the terms of the Eclipse Public License v2.0
which accompanies this distribution, and is available at
http://www.eclipse.org/legal/epl-v20.html
This file may also be made available under the following Secondary
Licenses when the conditions for such availability set forth in the Eclipse
Public License 2.0 are satisfied: GNU General Public License, version 2
or later which is available at
https://www.gnu.org/licenses/old-licenses/gpl-2.0-standalone.html
SPDX-License-Identifier: EPL-2.0 OR GPL-2.0-or-later
<configuration xmlns:xsi="http://www.w3.org/2001/XMLSchema-instance" xsi:noNamespaceSchemaLocation="http://sumo.dlr.de/xsd/netconvertConfiguration.xsd">

    <input>
        <type-files value="${SUMO_HOME}/data/typemap/osmNetconvert.typ.xml,${SUMO_HOME}/data/typemap/osmNetconvertUrbanDe.typ.xml,${SUMO_HOME}/data/typemap/osmNetconvertPedestrians.typ.xml"/>
        <osm-files value="osm.xml.gz"/>
    </input>

    <output>
        <write-license value="true"/>
        <output.street-names value="true"/>
        <output.original-names value="true"/>
    </output>

    <projection>
        <proj.utm value="true"/>
    </projection>

    <processing>
        <geometry.remove value="true"/>
        <roundabouts.guess value="true"/>
    </processing>

    <tls_building>
        <tls.discard-simple value="true"/>
        <tls.join value="true"/>
        <tls.guess-signals value="true"/>
        <tls.default-type value="actuated"/>
    </tls_building>

    <ramp_guessing>
        <ramps.guess value="true"/>
    </ramp_guessing>

    <junctions>
        <junctions.join value="true"/>
        <junctions.corner-detail value="5"/>
    </junctions>

    <pedestrian>
        <crossings.guess value="true"/>
    </pedestrian>

    <formats>
        <osm.bike-access value="true"/>
        <osm.sidewalks value="true"/>
    </formats>

    <report>
        <verbose value="true"/>
        <xml-validation value="never"/>
    </report>

</configuration>
-->

<net version="1.16" junctionCornerDetail="5" walkingareas="true" limitTurnSpeed="5.50" xmlns:xsi="http://www.w3.org/2001/XMLSchema-instance" xsi:noNamespaceSchemaLocation="http://sumo.dlr.de/xsd/net_file.xsd">

    <location netOffset="-403109.10,-5812345.94" convBoundary="0.00,0.00,354.46,642.70" origBoundary="13.574171,52.452694,13.579200,52.458530" projParameter="+proj=utm +zone=33 +ellps=WGS84 +datum=WGS84 +units=m +no_defs"/>

    <type id="highway.bridleway" priority="1" numLanes="1" speed="2.78" allow="pedestrian" oneway="1" width="2.00"/>
    <type id="highway.bus_guideway" priority="1" numLanes="1" speed="13.89" allow="bus" oneway="1"/>
    <type id="highway.cycleway" priority="1" numLanes="1" speed="5.56" allow="bicycle" oneway="0" width="1.00"/>
    <type id="highway.footway" priority="1" numLanes="1" speed="2.78" allow="pedestrian" oneway="1" width="2.00"/>
    <type id="highway.ford" priority="1" numLanes="1" speed="2.78" allow="army" oneway="0"/>
    <type id="highway.living_street" priority="2" numLanes="1" speed="2.78" disallow="tram rail_urban rail rail_electric rail_fast ship" oneway="0"/>
    <type id="highway.motorway" priority="14" numLanes="2" speed="27.78" allow="private emergency authority army vip passenger hov taxi bus coach delivery truck trailer motorcycle evehicle custom1 custom2" oneway="1"/>
    <type id="highway.motorway_link" priority="9" numLanes="1" speed="16.67" allow="private emergency authority army vip passenger hov taxi bus coach delivery truck trailer motorcycle evehicle custom1 custom2" oneway="1"/>
    <type id="highway.path" priority="1" numLanes="1" speed="5.56" allow="pedestrian bicycle" oneway="0" width="2.00"/>
    <type id="highway.pedestrian" priority="1" numLanes="1" speed="2.78" allow="pedestrian" oneway="1" width="2.00"/>
    <type id="highway.primary" priority="12" numLanes="2" speed="13.89" disallow="pedestrian tram rail_urban rail rail_electric rail_fast ship" oneway="0" sidewalkWidth="3.00"/>
    <type id="highway.primary_link" priority="7" numLanes="1" speed="13.89" disallow="pedestrian tram rail_urban rail rail_electric rail_fast ship" oneway="0" sidewalkWidth="3.00"/>
    <type id="highway.raceway" priority="15" numLanes="2" speed="83.33" allow="vip" oneway="0"/>
    <type id="highway.residential" priority="3" numLanes="1" speed="13.89" disallow="pedestrian tram rail_urban rail rail_electric rail_fast ship" oneway="0" sidewalkWidth="2.00"/>
    <type id="highway.secondary" priority="11" numLanes="1" speed="13.89" disallow="pedestrian tram rail_urban rail rail_electric rail_fast ship" oneway="0" sidewalkWidth="3.00"/>
    <type id="highway.secondary_link" priority="6" numLanes="1" speed="13.89" disallow="pedestrian tram rail_urban rail rail_electric rail_fast ship" oneway="0" sidewalkWidth="3.00"/>
    <type id="highway.service" priority="1" numLanes="1" speed="5.56" allow="pedestrian delivery bicycle" oneway="0"/>
    <type id="highway.stairs" priority="1" numLanes="1" speed="1.39" allow="pedestrian" oneway="1" width="2.00"/>
    <type id="highway.step" priority="1" numLanes="1" speed="1.39" allow="pedestrian" oneway="1" width="2.00"/>
    <type id="highway.steps" priority="1" numLanes="1" speed="1.39" allow="pedestrian" oneway="1" width="2.00"/>
    <type id="highway.tertiary" priority="10" numLanes="1" speed="13.89" disallow="pedestrian tram rail_urban rail rail_electric rail_fast ship" oneway="0" sidewalkWidth="3.00"/>
    <type id="highway.tertiary_link" priority="5" numLanes="1" speed="13.89" disallow="pedestrian tram rail_urban rail rail_electric rail_fast ship" oneway="0" sidewalkWidth="2.00"/>
    <type id="highway.track" priority="1" numLanes="1" speed="5.56" allow="pedestrian motorcycle moped bicycle" oneway="0"/>
    <type id="highway.trunk" priority="13" numLanes="2" speed="13.89" disallow="pedestrian bicycle tram rail_urban rail rail_electric rail_fast ship" oneway="0"/>
    <type id="highway.trunk_link" priority="8" numLanes="1" speed="13.89" disallow="pedestrian bicycle tram rail_urban rail rail_electric rail_fast ship" oneway="0"/>
    <type id="highway.unclassified" priority="4" numLanes="1" speed="13.89" disallow="pedestrian tram rail_urban rail rail_electric rail_fast ship" oneway="0" sidewalkWidth="2.00"/>
    <type id="highway.unsurfaced" priority="1" numLanes="1" speed="8.33" disallow="tram rail_urban rail rail_electric rail_fast ship" oneway="0"/>
    <type id="railway.highspeed" priority="21" numLanes="1" speed="69.44" allow="rail_fast" oneway="1"/>
    <type id="railway.light_rail" priority="19" numLanes="1" speed="27.78" allow="rail_urban" oneway="1"/>
    <type id="railway.preserved" priority="16" numLanes="1" speed="27.78" allow="rail" oneway="1"/>
    <type id="railway.rail" priority="20" numLanes="1" speed="44.44" allow="rail" oneway="1"/>
    <type id="railway.subway" priority="18" numLanes="1" speed="27.78" allow="rail_urban" oneway="1"/>
    <type id="railway.tram" priority="17" numLanes="1" speed="13.89" allow="tram" oneway="1"/>

    <edge id=":10213971212_0" function="internal">
        <lane id=":10213971212_0_0" index="0" disallow="pedestrian tram rail_urban rail rail_electric rail_fast ship" speed="3.65" length="4.67" shape="152.35,497.04 151.86,498.40 151.18,498.97 150.31,498.78 149.25,497.80"/>
    </edge>
    <edge id=":10213971212_w0" function="walkingarea">
        <lane id=":10213971212_w0_0" index="0" allow="pedestrian" speed="2.78" length="8.40" width="2.00" shape="147.69,498.18 145.75,498.65 155.85,496.19 153.91,496.66"/>
    </edge>
    <edge id=":2916141761_0" function="internal">
        <lane id=":2916141761_0_0" index="0" disallow="pedestrian tram rail_urban rail rail_electric rail_fast ship" speed="3.65" length="4.67" shape="5.35,251.23 4.15,250.44 3.74,249.64 4.13,248.84 5.33,248.03"/>
    </edge>
    <edge id=":2916141761_w0" function="walkingarea">
        <lane id=":2916141761_w0_0" index="0" allow="pedestrian" speed="2.78" length="8.40" width="2.00" shape="5.32,246.43 5.30,244.43 5.38,254.83 5.36,252.83"/>
    </edge>
    <edge id=":31492399_0" function="internal">
        <lane id=":31492399_0_0" index="0" disallow="pedestrian bicycle tram rail_urban rail rail_electric rail_fast ship" speed="3.65" length="4.67" shape="207.95,337.28 207.71,338.70 207.14,339.40 206.25,339.36 205.03,338.59"/>
    </edge>
    <edge id=":31524357_0" function="internal">
        <lane id=":31524357_0_0" index="0" disallow="pedestrian tram rail_urban rail rail_electric rail_fast ship" speed="3.65" length="4.67" shape="282.70,169.91 284.12,169.65 284.97,169.96 285.23,170.81 284.92,172.22"/>
    </edge>
    <edge id=":31524357_w0" function="walkingarea">
        <lane id=":31524357_w0_0" index="0" allow="pedestrian" speed="2.78" length="8.40" width="2.00" shape="286.02,173.37 287.41,174.82 280.21,167.31 281.60,168.75"/>
    </edge>
    <edge id=":72859927_0" function="internal">
        <lane id=":72859927_0_0" index="0" disallow="pedestrian tram rail_urban rail rail_electric rail_fast ship" speed="6.99" length="9.67" shape="62.65,241.39 61.16,238.95 59.39,237.45 57.34,236.88 55.00,237.25"/>
    </edge>
    <edge id=":72859927_1" function="internal">
        <lane id=":72859927_1_0" index="0" disallow="pedestrian tram rail_urban rail rail_electric rail_fast ship" speed="7.90" length="15.02" shape="62.65,241.39 61.44,237.38 61.89,234.08 63.98,231.50 67.72,229.62"/>
    </edge>
    <edge id=":72859927_2" function="internal">
        <lane id=":72859927_2_0" index="0" disallow="pedestrian tram rail_urban rail rail_electric rail_fast ship" speed="3.65" length="4.67" shape="62.65,241.39 62.87,239.96 63.43,239.26 64.32,239.29 65.55,240.04"/>
    </edge>
    <edge id=":72859927_3" function="internal">
        <lane id=":72859927_3_0" index="0" disallow="pedestrian tram rail_urban rail rail_electric rail_fast ship" speed="6.39" length="9.42" shape="68.73,232.66 66.39,233.84 65.07,235.46 64.80,237.53 65.55,240.04"/>
    </edge>
    <edge id=":72859927_4" function="internal">
        <lane id=":72859927_4_0" index="0" disallow="pedestrian tram rail_urban rail rail_electric rail_fast ship" speed="8.33" length="14.48" shape="68.73,232.66 55.00,237.25"/>
    </edge>
    <edge id=":72859927_5" function="internal">
        <lane id=":72859927_5_0" index="0" disallow="pedestrian tram rail_urban rail rail_electric rail_fast ship" speed="3.65" length="4.67" shape="68.73,232.66 67.34,232.28 66.71,231.65 66.84,230.76 67.72,229.62"/>
    </edge>
    <edge id=":72859927_6" function="internal">
        <lane id=":72859927_6_0" index="0" disallow="pedestrian tram rail_urban rail rail_electric rail_fast ship" speed="8.33" length="14.49" shape="53.98,234.21 67.72,229.62"/>
    </edge>
    <edge id=":72859927_7" function="internal">
        <lane id=":72859927_7_0" index="0" disallow="pedestrian tram rail_urban rail rail_electric rail_fast ship" speed="8.33" length="14.42" shape="53.98,234.21 57.58,233.61 60.71,234.38 63.36,236.53 65.55,240.04"/>
    </edge>
    <edge id=":72859927_8" function="internal">
        <lane id=":72859927_8_0" index="0" disallow="pedestrian tram rail_urban rail rail_electric rail_fast ship" speed="3.65" length="4.67" shape="53.98,234.21 55.38,234.59 56.01,235.22 55.89,236.11 55.00,237.25"/>
    </edge>
    <edge id=":72859927_c0" function="crossing" crossingEdges="9485797 -9485797">
        <lane id=":72859927_c0_0" index="0" allow="pedestrian" speed="2.78" length="6.40" width="4.00" shape="66.16,237.55 60.36,240.25"/>
    </edge>
    <edge id=":72859927_c1" function="crossing" crossingEdges="9485559#1 -9485559#1">
        <lane id=":72859927_c1_0" index="0" allow="pedestrian" speed="2.78" length="6.40" width="4.00" shape="65.32,228.74 67.34,234.81"/>
    </edge>
    <edge id=":72859927_c2" function="crossing" crossingEdges="-9485559#0 9485559#0">
        <lane id=":72859927_c2_0" index="0" allow="pedestrian" speed="2.78" length="6.40" width="4.00" shape="57.41,238.13 55.37,232.06"/>
    </edge>
    <edge id=":72859927_w0" function="walkingarea">
        <lane id=":72859927_w0_0" index="0" allow="pedestrian" speed="2.78" length="3.86" width="4.00" shape="55.51,238.76 56.15,240.66 59.39,242.91 61.20,242.06 60.46,240.72 59.64,239.70 58.73,238.99 57.74,238.60 56.67,238.52"/>
    </edge>
    <edge id=":72859927_w1" function="walkingarea">
        <lane id=":72859927_w1_0" index="0" allow="pedestrian" speed="2.78" length="3.33" width="4.00" shape="67.00,239.36 68.82,238.52 69.87,236.08 69.24,234.18 68.06,234.69 67.20,235.35 66.67,236.14 66.46,237.08 66.57,238.15"/>
    </edge>
    <edge id=":72859927_w2" function="walkingarea">
        <lane id=":72859927_w2_0" index="0" allow="pedestrian" speed="2.78" length="9.09" width="4.00" shape="63.42,229.37 67.22,228.11 66.59,226.21 52.84,230.80 53.47,232.70 57.27,231.42"/>
    </edge>
    <edge id=":75042985_0" function="internal">
        <lane id=":75042985_0_0" index="0" disallow="pedestrian tram rail_urban rail rail_electric rail_fast ship" speed="6.27" length="2.57" shape="88.41,126.56 86.81,124.72 86.70,124.65"/>
    </edge>
    <edge id=":75042985_1" function="internal">
        <lane id=":75042985_1_0" index="0" disallow="pedestrian tram rail_urban rail rail_electric rail_fast ship" speed="13.89" length="14.46" shape="88.41,126.56 80.01,114.79"/>
    </edge>
    <edge id=":75042985_2" function="internal">
        <lane id=":75042985_2_0" index="0" disallow="pedestrian bicycle tram rail_urban rail rail_electric rail_fast ship" speed="3.65" length="1.44" shape="88.41,126.56 88.38,125.12"/>
    </edge>
    <edge id=":75042985_11" function="internal">
        <lane id=":75042985_11_0" index="0" disallow="pedestrian tram rail_urban rail rail_electric rail_fast ship" speed="6.27" length="5.36" shape="86.70,124.65 85.17,123.71 83.48,123.53 81.74,124.19"/>
    </edge>
    <edge id=":75042985_12" function="internal">
        <lane id=":75042985_12_0" index="0" disallow="pedestrian bicycle tram rail_urban rail rail_electric rail_fast ship" speed="3.65" length="3.23" shape="88.38,125.12 88.81,124.34 89.70,124.21 91.04,124.73"/>
    </edge>
    <edge id=":75042985_3" function="internal">
        <lane id=":75042985_3_0" index="0" allow="bicycle" speed="13.89" length="14.56" width="1.00" shape="84.29,111.66 92.76,123.54"/>
        <lane id=":75042985_3_1" index="1" disallow="pedestrian bicycle tram rail_urban rail rail_electric rail_fast ship" speed="13.89" length="14.56" shape="82.60,112.90 91.04,124.73"/>
    </edge>
    <edge id=":75042985_5" function="internal">
        <lane id=":75042985_5_0" index="0" disallow="pedestrian bicycle tram rail_urban rail rail_electric rail_fast ship" speed="7.50" length="4.57" shape="82.60,112.90 84.58,116.40 84.67,116.93"/>
    </edge>
    <edge id=":75042985_6" function="internal">
        <lane id=":75042985_6_0" index="0" disallow="pedestrian bicycle tram rail_urban rail rail_electric rail_fast ship" speed="3.65" length="1.44" shape="82.60,112.90 82.66,114.34"/>
    </edge>
    <edge id=":75042985_13" function="internal">
        <lane id=":75042985_13_0" index="0" disallow="pedestrian bicycle tram rail_urban rail rail_electric rail_fast ship" speed="7.50" length="8.55" shape="84.67,116.93 85.10,119.45 84.15,122.04 81.74,124.19"/>
    </edge>
    <edge id=":75042985_14" function="internal">
        <lane id=":75042985_14_0" index="0" disallow="pedestrian bicycle tram rail_urban rail rail_electric rail_fast ship" speed="3.65" length="3.23" shape="82.66,114.34 82.25,115.14 81.37,115.29 80.01,114.79"/>
    </edge>
    <edge id=":75042985_7" function="internal">
        <lane id=":75042985_7_0" index="0" disallow="pedestrian tram rail_urban rail rail_electric rail_fast ship" speed="5.89" length="7.66" shape="80.07,121.46 81.31,120.28 81.72,118.78 81.29,116.94 80.01,114.79"/>
    </edge>
    <edge id=":75042985_8" function="internal">
        <lane id=":75042985_8_0" index="0" allow="bicycle" speed="8.03" length="13.65" width="1.00" shape="80.64,122.40 84.38,120.65 87.65,120.26 90.44,121.22 92.76,123.54"/>
        <lane id=":75042985_8_1" index="1" disallow="pedestrian bicycle tram rail_urban rail rail_electric rail_fast ship" speed="7.81" length="12.86" shape="80.07,121.46 83.04,120.27 85.86,120.42 88.53,121.91 91.04,124.73"/>
    </edge>
    <edge id=":75042985_10" function="internal">
        <lane id=":75042985_10_0" index="0" disallow="pedestrian tram rail_urban rail rail_electric rail_fast ship" speed="3.65" length="4.67" shape="80.07,121.46 81.51,121.52 82.27,121.99 82.34,122.88 81.74,124.19"/>
    </edge>
    <edge id=":75042985_c0" function="crossing" crossingEdges="1037060789 -1037060789">
        <lane id=":75042985_c0_0" index="0" allow="pedestrian" speed="2.78" length="7.40" width="4.00" shape="92.03,121.61 85.96,125.83"/>
    </edge>
    <edge id=":75042985_c1" function="crossing" crossingEdges="-79523623 79523623">
        <lane id=":75042985_c1_0" index="0" allow="pedestrian" speed="2.78" length="7.40" width="4.00" shape="79.90,117.35 85.88,112.98"/>
    </edge>
    <edge id=":75042985_c2" function="crossing" crossingEdges="934761745 -934761745">
        <lane id=":75042985_c2_0" index="0" allow="pedestrian" speed="2.78" length="6.40" width="4.00" shape="84.28,124.52 80.94,119.05"/>
    </edge>
    <edge id=":75042985_w0" function="walkingarea">
        <lane id=":75042985_w0_0" index="0" allow="pedestrian" speed="2.78" length="9.27" width="4.00" shape="90.89,119.97 93.17,123.25 95.63,121.54 87.12,109.60 84.70,111.37 87.05,114.60"/>
    </edge>
    <edge id=":75042985_w1" function="walkingarea">
        <lane id=":75042985_w1_0" index="0" allow="pedestrian" speed="2.78" length="2.16" width="4.00" shape="78.72,115.73 78.19,118.39 79.23,120.10 79.73,119.66 80.00,119.11 80.03,118.44 79.83,117.65 79.39,116.75"/>
    </edge>
    <edge id=":75042985_w2" function="walkingarea">
        <lane id=":75042985_w2_0" index="0" allow="pedestrian" speed="2.78" length="2.43" width="4.00" shape="82.57,125.56 83.61,127.27 87.10,127.48 86.34,126.51 85.58,125.80 84.82,125.35 84.07,125.16 83.32,125.23"/>
    </edge>
    <edge id=":75044603_0" function="internal">
        <lane id=":75044603_0_0" index="0" disallow="pedestrian tram rail_urban rail rail_electric rail_fast ship" speed="3.65" length="4.67" shape="4.37,158.54 2.95,158.29 2.27,157.72 2.31,156.82 3.09,155.61"/>
    </edge>
    <edge id=":75044603_w0" function="walkingarea">
        <lane id=":75044603_w0_0" index="0" allow="pedestrian" speed="2.78" length="8.40" width="2.00" shape="2.45,154.14 1.65,152.31 5.82,161.84 5.01,160.01"/>
    </edge>
    <edge id=":8453482059_0" function="internal">
        <lane id=":8453482059_0_0" index="0" allow="bicycle" speed="6.43" length="8.21" width="1.00" shape="82.43,129.77 81.14,128.49 79.47,127.91 77.41,128.03 74.97,128.83"/>
    </edge>
    <edge id=":8453482059_1" function="internal">
        <lane id=":8453482059_1_0" index="0" allow="bicycle" speed="5.56" length="14.07" width="1.00" shape="82.43,129.77 74.28,118.30"/>
    </edge>
    <edge id=":8453482059_2" function="internal">
        <lane id=":8453482059_2_0" index="0" allow="bicycle" speed="6.52" length="10.13" width="1.00" shape="82.43,129.77 80.25,126.27 78.98,123.60 78.62,121.75 79.17,120.72"/>
    </edge>
    <edge id=":8453482059_3" function="internal">
        <lane id=":8453482059_3_0" index="0" disallow="pedestrian tram rail_urban rail rail_electric rail_fast ship" speed="8.33" length="7.70" shape="81.41,124.39 79.45,125.56 78.06,126.28 76.63,126.92 74.53,127.83"/>
    </edge>
    <edge id=":8453482059_4" function="internal">
        <lane id=":8453482059_4_0" index="0" allow="bicycle" speed="6.64" length="2.23" width="1.00" shape="80.84,123.45 79.73,123.56 78.76,123.01"/>
    </edge>
    <edge id=":8453482059_7" function="internal">
        <lane id=":8453482059_7_0" index="0" allow="bicycle" speed="6.64" length="6.54" width="1.00" shape="78.76,123.01 78.26,122.73 76.45,120.98 74.28,118.30"/>
    </edge>
    <edge id=":8453482059_5" function="internal">
        <lane id=":8453482059_5_0" index="0" allow="bicycle" speed="5.43" length="7.00" width="1.00" shape="72.80,123.89 74.49,122.84 75.30,121.56 75.23,120.05 74.28,118.30"/>
    </edge>
    <edge id=":8453482059_6" function="internal">
        <lane id=":8453482059_6_0" index="0" disallow="pedestrian tram rail_urban rail rail_electric rail_fast ship" speed="8.33" length="7.27" shape="73.25,124.90 75.23,124.04 76.58,123.44 77.89,122.76 79.74,121.66"/>
    </edge>
    <edge id=":8453482059_c0" function="crossing" crossingEdges="910439498#3">
        <lane id=":8453482059_c0_0" index="0" allow="pedestrian" speed="2.78" length="1.00" width="4.00" shape="81.73,127.83 80.90,128.39"/>
    </edge>
    <edge id=":8453482059_c1" function="crossing" crossingEdges="-934761745 934761745">
        <lane id=":8453482059_c1_0" index="0" allow="pedestrian" speed="2.78" length="6.40" width="4.00" shape="77.20,121.34 80.54,126.80"/>
    </edge>
    <edge id=":8453482059_c2" function="crossing" crossingEdges="934761747">
        <lane id=":8453482059_c2_0" index="0" allow="pedestrian" speed="2.78" length="1.00" width="4.00" shape="75.07,120.20 75.88,119.61"/>
    </edge>
    <edge id=":8453482059_c3" function="crossing" crossingEdges="9620794 -9620794">
        <lane id=":8453482059_c3_0" index="0" allow="pedestrian" speed="2.78" length="6.40" width="4.00" shape="77.01,128.49 74.43,122.63"/>
    </edge>
    <edge id=":8453482059_w0" function="walkingarea">
        <lane id=":8453482059_w0_0" index="0" allow="pedestrian" speed="2.78" length="4.05" width="4.00" shape="75.17,129.29 75.98,131.12 80.36,131.17 82.02,130.05 81.28,129.22 80.39,128.68 79.33,128.41 78.11,128.42 76.72,128.72"/>
    </edge>
    <edge id=":8453482059_w1" function="walkingarea">
        <lane id=":8453482059_w1_0" index="0" allow="pedestrian" speed="2.78" length="1.80" width="4.00" shape="82.85,129.49 83.29,127.46 82.24,125.76 81.88,126.09 81.71,126.54 81.72,127.10 81.91,127.78 82.29,128.58"/>
    </edge>
    <edge id=":8453482059_w2" function="walkingarea">
        <lane id=":8453482059_w2_0" index="0" allow="pedestrian" speed="2.78" length="2.31" width="4.00" shape="78.91,120.29 77.87,118.59 74.68,118.00 75.49,119.00 76.26,119.75 76.99,120.25 77.67,120.51 78.31,120.52"/>
    </edge>
    <edge id=":8453482059_w3" function="walkingarea">
        <lane id=":8453482059_w3_0" index="0" allow="pedestrian" speed="2.78" length="2.97" width="4.00" shape="73.88,118.60 72.28,119.80 71.80,121.60 72.60,123.43 73.66,122.85 74.38,122.18 74.76,121.42 74.80,120.57 74.51,119.63"/>
    </edge>
    <edge id=":928259421_0" function="internal">
        <lane id=":928259421_0_0" index="0" disallow="pedestrian bicycle tram rail_urban rail rail_electric rail_fast ship" speed="13.89" length="8.18" shape="69.67,100.63 67.88,99.01 66.12,98.50 64.33,98.01 62.44,96.46"/>
        <lane id=":928259421_0_1" index="1" disallow="pedestrian bicycle tram rail_urban rail rail_electric rail_fast ship" speed="13.89" length="8.18" shape="69.67,100.63 64.92,94.44"/>
    </edge>
    <edge id=":928259421_2" function="internal">
        <lane id=":928259421_2_0" index="0" allow="bicycle" speed="13.89" length="9.10" width="1.00" shape="71.87,88.79 72.84,91.23 72.82,93.21 72.85,95.15 73.96,97.51"/>
        <lane id=":928259421_2_1" index="1" disallow="pedestrian bicycle tram rail_urban rail rail_electric rail_fast ship" speed="13.89" length="9.10" shape="70.23,90.12 71.18,92.54 71.16,94.49 71.17,96.41 72.26,98.74"/>
    </edge>
    <edge id=":928259421_w0" function="walkingarea">
        <lane id=":928259421_w0_0" index="0" allow="pedestrian" speed="2.78" length="9.07" width="3.00" shape="74.36,97.21 76.78,95.44 75.88,93.80 75.60,92.41 75.65,91.14 75.72,89.85 75.50,88.42 74.70,86.71 72.17,88.32 73.10,90.22 73.31,91.64 73.24,92.92 73.19,94.19 73.46,95.58"/>
    </edge>
    <edge id=":cluster_72859928_8453482056_0" function="internal">
        <lane id=":cluster_72859928_8453482056_0_0" index="0" disallow="pedestrian tram rail_urban rail rail_electric rail_fast ship" speed="9.10" length="12.55" shape="147.37,213.19 145.33,210.94 142.12,209.92 137.72,210.12 136.04,210.56"/>
    </edge>
    <edge id=":cluster_72859928_8453482056_1" function="internal">
        <lane id=":cluster_72859928_8453482056_1_0" index="0" allow="bicycle" speed="9.72" length="18.34" width="1.00" shape="146.39,213.69 144.02,210.97 140.65,208.77 136.78,205.97 132.95,201.45"/>
    </edge>
    <edge id=":cluster_72859928_8453482056_2" function="internal">
        <lane id=":cluster_72859928_8453482056_2_0" index="0" disallow="pedestrian tram rail_urban rail rail_electric rail_fast ship" speed="13.89" length="17.65" shape="147.37,213.19 145.39,209.53 143.01,205.52 140.52,201.58 138.20,198.12"/>
    </edge>
    <edge id=":cluster_72859928_8453482056_3" function="internal">
        <lane id=":cluster_72859928_8453482056_3_0" index="0" disallow="pedestrian tram rail_urban rail rail_electric rail_fast ship" speed="8.05" length="4.60" shape="147.37,213.19 145.92,208.83"/>
    </edge>
    <edge id=":cluster_72859928_8453482056_4" function="internal">
        <lane id=":cluster_72859928_8453482056_4_0" index="0" disallow="pedestrian bicycle tram rail_urban rail rail_electric rail_fast ship" speed="3.65" length="1.44" shape="147.37,213.19 147.54,211.76"/>
    </edge>
    <edge id=":cluster_72859928_8453482056_29" function="internal">
        <lane id=":cluster_72859928_8453482056_29_0" index="0" disallow="pedestrian tram rail_urban rail rail_electric rail_fast ship" speed="9.10" length="4.01" shape="136.04,210.56 132.15,211.56"/>
    </edge>
    <edge id=":cluster_72859928_8453482056_30" function="internal">
        <lane id=":cluster_72859928_8453482056_30_0" index="0" disallow="pedestrian tram rail_urban rail rail_electric rail_fast ship" speed="8.05" length="12.56" shape="145.92,208.83 145.85,208.63 146.40,205.01 149.00,202.35 153.66,200.64"/>
    </edge>
    <edge id=":cluster_72859928_8453482056_31" function="internal">
        <lane id=":cluster_72859928_8453482056_31_0" index="0" disallow="pedestrian bicycle tram rail_urban rail rail_electric rail_fast ship" speed="3.65" length="3.23" shape="147.54,211.76 148.08,211.05 148.97,211.04 150.23,211.76"/>
    </edge>
    <edge id=":cluster_72859928_8453482056_5" function="internal">
        <lane id=":cluster_72859928_8453482056_5_0" index="0" allow="bicycle" speed="5.80" length="8.31" width="1.00" shape="155.13,204.72 152.88,205.55 151.62,206.84 151.36,208.59 152.10,210.81"/>
        <lane id=":cluster_72859928_8453482056_5_1" index="1" disallow="pedestrian bicycle tram rail_urban rail rail_electric rail_fast ship" speed="6.67" length="11.41" shape="154.90,203.65 151.64,204.80 149.78,206.53 149.31,208.85 150.23,211.76"/>
    </edge>
    <edge id=":cluster_72859928_8453482056_7" function="internal">
        <lane id=":cluster_72859928_8453482056_7_0" index="0" disallow="pedestrian tram rail_urban rail rail_electric rail_fast ship" speed="8.33" length="24.11" shape="154.90,203.65 148.55,205.33 143.42,207.21 138.34,209.29 132.15,211.56"/>
    </edge>
    <edge id=":cluster_72859928_8453482056_8" function="internal">
        <lane id=":cluster_72859928_8453482056_8_0" index="0" allow="bicycle" speed="6.95" length="22.61" width="1.00" shape="154.66,202.57 146.38,204.00 140.00,204.29 135.52,203.44 132.95,201.45"/>
    </edge>
    <edge id=":cluster_72859928_8453482056_9" function="internal">
        <lane id=":cluster_72859928_8453482056_9_0" index="0" disallow="pedestrian tram rail_urban rail rail_electric rail_fast ship" speed="10.82" length="18.73" shape="154.90,203.65 149.66,204.21 145.13,203.47 141.31,201.45 138.20,198.12"/>
    </edge>
    <edge id=":cluster_72859928_8453482056_10" function="internal">
        <lane id=":cluster_72859928_8453482056_10_0" index="0" disallow="pedestrian tram rail_urban rail rail_electric rail_fast ship" speed="3.67" length="4.75" shape="154.90,203.65 153.46,203.36 152.78,202.76 152.84,201.86 153.66,200.64"/>
    </edge>
    <edge id=":cluster_72859928_8453482056_11" function="internal">
        <lane id=":cluster_72859928_8453482056_11_0" index="0" allow="bicycle" speed="8.69" length="8.19" width="1.00" shape="142.68,195.28 144.85,197.71 147.36,199.23 149.32,199.65"/>
    </edge>
    <edge id=":cluster_72859928_8453482056_12" function="internal">
        <lane id=":cluster_72859928_8453482056_12_0" index="0" allow="bicycle" speed="13.89" length="18.19" width="1.00" shape="142.68,195.28 145.76,199.72 147.80,202.80 149.63,206.01 152.10,210.81"/>
    </edge>
    <edge id=":cluster_72859928_8453482056_13" function="internal">
        <lane id=":cluster_72859928_8453482056_13_0" index="0" allow="bicycle" speed="4.87" length="11.52" width="1.00" shape="142.68,195.28 132.95,201.45"/>
    </edge>
    <edge id=":cluster_72859928_8453482056_14" function="internal">
        <lane id=":cluster_72859928_8453482056_14_0" index="0" disallow="pedestrian bicycle tram rail_urban rail rail_electric rail_fast ship" speed="9.52" length="1.45" shape="140.90,196.41 141.90,197.47"/>
    </edge>
    <edge id=":cluster_72859928_8453482056_15" function="internal">
        <lane id=":cluster_72859928_8453482056_15_0" index="0" disallow="pedestrian bicycle tram rail_urban rail rail_electric rail_fast ship" speed="13.89" length="17.99" shape="140.90,196.41 143.95,200.79 145.97,203.84 147.78,207.01 150.23,211.76"/>
    </edge>
    <edge id=":cluster_72859928_8453482056_16" function="internal">
        <lane id=":cluster_72859928_8453482056_16_0" index="0" disallow="pedestrian bicycle tram rail_urban rail rail_electric rail_fast ship" speed="8.82" length="4.04" shape="140.90,196.41 142.52,200.11"/>
    </edge>
    <edge id=":cluster_72859928_8453482056_17" function="internal">