<?xml version="1.0"?>

<!-- generated on 07/11/08 13:18:59 by SUMO duarouter Version 0.9.7
<configuration>

   <input>
      <net-file>input_net.net.xml</net-file>
      <alternatives>input_alts.rou.xml.alt</alternatives>
   </input>

   <output>
      <output-file>routes.rou.xml</output-file>
   </output>

</configuration>
-->

<route-alternatives>
   <vehicle id="0" depart="0">
      <routealt last="0">
         <route cost="124.88" probability="1.00">beg middle end rend</route>
      </routealt>
   </vehicle>
   <vehicle id="1" depart="10">
      <routealt last="0">
         <route cost="124.88" probability="1.00">beg middle end rend</route>
      </routealt>
   </vehicle>
   <vehicle id="2" depart="20">
      <routealt last="0">
         <route cost="124.88" probability="1.00">beg middle end rend</route>
      </routealt>
   </vehicle>
   <vehicle id="3" depart="30">
      <routealt last="0">
         <route cost="124.88" probability="1.00">beg middle end rend</route>
      </routealt>
   </vehicle>
   <vehicle id="4" depart="40">
      <routealt last="0">
         <route cost="124.88" probability="1.00">beg middle end rend</route>
      </routealt>
   </vehicle>
   <vehicle id="5" depart="50">
      <routealt last="0">
         <route cost="124.88" probability="1.00">beg middle end rend</route>
      </routealt>
   </vehicle>
   <vehicle id="6" depart="60">
      <routealt last="0">
         <route cost="124.88" probability="1.00">beg middle end rend</route>
      </routealt>
   </vehicle>
   <vehicle id="7" depart="70">
      <routealt last="0">
         <route cost="124.88" probability="1.00">beg middle end rend</route>
      </routealt>
   </vehicle>
   <vehicle id="8" depart="80">
      <routealt last="0">
         <route cost="124.88" probability="1.00">beg middle end rend</route>
      </routealt>
   </vehicle>
   <vehicle id="9" depart="90">
      <routealt last="0">
         <route cost="124.88" probability="1.00">beg middle end rend</route>
      </routealt>
   </vehicle>
</route-alternatives>
