<?xml version="1.0" encoding="UTF-8"?>

<net version="0.13" xmlns:xsi="http://www.w3.org/2001/XMLSchema-instance" xsi:noNamespaceSchemaLocation="http://sumo.sf.net/xsd/net_file.xsd">

    <location netOffset="0.00,0.00" convBoundary="10000000000.00,10000000000.00,-10000000000.00,-10000000000.00" origBoundary="10000000000.00,10000000000.00,-10000000000.00,-10000000000.00" projParameter="!"/>

    <edge id=":gneJ1_0" function="internal">
        <lane id=":gneJ1_0_0" index="0" speed="13.89" length="5.05" shape="30.74,58.92 30.54,57.54 29.96,56.56 28.99,55.96 27.64,55.77"/>
    </edge>
    <edge id=":gneJ1_1" function="internal">
        <lane id=":gneJ1_1_0" index="0" speed="13.89" length="3.18" shape="34.04,58.91 34.48,55.77"/>
    </edge>
    <edge id=":gneJ1_8" function="internal">
        <lane id=":gneJ1_8_0" index="0" speed="13.89" length="12.52" shape="34.48,55.77 34.64,54.65 36.46,51.61 39.50,49.79 43.76,49.19"/>
    </edge>
    <edge id=":gneJ1_2" function="internal">
        <lane id=":gneJ1_2_0" index="0" speed="13.89" length="5.01" shape="43.74,55.79 42.38,55.98 41.41,56.56 40.83,57.53 40.64,58.89"/>
    </edge>
    <edge id=":gneJ1_3" function="internal">
        <lane id=":gneJ1_3_0" index="0" speed="13.89" length="16.10" shape="43.74,55.79 38.96,55.78 35.69,55.77 32.42,55.77 27.64,55.77"/>
    </edge>
    <edge id=":gneJ1_4" function="internal">
        <lane id=":gneJ1_4_0" index="0" speed="13.89" length="16.11" shape="43.75,52.49 38.97,52.48 35.69,52.47 32.42,52.47 27.64,52.47"/>
    </edge>
    <edge id=":gneJ1_5" function="internal">
        <lane id=":gneJ1_5_0" index="0" speed="13.89" length="16.13" shape="27.64,45.87 32.43,45.87 35.70,45.87 38.98,45.88 43.77,45.89"/>
    </edge>
    <edge id=":gneJ1_6" function="internal">
        <lane id=":gneJ1_6_0" index="0" speed="13.89" length="16.12" shape="27.64,49.17 32.42,49.17 35.70,49.17 38.97,49.18 43.76,49.19"/>
    </edge>
    <edge id=":gneJ1_7" function="internal">
        <lane id=":gneJ1_7_0" index="0" speed="13.89" length="8.83" shape="27.64,49.17 31.87,49.77 34.90,51.60 35.42,52.47"/>
    </edge>
    <edge id=":gneJ1_9" function="internal">
        <lane id=":gneJ1_9_0" index="0" speed="13.89" length="6.84" shape="35.42,52.47 36.72,54.64 37.34,58.90"/>
    </edge>

    <edge id="gneE0" from="gneJ0" to="gneJ1" priority="1">
        <lane id="gneE0_0" index="0" speed="13.89" length="78.69" shape="-51.05,45.87 27.64,45.87"/>
        <lane id="gneE0_1" index="1" speed="13.89" length="78.69" shape="-51.05,49.17 27.64,49.17"/>
    </edge>
    <edge id="gneE1" from="gneJ1" to="gneJ0" priority="1">
        <lane id="gneE1_0" index="0" speed="13.89" length="78.69" shape="27.64,55.77 -51.05,55.77"/>
        <lane id="gneE1_1" index="1" speed="13.89" length="78.69" shape="27.64,52.47 -51.05,52.47"/>
    </edge>
    <edge id="gneE2" from="gneJ2" to="gneJ1" priority="1">
        <lane id="gneE2_0" index="0" speed="13.89" length="25.24" shape="30.83,84.17 30.74,58.92"/>
        <lane id="gneE2_1" index="1" speed="13.89" length="25.24" shape="34.13,84.15 34.04,58.91"/>
    </edge>
    <edge id="gneE3" from="gneJ1" to="gneJ2" priority="1">
        <lane id="gneE3_0" index="0" speed="13.89" length="25.24" shape="40.64,58.89 40.73,84.13"/>
        <lane id="gneE3_1" index="1" speed="13.89" length="25.24" shape="37.34,58.90 37.43,84.14"/>
    </edge>
    <edge id="gneE4" from="gneJ3" to="gneJ1" priority="1">
        <lane id="gneE4_0" index="0" speed="13.89" length="73.49" shape="117.24,56.00 43.74,55.79"/>
        <lane id="gneE4_1" index="1" speed="13.89" length="73.49" shape="117.24,52.70 43.75,52.49"/>
    </edge>
    <edge id="gneE5" from="gneJ1" to="gneJ3" priority="1">
        <lane id="gneE5_0" index="0" speed="13.89" length="73.49" shape="43.77,45.89 117.26,46.10"/>
        <lane id="gneE5_1" index="1" speed="13.89" length="73.49" shape="43.76,49.19 117.25,49.40"/>
    </edge>

    <tlLogic id="gneJ1" type="static" programID="0" offset="0">
        <phase duration="31" state="rrGGGGGg"/>
        <phase duration="4" state="rryyyyyg"/>
        <phase duration="6" state="rrrrrrrG"/>
        <phase duration="4" state="rrrrrrry"/>
        <phase duration="31" state="GGGrrrrr"/>
        <phase duration="4" state="yyyrrrrr"/>
    </tlLogic>

    <junction id="gneJ0" type="dead_end" x="-51.05" y="50.82" incLanes="gneE1_0 gneE1_1" intLanes="" shape="-51.05,50.77 -51.05,44.27 -51.05,57.37 -51.05,50.87"/>
    <junction id="gneJ1" type="traffic_light" x="35.66" y="50.82" incLanes="gneE2_0 gneE2_1 gneE4_0 gneE4_1 gneE0_0 gneE0_1" intLanes=":gneJ1_0_0 :gneJ1_8_0 :gneJ1_2_0 :gneJ1_3_0 :gneJ1_4_0 :gneJ1_5_0 :gneJ1_6_0 :gneJ1_9_0" shape="29.14,58.93 42.24,58.88 43.74,57.39 43.77,44.29 27.64,44.27 27.64,57.37">
        <request index="0" response="00011000" foes="00011000" cont="0"/>
        <request index="1" response="11111000" foes="11111000" cont="1"/>
        <request index="2" response="00000000" foes="10000000" cont="0"/>
        <request index="3" response="00000000" foes="10000011" cont="0"/>
        <request index="4" response="00000000" foes="10000011" cont="0"/>
        <request index="5" response="00000000" foes="00000010" cont="0"/>
        <request index="6" response="00000000" foes="00000010" cont="0"/>
        <request index="7" response="00011100" foes="00011110" cont="1"/>
    </junction>
    <junction id="gneJ2" type="dead_end" x="35.78" y="84.15" incLanes="gneE3_0 gneE3_1" intLanes="" shape="35.73,84.15 29.23,84.17 42.33,84.13 35.83,84.15"/>
    <junction id="gneJ3" type="dead_end" x="117.25" y="51.05" incLanes="gneE5_0 gneE5_1" intLanes="" shape="117.25,51.10 117.23,57.60 117.27,44.50 117.25,51.00"/>

    <junction id=":gneJ1_8_0" type="internal" x="34.48" y="55.77" incLanes=":gneJ1_1_0 gneE0_0 gneE0_1 gneE0_0 gneE0_1" intLanes=":gneJ1_3_0 :gneJ1_4_0 :gneJ1_5_0 :gneJ1_6_0 :gneJ1_7_0"/>
    <junction id=":gneJ1_9_0" type="internal" x="35.42" y="52.47" incLanes=":gneJ1_7_0 gneE4_0 gneE4_1 gneE4_0 gneE4_1" intLanes=":gneJ1_1_0 :gneJ1_2_0 :gneJ1_3_0 :gneJ1_4_0"/>

    <connection from="gneE0" to="gneE5" fromLane="0" toLane="0" via=":gneJ1_5_0" tl="gneJ1" linkIndex="5" dir="s" state="o"/>
    <connection from="gneE0" to="gneE5" fromLane="1" toLane="1" via=":gneJ1_6_0" tl="gneJ1" linkIndex="6" dir="s" state="o"/>
    <connection from="gneE0" to="gneE3" fromLane="1" toLane="1" via=":gneJ1_7_0" tl="gneJ1" linkIndex="7" dir="l" state="o"/>
    <connection from="gneE2" to="gneE1" fromLane="0" toLane="0" via=":gneJ1_0_0" tl="gneJ1" linkIndex="0" dir="r" state="o"/>
    <connection from="gneE2" to="gneE5" fromLane="1" toLane="1" via=":gneJ1_1_0" tl="gneJ1" linkIndex="1" dir="l" state="o"/>
    <connection from="gneE4" to="gneE3" fromLane="0" toLane="0" via=":gneJ1_2_0" tl="gneJ1" linkIndex="2" dir="r" state="o"/>
    <connection from="gneE4" to="gneE1" fromLane="0" toLane="0" via=":gneJ1_3_0" tl="gneJ1" linkIndex="3" dir="s" state="o"/>
    <connection from="gneE4" to="gneE1" fromLane="1" toLane="1" via=":gneJ1_4_0" tl="gneJ1" linkIndex="4" dir="s" state="o"/>

    <connection from=":gneJ1_0" to="gneE1" fromLane="0" toLane="0" dir="s" state="M"/>
    <connection from=":gneJ1_1" to="gneE5" fromLane="0" toLane="1" via=":gneJ1_8_0" dir="s" state="M"/>
    <connection from=":gneJ1_8" to="gneE5" fromLane="0" toLane="1" dir="s" state="M"/>
    <connection from=":gneJ1_2" to="gneE3" fromLane="0" toLane="0" dir="s" state="M"/>
    <connection from=":gneJ1_3" to="gneE1" fromLane="0" toLane="0" dir="s" state="M"/>
    <connection from=":gneJ1_4" to="gneE1" fromLane="0" toLane="1" dir="s" state="M"/>
    <connection from=":gneJ1_5" to="gneE5" fromLane="0" toLane="0" dir="s" state="M"/>
    <connection from=":gneJ1_6" to="gneE5" fromLane="0" toLane="1" dir="s" state="M"/>
    <connection from=":gneJ1_7" to="gneE3" fromLane="0" toLane="1" via=":gneJ1_9_0" dir="s" state="M"/>
    <connection from=":gneJ1_9" to="gneE3" fromLane="0" toLane="1" dir="s" state="M"/>

</net>
