<?xml version="1.0" encoding="UTF-8"?>
<routes xmlns:xsi="http://www.w3.org/2001/XMLSchema-instance" xsi:noNamespaceSchemaLocation="http://sumo.dlr.de/xsd/routes_file.xsd">
	
	<vType id="DEFAULT_VEHTYPE" sigma="0">
	    <param key="parking.distance.weight" value="1"/>
    </vType>
	
    <route id="route1" edges="a b c">
		<stop index="1" parkingArea="ParkAreaA" duration="20"/>
    </route>

    <flow id="v" route="route1" begin="0" end="8" period="2"/>
	
	
</routes>
