<?xml version="1.0" encoding="UTF-8"?>

<!-- generated on Wed Apr 20 15:44:39 2016 by SUMO netconvert Version dev-SVN-r20491
<?xml version="1.0" encoding="UTF-8"?>

<configuration xmlns:xsi="http://www.w3.org/2001/XMLSchema-instance" xsi:noNamespaceSchemaLocation="http://sumo.dlr.de/xsd/netconvertConfiguration.xsd">

    <input>
        <node-files value="input_plain.nod.xml"/>
        <edge-files value="input_plain.edg.xml"/>
        <connection-files value="input_plain.con.xml"/>
    </input>

    <output>
        <output-file value="net.net.xml"/>
    </output>

    <processing>
        <no-internal-links value="true"/>
    </processing>

    <report>
        <xml-validation value="never"/>
    </report>

</configuration>
-->

<net version="0.27" xmlns:xsi="http://www.w3.org/2001/XMLSchema-instance" xsi:noNamespaceSchemaLocation="http://sumo.dlr.de/xsd/net_file.xsd">

    <location netOffset="0.00,100.00" convBoundary="0.00,0.00,100.00,200.00" origBoundary="-10000000000.00,-10000000000.00,10000000000.00,10000000000.00" projParameter="!"/>

    <edge id="CE" from="C" to="E" priority="2">
        <lane id="CE_0" index="0" speed="13.89" length="100.00" width="0.60" shape="2.85,98.95 100.00,98.95"/>
        <lane id="CE_1" index="1" speed="13.89" length="100.00" width="0.60" shape="2.85,99.65 100.00,99.65"/>
    </edge>
    <edge id="CN" from="C" to="N" priority="2">
        <lane id="CN_0" index="0" speed="13.89" length="100.00" width="0.60" shape="1.05,101.50 1.05,200.00"/>
        <lane id="CN_1" index="1" speed="13.89" length="100.00" width="0.60" shape="0.35,101.50 0.35,200.00"/>
    </edge>
    <edge id="SC" from="S" to="C" priority="2">
        <lane id="SC_0" index="0" speed="13.89" length="100.00" width="0.60" shape="1.05,0.00 1.05,97.15"/>
        <lane id="SC_1" index="1" speed="13.89" length="100.00" width="0.60" shape="0.35,0.00 0.35,97.15"/>
    </edge>

    <junction id="C" type="priority" x="0.00" y="100.00" incLanes="SC_0 SC_1" intLanes="" shape="0.05,101.50 1.35,101.50 2.85,99.95 2.85,98.65 1.35,97.15 0.05,97.15">
        <request index="0" response="0000" foes="0000"/>
        <request index="1" response="0000" foes="0000"/>
        <request index="2" response="0010" foes="0010"/>
        <request index="3" response="0000" foes="0000"/>
    </junction>
    <junction id="E" type="unregulated" x="100.00" y="100.00" incLanes="CE_0 CE_1" intLanes="" shape="100.00,98.65 100.00,99.95"/>
    <junction id="N" type="unregulated" x="0.00" y="200.00" incLanes="CN_0 CN_1" intLanes="" shape="1.35,200.00 0.05,200.00"/>
    <junction id="S" type="unregulated" x="0.00" y="0.00" incLanes="" intLanes="" shape="0.05,0.00 1.35,0.00"/>

    <connection from="SC" to="CE" fromLane="0" toLane="0" dir="r" state="M"/>
    <connection from="SC" to="CN" fromLane="0" toLane="0" dir="s" state="M"/>
    <connection from="SC" to="CE" fromLane="1" toLane="1" dir="r" state="m"/>
    <connection from="SC" to="CN" fromLane="1" toLane="1" dir="s" state="M"/>

</net>
