<?xml version="1.0" encoding="UTF-8"?>

<!-- generated on 2023-01-26 12:00:54 by Eclipse SUMO netedit Version v1_15_0+1963-12923ba0e0a
-->

<routes xmlns:xsi="http://www.w3.org/2001/XMLSchema-instance" xsi:noNamespaceSchemaLocation="http://sumo.dlr.de/xsd/routes_file.xsd">
    <!-- Vehicles, persons and containers (sorted by depart) -->
    <flow id="f_0" begin="0.00" from="gneE2" to="gneE5" end="26.00" vehsPerHour="1800.00"/>
</routes>
