<?xml version="1.0" encoding="UTF-8"?>
<!-- generated on 2022-02-21 13:47:49.903295 by routeSampler.py v1_12_0+0705-8766bb8ceab
<configuration>
    <prefix value="truck"/>
    <route-files value="input_routes.rou.xml"/>
    <turn-files value="input_turns.xml"/>
    <write-route-ids value="True"/>
</configuration>

-->
<routes xmlns:xsi="http://www.w3.org/2001/XMLSchema-instance" xsi:noNamespaceSchemaLocation="http://sumo.dlr.de/xsd/routes_file.xsd">
<!-- begin="0.0" end="99.0" -->
    <route id="truck1" edges="-109.80.00 -11 -11.80.00 3 3.180.00 27 27.80.00 -27 -27.80.00"/> <!-- 2 -->
    <route id="truck4" edges="-11.80.00 3 3.180.00 27 27.80.00 55 71"/> <!-- 1 -->
    <route id="truck5" edges="-120 -120.180.00 -64 -64.80.00 -31 -31.80.00 -23 -23.80.00 -11 -11.80.00 3 3.180.00 -71 -55 -55.80.00"/> <!-- 1 -->
    <route id="truck6" edges="-123 -123.121.42 131 131.180.00"/> <!-- 2 -->
    <route id="truck9" edges="-144 -144.121.42 -131 -131.180.00 131 131.180.00"/> <!-- 1 -->
    <route id="truck10" edges="-144 -144.121.42 152"/> <!-- 1 -->
    <route id="truck11" edges="-144.121.42 144 144.121.42 -15 -15.180.00 5"/> <!-- 1 -->
    <route id="truck12" edges="-148 -148.80.00 -131 -131.180.00 -109 -109.80.00 23 23.80.00 37 -58 -58.121.42"/> <!-- 1 -->
    <route id="truck13" edges="-148 -148.80.00 144 144.121.42 -15 -15.180.00 3 3.180.00 -3"/> <!-- 1 -->
    <route id="truck14" edges="-15 -15.180.00 15 15.180.00"/> <!-- 1 -->
    <route id="truck16" edges="-152.80.00 -131 -131.180.00 -109 -109.80.00 23 23.80.00 31 31.80.00 64 64.80.00"/> <!-- 1 -->
    <route id="truck17" edges="-152.80.00 -131 -131.180.00 131"/> <!-- 1 -->
    <route id="truck18" edges="-27 -27.80.00 -3 -3.180.00 15 15.180.00 -144 -144.121.42 144 144.121.42"/> <!-- 1 -->
    <route id="truck19" edges="-27.80.00 27 27.80.00 45 -68 -43 -43.80.00"/> <!-- 1 -->
    <route id="truck20" edges="-3.180.00 11 11.80.00 23 23.80.00"/> <!-- 1 -->
    <route id="truck21" edges="-3.180.00 3 3.180.00 -3"/> <!-- 1 -->
    <route id="truck22" edges="-31.80.00 -23 -23.80.00 109 109.80.00 123"/> <!-- 1 -->
    <route id="truck23" edges="-37 -37.80.00 -23 -23.80.00 109 109.80.00 131 131.180.00 144"/> <!-- 1 -->
    <route id="truck24" edges="-37.80.00 -23 -23.80.00 -11 -11.80.00 15 15.180.00"/> <!-- 2 -->
    <route id="truck25" edges="-37.80.00 -23 -23.80.00 109 109.80.00 -109"/> <!-- 1 -->
    <route id="truck26" edges="-37.80.00 -23 -23.80.00 109 109.80.00 131"/> <!-- 1 -->
    <route id="truck27" edges="-43 -43.80.00 -27 -27.80.00"/> <!-- 1 -->
    <route id="truck28" edges="-43 -43.80.00 -27 -27.80.00 -3 -3.180.00 11 11.80.00 109 109.80.00"/> <!-- 1 -->
    <route id="truck29" edges="-43.80.00 -27 -27.80.00 -3 -3.180.00 15 15.180.00 -144 -144.121.42 152"/> <!-- 1 -->
    <route id="truck31" edges="-43.80.00 -27 -27.80.00 27 27.80.00"/> <!-- 1 -->
    <route id="truck32" edges="-45.80.00 -27 -27.80.00 -3 -3.180.00 11 11.80.00 23 23.80.00 31 31.80.00 60 60.80.00 92"/> <!-- 1 -->
    <route id="truck33" edges="-45.80.00 -27 -27.80.00 -3 -3.180.00 11 11.80.00 23 23.80.00 37 -58"/> <!-- 2 -->
    <route id="truck35" edges="-55 -55.80.00 -27 -27.80.00 -3 -3.180.00 15 15.180.00"/> <!-- 1 -->
    <route id="truck36" edges="-55 -55.80.00 -27 -27.80.00 -3 -3.180.00 15 15.180.00 -144 -144.121.42 -131"/> <!-- 1 -->
    <route id="truck37" edges="-58 -58.121.42 64 64.80.00 120 120.180.00"/> <!-- 1 -->
    <route id="truck39" edges="-60 -60.80.00 -31 -31.80.00 -23 -23.80.00 -11 -11.80.00 3 3.180.00 27 27.80.00 43 68 -45 -45.80.00"/> <!-- 1 -->
    <route id="truck40" edges="-64 -64.80.00 64 64.80.00 120 120.180.00 -120 -120.180.00"/> <!-- 1 -->
    <route id="truck41" edges="-64 -64.80.00 64 64.80.00 120 120.180.00 123 123.121.42"/> <!-- 1 -->
    <route id="truck42" edges="-64.80.00 -31 -31.80.00 -23 -23.80.00 -11 -11.80.00 3 3.180.00 -3"/> <!-- 1 -->
    <route id="truck43" edges="-71 -55 -55.80.00 -27 -27.80.00 -3 -3.180.00 11 11.80.00 23 23.80.00 31 31.80.00 58"/> <!-- 2 -->
    <route id="truck44" edges="-71 -55 -55.80.00 -27 -27.80.00 -3 -3.180.00 11 11.80.00 23 23.80.00 31 31.80.00 64 64.80.00 -64"/> <!-- 1 -->
    <route id="truck45" edges="-75 -75.121.42 -60 -60.80.00 -31 -31.80.00 -23 -23.80.00 -11 -11.80.00 3 3.180.00 -71"/> <!-- 1 -->
    <route id="truck46" edges="-75.121.42 -60 -60.80.00 -31 -31.80.00 -23 -23.80.00 23"/> <!-- 1 -->
    <route id="truck47" edges="-79 -79.80.00 -60 -60.80.00 -31 -31.80.00 -23 -23.80.00 -11 -11.80.00 3 3.180.00 -3 -3.180.00"/> <!-- 2 -->
    <route id="truck48" edges="-79 -79.80.00 -60 -60.80.00 64 64.80.00"/> <!-- 1 -->
    <route id="truck51" edges="-79.80.00 75 75.121.42"/> <!-- 2 -->
    <route id="truck52" edges="-79.80.00 75 75.121.42 120 120.180.00 131 131.180.00 144 144.121.42"/> <!-- 1 -->
    <route id="truck53" edges="-92.180.00 -60 -60.80.00 -31 -31.80.00 37 -58 -58.121.42"/> <!-- 1 -->
    <route id="truck55" edges="109 109.80.00 -109 -109.80.00 -11 -11.80.00 3 3.180.00 27 27.80.00 43 68 -45"/> <!-- 2 -->
    <route id="truck56" edges="11 11.80.00 23 23.80.00 31 31.80.00 64 64.80.00"/> <!-- 2 -->
    <route id="truck57" edges="11.80.00 23 23.80.00 31"/> <!-- 2 -->
    <route id="truck58" edges="120 120.180.00 -109 -109.80.00 -11 -11.80.00 3 3.180.00 -71 -55 -55.80.00"/> <!-- 3 -->
    <route id="truck61" edges="120 120.180.00 -120 -120.180.00 -75 -75.121.42 -60"/> <!-- 1 -->
    <route id="truck62" edges="123 123.121.42 -123"/> <!-- 1 -->
    <route id="truck63" edges="123 123.121.42 -15 -15.180.00 3 3.180.00 27 27.80.00 43 68"/> <!-- 1 -->
    <route id="truck64" edges="131 131.180.00 144 144.121.42 -15 -15.180.00 3 3.180.00 27 27.80.00 55 71"/> <!-- 1 -->
    <route id="truck65" edges="144 144.121.42 -123 -123.121.42 -120 -120.180.00 -64 -64.80.00 58"/> <!-- 1 -->
    <route id="truck66" edges="144 144.121.42 -15 -15.180.00 3 3.180.00 27 27.80.00"/> <!-- 1 -->
    <route id="truck67" edges="144.121.42 -123 -123.121.42 -120 -120.180.00 -64 -64.80.00 58"/> <!-- 1 -->
    <route id="truck68" edges="15 15.180.00 -123 -123.121.42 -109 -109.80.00 -11"/> <!-- 1 -->
    <route id="truck69" edges="15 15.180.00 -123 -123.121.42 -120 -120.180.00 -75 -75.121.42 75"/> <!-- 1 -->
    <route id="truck70" edges="15.180.00 -15 -15.180.00 11 11.80.00 23 23.80.00 31 31.80.00"/> <!-- 1 -->
    <route id="truck71" edges="23 23.80.00 -23 -23.80.00 109"/> <!-- 1 -->
    <route id="truck72" edges="23.80.00 31 31.80.00 60 60.80.00 75 75.121.42"/> <!-- 1 -->
    <route id="truck73" edges="27 27.80.00 -27 -27.80.00 -3 -3.180.00 11 11.80.00 109 109.80.00 131 131.180.00"/> <!-- 1 -->
    <route id="truck74" edges="27 27.80.00 -27 -27.80.00 -3 -3.180.00 11 11.80.00 23 23.80.00 31 31.80.00 64 64.80.00 -75"/> <!-- 1 -->
    <route id="truck76" edges="27.80.00 -27 -27.80.00 -3 -3.180.00 11 11.80.00 23 23.80.00 31 31.80.00 60 60.80.00 75 75.121.42"/> <!-- 1 -->
    <route id="truck77" edges="3 3.180.00 -3 -3.180.00 11 11.80.00 23 23.80.00 31 31.80.00 64 64.80.00"/> <!-- 1 -->
    <route id="truck79" edges="3.180.00 27 27.80.00 55 71"/> <!-- 1 -->
    <route id="truck80" edges="31 31.80.00 -31 -31.80.00 -23 -23.80.00 -11 -11.80.00 3 3.180.00 27 27.80.00 -27"/> <!-- 2 -->
    <route id="truck81" edges="31.80.00 58"/> <!-- 2 -->
    <route id="truck83" edges="37 -58 -58.121.42 -31 -31.80.00 -23 -23.80.00 109 109.80.00 131 131.180.00 -131 -131.180.00"/> <!-- 1 -->
    <route id="truck85" edges="45 -68 -43 -43.80.00 -27 -27.80.00 -3 -3.180.00 11 11.80.00 109 109.80.00 123 123.121.42"/> <!-- 1 -->
    <route id="truck86" edges="45 -68 -43 -43.80.00 43"/> <!-- 1 -->
    <route id="truck88" edges="58 -37 -37.80.00 -23 -23.80.00 -11 -11.80.00 3 3.180.00"/> <!-- 1 -->
    <route id="truck89" edges="60.80.00 -60 -60.80.00 -31 -31.80.00 -23 -23.80.00 -11 -11.80.00 5"/> <!-- 1 -->
    <route id="truck90" edges="60.80.00 75 75.121.42 -75"/> <!-- 1 -->
    <route id="truck91" edges="64.80.00 -64 -64.80.00 -31 -31.80.00 31"/> <!-- 1 -->
    <route id="truck92" edges="64.80.00 120 120.180.00 131 131.180.00 -131"/> <!-- 1 -->
    <route id="truck93" edges="68 -45 -45.80.00 -27 -27.80.00 -3 -3.180.00 11 11.80.00 -11"/> <!-- 1 -->
    <route id="truck94" edges="68 -45 -45.80.00 -27 -27.80.00 -71 -55"/> <!-- 1 -->
    <route id="truck95" edges="71 71.121.42 -3 -3.180.00 11 11.80.00 109 109.80.00 -120"/> <!-- 1 -->
    <route id="truck96" edges="71.121.42 -3 -3.180.00 15 15.180.00"/> <!-- 1 -->
    <route id="truck97" edges="75 75.121.42 120 120.180.00 -109 -109.80.00 23 23.80.00"/> <!-- 1 -->

    <vehicle id="truck0" depart="0.00" route="truck69"/>
    <vehicle id="truck1" depart="1.06" route="truck19"/>
    <vehicle id="truck2" depart="2.13" route="truck81"/>
    <vehicle id="truck3" depart="3.19" route="truck80"/>
    <vehicle id="truck4" depart="4.26" route="truck13"/>
    <vehicle id="truck5" depart="5.32" route="truck71"/>
    <vehicle id="truck6" depart="6.39" route="truck16"/>
    <vehicle id="truck7" depart="7.45" route="truck45"/>
    <vehicle id="truck8" depart="8.52" route="truck40"/>
    <vehicle id="truck9" depart="9.58" route="truck88"/>
    <vehicle id="truck10" depart="10.65" route="truck12"/>
    <vehicle id="truck11" depart="11.71" route="truck17"/>
    <vehicle id="truck12" depart="12.77" route="truck42"/>
    <vehicle id="truck13" depart="13.84" route="truck47"/>
    <vehicle id="truck14" depart="14.90" route="truck74"/>
    <vehicle id="truck15" depart="15.97" route="truck63"/>
    <vehicle id="truck16" depart="17.03" route="truck24"/>
    <vehicle id="truck17" depart="18.10" route="truck51"/>
    <vehicle id="truck18" depart="19.16" route="truck83"/>
    <vehicle id="truck19" depart="20.23" route="truck52"/>
    <vehicle id="truck20" depart="21.29" route="truck64"/>
    <vehicle id="truck21" depart="22.35" route="truck51"/>
    <vehicle id="truck22" depart="23.42" route="truck22"/>
    <vehicle id="truck23" depart="24.48" route="truck36"/>
    <vehicle id="truck24" depart="25.55" route="truck85"/>
    <vehicle id="truck25" depart="26.61" route="truck91"/>
    <vehicle id="truck26" depart="27.68" route="truck21"/>
    <vehicle id="truck27" depart="28.74" route="truck41"/>
    <vehicle id="truck28" depart="29.81" route="truck24"/>
    <vehicle id="truck29" depart="30.87" route="truck28"/>
    <vehicle id="truck30" depart="31.94" route="truck56"/>
    <vehicle id="truck31" depart="33.00" route="truck61"/>
    <vehicle id="truck32" depart="34.06" route="truck46"/>
    <vehicle id="truck33" depart="35.13" route="truck4"/>
    <vehicle id="truck34" depart="36.19" route="truck79"/>
    <vehicle id="truck35" depart="37.26" route="truck93"/>
    <vehicle id="truck36" depart="38.32" route="truck77"/>
    <vehicle id="truck37" depart="39.39" route="truck48"/>
    <vehicle id="truck38" depart="40.45" route="truck66"/>
    <vehicle id="truck39" depart="41.52" route="truck58"/>
    <vehicle id="truck40" depart="42.58" route="truck1"/>
    <vehicle id="truck41" depart="43.65" route="truck27"/>
    <vehicle id="truck42" depart="44.71" route="truck55"/>
    <vehicle id="truck43" depart="45.77" route="truck6"/>
    <vehicle id="truck44" depart="46.84" route="truck70"/>
    <vehicle id="truck45" depart="47.90" route="truck39"/>
    <vehicle id="truck46" depart="48.97" route="truck90"/>
    <vehicle id="truck47" depart="50.03" route="truck94"/>
    <vehicle id="truck48" depart="51.10" route="truck1"/>
    <vehicle id="truck49" depart="52.16" route="truck43"/>
    <vehicle id="truck50" depart="53.23" route="truck32"/>
    <vehicle id="truck51" depart="54.29" route="truck73"/>
    <vehicle id="truck52" depart="55.35" route="truck31"/>
    <vehicle id="truck53" depart="56.42" route="truck57"/>
    <vehicle id="truck54" depart="57.48" route="truck76"/>
    <vehicle id="truck55" depart="58.55" route="truck57"/>
    <vehicle id="truck56" depart="59.61" route="truck81"/>
    <vehicle id="truck57" depart="60.68" route="truck6"/>
    <vehicle id="truck58" depart="61.74" route="truck26"/>
    <vehicle id="truck59" depart="62.81" route="truck58"/>
    <vehicle id="truck60" depart="63.87" route="truck95"/>
    <vehicle id="truck61" depart="64.94" route="truck33"/>
    <vehicle id="truck62" depart="66.00" route="truck67"/>
    <vehicle id="truck63" depart="67.06" route="truck53"/>
    <vehicle id="truck64" depart="68.13" route="truck18"/>
    <vehicle id="truck65" depart="69.19" route="truck62"/>
    <vehicle id="truck66" depart="70.26" route="truck58"/>
    <vehicle id="truck67" depart="71.32" route="truck86"/>
    <vehicle id="truck68" depart="72.39" route="truck23"/>
    <vehicle id="truck69" depart="73.45" route="truck80"/>
    <vehicle id="truck70" depart="74.52" route="truck43"/>
    <vehicle id="truck71" depart="75.58" route="truck97"/>
    <vehicle id="truck72" depart="76.65" route="truck72"/>
    <vehicle id="truck73" depart="77.71" route="truck25"/>
    <vehicle id="truck74" depart="78.77" route="truck65"/>
    <vehicle id="truck75" depart="79.84" route="truck33"/>
    <vehicle id="truck76" depart="80.90" route="truck92"/>
    <vehicle id="truck77" depart="81.97" route="truck29"/>
    <vehicle id="truck78" depart="83.03" route="truck96"/>
    <vehicle id="truck79" depart="84.10" route="truck5"/>
    <vehicle id="truck80" depart="85.16" route="truck9"/>
    <vehicle id="truck81" depart="86.23" route="truck10"/>
    <vehicle id="truck82" depart="87.29" route="truck68"/>
    <vehicle id="truck83" depart="88.35" route="truck14"/>
    <vehicle id="truck84" depart="89.42" route="truck37"/>
    <vehicle id="truck85" depart="90.48" route="truck20"/>
    <vehicle id="truck86" depart="91.55" route="truck35"/>
    <vehicle id="truck87" depart="92.61" route="truck11"/>
    <vehicle id="truck88" depart="93.68" route="truck56"/>
    <vehicle id="truck89" depart="94.74" route="truck47"/>
    <vehicle id="truck90" depart="95.81" route="truck89"/>
    <vehicle id="truck91" depart="96.87" route="truck44"/>
    <vehicle id="truck92" depart="97.94" route="truck55"/>
</routes>
