<?xml version="1.0" encoding="UTF-8"?>

<!-- generated on 11.03.2015 17:26:07 by Netedit Version dev-SVN-r18056
<?xml version="1.0" encoding="UTF-8"?>

<configuration xmlns:xsi="http://www.w3.org/2001/XMLSchema-instance" xsi:noNamespaceSchemaLocation="http://sumo.dlr.de/xsd/netedit.exeConfiguration.xsd">

    <input>
        <sumo-net-file value="D:\erdm_ja\sumoI\sumo\tools\import\osm\2015-03-11-15-50.net.xml"/>
    </input>

    <output>
        <output-file value="D:\erdm_ja\sumoI\sumo\tools\import\osm\2015-03-11-15-50.net.xml"/>
        <plain-output-prefix value="D:\erdm_ja\projekte\sumo\debug\1674\input_plain"/>
    </output>

    <processing>
        <no-turnarounds value="true"/>
        <offset.disable-normalization value="true"/>
    </processing>

</configuration>
-->

<nodes version="0.13" xmlns:xsi="http://www.w3.org/2001/XMLSchema-instance" xsi:noNamespaceSchemaLocation="http://sumo.dlr.de/xsd/nodes_file.xsd">
    <location netOffset="-329236.11,-5688507.07" convBoundary="15193.24,1534.89,15378.06,1647.22" origBoundary="12.547925,51.288513,12.885676,51.473444" projParameter="+proj=utm +zone=33 +ellps=WGS84 +datum=WGS84 +units=m +no_defs"/>

    <node id="823316987" x="15264.72" y="1597.12" type="priority"/>
    <node id="829260290" x="15291.57" y="1604.18" type="priority"/>
    <node id="829260299" x="15378.06" y="1578.04" type="priority"/>
    <node id="829260312" x="15193.24" y="1534.89" type="priority"/>
    <node id="829260313" x="15273.48" y="1586.30" type="priority"/>
    <node id="829260314" x="15272.48" y="1587.89" type="priority"/>
    <node id="829260331" x="15303.74" y="1549.53" type="priority"/>
    <node id="847163225" x="15246.95" y="1647.22" type="priority"/>
</nodes>
