<?xml version="1.0" encoding="UTF-8"?>

<!-- generated on Sun Feb  9 21:58:44 2020 by Eclipse SUMO duarouter Version v1_4_0+1001-ebe76855e2
<configuration xmlns:xsi="http://www.w3.org/2001/XMLSchema-instance" xsi:noNamespaceSchemaLocation="http://sumo.dlr.de/xsd/duarouterConfiguration.xsd">

    <input>
        <net-file value="net.net.xml"/>
        <route-files value="trips.trips.xml"/>
    </input>

    <output>
        <output-file value="routes.xml"/>
        <alternatives-output value="routes.alt.xml"/>
    </output>

    <time>
        <begin value="0"/>
        <end value="100.0"/>
    </time>

    <report>
        <no-warnings value="true"/>
        <ignore-errors value="true"/>
        <no-step-log value="true"/>
    </report>

</configuration>
-->

<routes xmlns:xsi="http://www.w3.org/2001/XMLSchema-instance" xsi:noNamespaceSchemaLocation="http://sumo.dlr.de/xsd/routes_file.xsd">
    <vehicle id="0" depart="0.00">
        <route edges="60.80.00 75 75.121.42 -75"/>
    </vehicle>
    <vehicle id="1" depart="1.00">
        <route edges="-43.80.00 -27 -27.80.00 -71 -55 -55.80.00"/>
    </vehicle>
    <vehicle id="2" depart="2.00">
        <route edges="68 -45 -45.80.00 -27 -27.80.00 -71 -55"/>
    </vehicle>
    <vehicle id="3" depart="3.00">
        <route edges="-79 -79.80.00 -60 -60.80.00 -31 -31.80.00 -23 -23.80.00 -11 -11.80.00 3 3.180.00 -3 -3.180.00"/>
    </vehicle>
    <vehicle id="4" depart="4.00">
        <route edges="-64.80.00 -31 -31.80.00 -23 -23.80.00 -11 -11.80.00 3 3.180.00 -3"/>
    </vehicle>
    <vehicle id="5" depart="5.00">
        <route edges="45 -68 -43 -43.80.00 -27 -27.80.00 -3 -3.180.00 11 11.80.00 109 109.80.00 123 123.121.42"/>
    </vehicle>
    <vehicle id="6" depart="6.00">
        <route edges="-152.80.00 -131 -131.180.00 -109 -109.80.00 23 23.80.00 31 31.80.00 64 64.80.00"/>
    </vehicle>
    <vehicle id="7" depart="7.00">
        <route edges="64.80.00 120 120.180.00 131 131.180.00 -131"/>
    </vehicle>
    <vehicle id="8" depart="8.00">
        <route edges="-109.80.00 -11 -11.80.00 3 3.180.00 27 27.80.00 -27 -27.80.00"/>
    </vehicle>
    <vehicle id="9" depart="9.00">
        <route edges="-11.80.00 3 3.180.00 27 27.80.00 55 71"/>
    </vehicle>
    <vehicle id="10" depart="10.00">
        <route edges="-123.121.42 131"/>
    </vehicle>
    <vehicle id="11" depart="11.00">
        <route edges="109 109.80.00 -109 -109.80.00 -11 -11.80.00 3 3.180.00 27 27.80.00 43 68 -45"/>
    </vehicle>
    <vehicle id="12" depart="12.00">
        <route edges="-11 -11.80.00 15 15.180.00 -123 -123.121.42 -120 -120.180.00"/>
    </vehicle>
    <vehicle id="13" depart="13.00">
        <route edges="-45.80.00 -27 -27.80.00 -3 -3.180.00 11 11.80.00 23 23.80.00 37 -58"/>
    </vehicle>
    <vehicle id="14" depart="14.00">
        <route edges="-109.80.00 23 23.80.00 31 31.80.00 -31 -31.80.00"/>
    </vehicle>
    <vehicle id="15" depart="15.00">
        <route edges="-15.180.00 11 11.80.00 23 23.80.00 31 31.80.00 64 64.80.00 120"/>
    </vehicle>
    <vehicle id="16" depart="16.00">
        <route edges="131 131.180.00 144 144.121.42 -15 -15.180.00 3 3.180.00 27 27.80.00 55 71"/>
    </vehicle>
    <vehicle id="17" depart="17.00">
        <route edges="-27 -27.80.00 -3 -3.180.00 15 15.180.00 -144 -144.121.42 144 144.121.42"/>
    </vehicle>
    <vehicle id="18" depart="18.00">
        <route edges="-45.80.00 -27 -27.80.00 -3 -3.180.00 11 11.80.00 23 23.80.00 31 31.80.00 60 60.80.00 92"/>
    </vehicle>
    <vehicle id="19" depart="19.00">
        <route edges="-75.121.42 -60 -60.80.00 -31 -31.80.00 -23 -23.80.00 23"/>
    </vehicle>
    <vehicle id="20" depart="20.00">
        <route edges="27.80.00 -27 -27.80.00 -3 -3.180.00 11 11.80.00 23 23.80.00 31 31.80.00 60 60.80.00 75 75.121.42"/>
    </vehicle>
    <vehicle id="21" depart="21.00">
        <route edges="120 120.180.00 -109 -109.80.00 -11 -11.80.00 3 3.180.00 27 27.80.00 43 68 -45"/>
    </vehicle>
    <vehicle id="22" depart="22.00">
        <route edges="71.121.42 -3 -3.180.00 15 15.180.00"/>
    </vehicle>
    <vehicle id="23" depart="23.00">
        <route edges="-43.80.00 -27 -27.80.00 -3 -3.180.00 15 15.180.00 -144 -144.121.42 152"/>
    </vehicle>
    <vehicle id="24" depart="24.00">
        <route edges="-79 -79.80.00 75 75.121.42 120 120.180.00 131 131.180.00 -131 -131.180.00"/>
    </vehicle>
    <vehicle id="25" depart="25.00">
        <route edges="-144.121.42 144 144.121.42 -15 -15.180.00 5"/>
    </vehicle>
    <vehicle id="26" depart="26.00">
        <route edges="-55 -55.80.00 -27 -27.80.00 -3 -3.180.00 11 11.80.00 23 23.80.00 31 31.80.00 58 -37 -37.80.00"/>
    </vehicle>
    <vehicle id="27" depart="27.00">
        <route edges="120 120.180.00 -109 -109.80.00 -11 -11.80.00 3 3.180.00 -71 -55 -55.80.00"/>
    </vehicle>
    <vehicle id="28" depart="28.00">
        <route edges="58 -37 -37.80.00 -23 -23.80.00 -11 -11.80.00 3 3.180.00"/>
    </vehicle>
    <vehicle id="29" depart="29.00">
        <route edges="-109.80.00 -11 -11.80.00 3 3.180.00 27 27.80.00 -27"/>
    </vehicle>
    <vehicle id="30" depart="30.00">
        <route edges="-55 -55.80.00 -27 -27.80.00 -3 -3.180.00 15 15.180.00 -144 -144.121.42 -131"/>
    </vehicle>
    <vehicle id="31" depart="31.00">
        <route edges="-79.80.00 -60 -60.80.00 -31 -31.80.00 -23 -23.80.00 -11 -11.80.00 3 3.180.00 27 27.80.00"/>
    </vehicle>
    <vehicle id="32" depart="32.00">
        <route edges="11 11.80.00 23 23.80.00 31 31.80.00 64 64.80.00"/>
    </vehicle>
    <vehicle id="33" depart="33.00">
        <route edges="120 120.180.00 -109 -109.80.00 -11 -11.80.00 3 3.180.00 27 27.80.00 45"/>
    </vehicle>
    <vehicle id="34" depart="34.00">
        <route edges="-60 -60.80.00 -31 -31.80.00 -23 -23.80.00 -11 -11.80.00 3 3.180.00 27 27.80.00 43 68 -45 -45.80.00"/>
    </vehicle>
    <vehicle id="35" depart="35.00">
        <route edges="27 27.80.00 -27 -27.80.00 -3 -3.180.00 11 11.80.00 109 109.80.00 131 131.180.00"/>
    </vehicle>
    <vehicle id="36" depart="36.00">
        <route edges="-79 -79.80.00 -60 -60.80.00 64 64.80.00"/>
    </vehicle>
    <vehicle id="37" depart="37.00">
        <route edges="15.180.00 -15 -15.180.00 11 11.80.00 23 23.80.00 31 31.80.00"/>
    </vehicle>
    <vehicle id="38" depart="38.00">
        <route edges="-120 -120.180.00 -64 -64.80.00 -31 -31.80.00 -23 -23.80.00 -11 -11.80.00 3 3.180.00 -71 -55 -55.80.00"/>
    </vehicle>
    <vehicle id="39" depart="39.00">
        <route edges="120 120.180.00 -120 -120.180.00 -75 -75.121.42 -60"/>
    </vehicle>
    <vehicle id="40" depart="40.00">
        <route edges="-144 -144.121.42 -131 -131.180.00 131 131.180.00"/>
    </vehicle>
    <vehicle id="41" depart="41.00">
        <route edges="-92.180.00 -60 -60.80.00 -31 -31.80.00 37 -58 -58.121.42"/>
    </vehicle>
    <vehicle id="42" depart="42.00">
        <route edges="27 27.80.00 -27 -27.80.00 -3 -3.180.00 11 11.80.00 23 23.80.00 31 31.80.00 64 64.80.00 -75"/>
    </vehicle>
    <vehicle id="43" depart="43.00">
        <route edges="-43 -43.80.00 -27 -27.80.00 -3 -3.180.00 11 11.80.00 109 109.80.00"/>
    </vehicle>
    <vehicle id="44" depart="44.00">
        <route edges="23 23.80.00 -23 -23.80.00 109"/>
    </vehicle>
    <vehicle id="45" depart="45.00">
        <route edges="-71 -55 -55.80.00 -27 -27.80.00 -3 -3.180.00 11 11.80.00 23 23.80.00 31 31.80.00 64 64.80.00 -64"/>
    </vehicle>
    <vehicle id="46" depart="46.00">
        <route edges="58 -37 -37.80.00 -23"/>
    </vehicle>
    <vehicle id="47" depart="47.00">
        <route edges="45 -68 -43 -43.80.00 43"/>
    </vehicle>
    <vehicle id="48" depart="48.00">
        <route edges="144.121.42 -123 -123.121.42 -120 -120.180.00 -64 -64.80.00 58"/>
    </vehicle>
    <vehicle id="49" depart="49.00">
        <route edges="64.80.00 -64 -64.80.00 -31 -31.80.00 31"/>
    </vehicle>
    <vehicle id="50" depart="50.00">
        <route edges="-37.80.00 -23 -23.80.00 109 109.80.00 131"/>
    </vehicle>
    <vehicle id="51" depart="51.00">
        <route edges="-37.80.00 -23 -23.80.00 109 109.80.00 -109"/>
    </vehicle>
    <vehicle id="52" depart="52.00">
        <route edges="-3.180.00 11 11.80.00 23 23.80.00"/>
    </vehicle>
    <vehicle id="53" depart="53.00">
        <route edges="-152.80.00 -131 -131.180.00 131"/>
    </vehicle>
    <vehicle id="54" depart="54.00">
        <route edges="123 123.121.42 -15 -15.180.00 3 3.180.00 27 27.80.00 43 68"/>
    </vehicle>
    <vehicle id="55" depart="55.00">
        <route edges="-79.80.00 75 75.121.42 120 120.180.00 131 131.180.00 144 144.121.42"/>
    </vehicle>
    <vehicle id="56" depart="56.00">
        <route edges="-37.80.00 -23 -23.80.00 -11 -11.80.00 15 15.180.00"/>
    </vehicle>
    <vehicle id="57" depart="57.00">
        <route edges="3 3.180.00 -3 -3.180.00 11 11.80.00 23 23.80.00 31 31.80.00 64 64.80.00"/>
    </vehicle>
    <vehicle id="58" depart="58.00">
        <route edges="144 144.121.42 -15 -15.180.00 3 3.180.00 27 27.80.00"/>
    </vehicle>
    <vehicle id="59" depart="59.00">
        <route edges="-148 -148.80.00 144 144.121.42 -15 -15.180.00 3 3.180.00 -3"/>
    </vehicle>
    <vehicle id="60" depart="60.00">
        <route edges="37 -58 -58.121.42 -31 -31.80.00 -23 -23.80.00 -11 -11.80.00"/>
    </vehicle>
    <vehicle id="62" depart="62.00">
        <route edges="71 71.121.42 -3 -3.180.00 11 11.80.00 109 109.80.00 -120"/>
    </vehicle>
    <vehicle id="64" depart="64.00">
        <route edges="144 144.121.42 -123 -123.121.42 -120 -120.180.00 -64 -64.80.00 58"/>
    </vehicle>
    <vehicle id="65" depart="65.00">
        <route edges="-75 -75.121.42 -60 -60.80.00 -31 -31.80.00 -23 -23.80.00 -11 -11.80.00 3 3.180.00 -71"/>
    </vehicle>
    <vehicle id="66" depart="66.00">
        <route edges="123 123.121.42 -123"/>
    </vehicle>
    <vehicle id="67" depart="67.00">
        <route edges="-71 -55 -55.80.00 -27 -27.80.00 -3 -3.180.00 11 11.80.00 23 23.80.00 31 31.80.00 58"/>
    </vehicle>
    <vehicle id="68" depart="68.00">
        <route edges="31.80.00 58"/>
    </vehicle>
    <vehicle id="69" depart="69.00">
        <route edges="43 68 -45 -45.80.00 -27 -27.80.00 -3 -3.180.00 11 11.80.00"/>
    </vehicle>
    <vehicle id="70" depart="70.00">
        <route edges="-64 -64.80.00 64 64.80.00 120 120.180.00 123 123.121.42"/>
    </vehicle>
    <vehicle id="71" depart="71.00">
        <route edges="-3.180.00 3 3.180.00 -3"/>
    </vehicle>
    <vehicle id="72" depart="72.00">
        <route edges="11.80.00 23 23.80.00 31"/>
    </vehicle>
    <vehicle id="73" depart="73.00">
        <route edges="109 109.80.00 -109 -109.80.00 -11 -11.80.00 3 3.180.00 -71 -55 -55.80.00"/>
    </vehicle>
    <vehicle id="74" depart="74.00">
        <route edges="37 -58 -58.121.42 -31 -31.80.00 -23 -23.80.00 109 109.80.00 131 131.180.00 -131 -131.180.00"/>
    </vehicle>
    <vehicle id="75" depart="75.00">
        <route edges="27 27.80.00 -27 -27.80.00 -3 -3.180.00 11 11.80.00 23 23.80.00 37 -58 -58.121.42"/>
    </vehicle>
    <vehicle id="76" depart="76.00">
        <route edges="3.180.00 27 27.80.00 55 71"/>
    </vehicle>
    <vehicle id="77" depart="77.00">
        <route edges="-58.121.42 -31 -31.80.00 -23 -23.80.00 -11 -11.80.00 5"/>
    </vehicle>
    <vehicle id="78" depart="78.00">
        <route edges="-43 -43.80.00 -27 -27.80.00"/>
    </vehicle>
    <vehicle id="79" depart="79.00">
        <route edges="68 -45 -45.80.00 -27 -27.80.00 -3 -3.180.00 11 11.80.00 -11"/>
    </vehicle>
    <vehicle id="80" depart="80.00">
        <route edges="-148 -148.80.00 -131 -131.180.00 -109 -109.80.00 23 23.80.00 37 -58 -58.121.42"/>
    </vehicle>
    <vehicle id="81" depart="81.00">
        <route edges="-79.80.00 75 75.121.42"/>
    </vehicle>
    <vehicle id="82" depart="82.00">
        <route edges="-37 -37.80.00 -23 -23.80.00 109 109.80.00 131 131.180.00 144"/>
    </vehicle>
    <vehicle id="83" depart="83.00">
        <route edges="75 75.121.42 120 120.180.00 -109 -109.80.00 23 23.80.00"/>
    </vehicle>
    <vehicle id="84" depart="84.00">
        <route edges="31 31.80.00 -31 -31.80.00 -23 -23.80.00 -11 -11.80.00 3 3.180.00 27 27.80.00 -27"/>
    </vehicle>
    <vehicle id="85" depart="85.00">
        <route edges="-31.80.00 -23 -23.80.00 109 109.80.00 123"/>
    </vehicle>
    <vehicle id="86" depart="86.00">
        <route edges="-131.180.00 -109 -109.80.00 -11 -11.80.00 3 3.180.00 -71 -55 -55.80.00"/>
    </vehicle>
    <vehicle id="87" depart="87.00">
        <route edges="-144 -144.121.42 152"/>
    </vehicle>
    <vehicle id="88" depart="88.00">
        <route edges="-43.80.00 -27 -27.80.00 27 27.80.00"/>
    </vehicle>
    <vehicle id="89" depart="89.00">
        <route edges="-64 -64.80.00 64 64.80.00 120 120.180.00 -120 -120.180.00"/>
    </vehicle>
    <vehicle id="90" depart="90.00">
        <route edges="-27.80.00 27 27.80.00 45 -68 -43 -43.80.00"/>
    </vehicle>
    <vehicle id="91" depart="91.00">
        <route edges="-58 -58.121.42 64 64.80.00 120 120.180.00"/>
    </vehicle>
    <vehicle id="92" depart="92.00">
        <route edges="15 15.180.00 -123 -123.121.42 -109 -109.80.00 -11"/>
    </vehicle>
    <vehicle id="93" depart="93.00">
        <route edges="-55 -55.80.00 -27 -27.80.00 -3 -3.180.00 15 15.180.00"/>
    </vehicle>
    <vehicle id="94" depart="94.00">
        <route edges="-123 -123.121.42 131 131.180.00"/>
    </vehicle>
    <vehicle id="95" depart="95.00">
        <route edges="-15 -15.180.00 15 15.180.00"/>
    </vehicle>
    <vehicle id="96" depart="96.00">
        <route edges="15 15.180.00 -123 -123.121.42 -120 -120.180.00 -75 -75.121.42 75"/>
    </vehicle>
    <vehicle id="97" depart="97.00">
        <route edges="23.80.00 31 31.80.00 60 60.80.00 75 75.121.42"/>
    </vehicle>
    <vehicle id="98" depart="98.00">
        <route edges="3.180.00 -3 -3.180.00 11 11.80.00 23 23.80.00 31 31.80.00 58"/>
    </vehicle>
    <vehicle id="99" depart="99.00">
        <route edges="60.80.00 -60 -60.80.00 -31 -31.80.00 -23 -23.80.00 -11 -11.80.00 5"/>
    </vehicle>
</routes>
