<?xml version="1.0" encoding="UTF-8"?>

<!-- generated on 14.08.2020 14:18:22 by Eclipse SUMO netedit Version v1_6_0+1531-61c4b14864
<configuration xmlns:xsi="http://www.w3.org/2001/XMLSchema-instance" xsi:noNamespaceSchemaLocation="http://sumo.dlr.de/xsd/netconvertConfiguration.xsd">

    <input>
        <sumo-net-file value="C:\Users\alva_pa\.texttest\tmp\netedit.gui.14Aug135005.2616\netedit.gui\demandElements\trip\inspect\departPos\random\input_net.net.xml"/>
    </input>

    <output>
        <output-file value="C:\Users\alva_pa\.texttest\tmp\netedit.gui.14Aug135005.2616\netedit.gui\demandElements\trip\inspect\departPos\random\net.net.xml"/>
    </output>

    <processing>
        <geometry.min-radius.fix.railways value="false"/>
        <geometry.max-grade.fix value="false"/>
        <offset.disable-normalization value="true"/>
        <lefthand value="false"/>
    </processing>

    <junctions>
        <no-turnarounds value="true"/>
        <junctions.corner-detail value="5"/>
        <junctions.limit-turn-speed value="5.5"/>
        <rectangular-lane-cut value="false"/>
    </junctions>

    <pedestrian>
        <walkingareas value="false"/>
    </pedestrian>

    <netedit>
        <additional-files value="C:\Users\alva_pa\.texttest\tmp\netedit.gui.14Aug135005.2616\netedit.gui\demandElements\trip\inspect\departPos\random\additionals.xml"/>
        <additionals-output value="C:\Users\alva_pa\.texttest\tmp\netedit.gui.14Aug135005.2616\netedit.gui\demandElements\trip\inspect\departPos\random\additionals.xml"/>
        <route-files value="C:\Users\alva_pa\.texttest\tmp\netedit.gui.14Aug135005.2616\netedit.gui\demandElements\trip\inspect\departPos\random\routes.xml"/>
        <demandelements-output value="C:\Users\alva_pa\.texttest\tmp\netedit.gui.14Aug135005.2616\netedit.gui\demandElements\trip\inspect\departPos\random\routes.xml"/>
        <data-files value="C:\Users\alva_pa\.texttest\tmp\netedit.gui.14Aug135005.2616\netedit.gui\demandElements\trip\inspect\departPos\random\datas.xml"/>
        <dataelements-output value="C:\Users\alva_pa\.texttest\tmp\netedit.gui.14Aug135005.2616\netedit.gui\demandElements\trip\inspect\departPos\random\datas.xml"/>
    </netedit>

    <visualisation>
        <gui-settings-file value="C:\Users\alva_pa\.texttest\tmp\netedit.gui.14Aug135005.2616\netedit.gui\demandElements\trip\inspect\departPos\random\gui-settings.xml"/>
        <window-size value="700,500"/>
        <window-pos value="50,50"/>
        <gui-testing value="true"/>
        <gui-testing-debug value="true"/>
        <gui-testing-debug-gl value="true"/>
        <gui-testing.setting-output value="C:\Users\alva_pa\.texttest\tmp\netedit.gui.14Aug135005.2616\netedit.gui\demandElements\trip\inspect\departPos\random\guisettingsoutput.xml"/>
    </visualisation>

    <report>
        <no-warnings value="true"/>
        <aggregate-warnings value="5"/>
        <error-log value="C:\Users\alva_pa\.texttest\tmp\netedit.gui.14Aug135005.2616\netedit.gui\demandElements\trip\inspect\departPos\random\log.txt"/>
    </report>

</configuration>
-->

<routes xmlns:xsi="http://www.w3.org/2001/XMLSchema-instance" xsi:noNamespaceSchemaLocation="http://sumo.dlr.de/xsd/routes_file.xsd">
    <trip id="vehicle_0" depart="0.00" departPos="random" from="gneE2" to="gneE5"/>
</routes>
