<additional xmlns:xsi="http://www.w3.org/2001/XMLSchema-instance" xsi:noNamespaceSchemaLocation="http://sumo.dlr.de/xsd/additional_file.xsd">

	<laneData id="dump_15" type="harmonoise" freq="15" file="aggregated_15.xml" excludeEmpty="true" begin="15" end="30"/>
	<laneData id="dump_15" type="harmonoise" freq="15" file="aggregated_15.xml" excludeEmpty="true" begin="45" end="60"/>

</additional>
