<?xml version="1.0" encoding="UTF-8"?>

<!-- generated on 31.08.2018 13:24:47 by Eclipse SUMO netedit Version b980bbd93f
-->

<additional xmlns:xsi="http://www.w3.org/2001/XMLSchema-instance" xsi:noNamespaceSchemaLocation="http://sumo.dlr.de/xsd/additional_file.xsd">
    <poi id="POI_1" color="red" layer="202.00" lane="gneE1_0" pos="38.00">
        <param key="keyFinal1" value="value1"/>
        <param key="keyFinal2" value="value2"/>
        <param key="keyFinal3" value="value3"/>
    </poi>
    <poi id="POI_2" color="green" layer="202.00" lane="gneE1_0" pos="44.00">
        <param key="keyFinal1" value="value1"/>
        <param key="keyFinal2" value="value2"/>
        <param key="keyFinal3" value="value3"/>
    </poi>
</additional>
