<?xml version="1.0" encoding="UTF-8"?>

<!-- generated on 2024-09-05 13:49:10 by Eclipse SUMO sumo Version v1_20_0+0527-5e4c9ee5dc8
This data file and the accompanying materials
are made available under the terms of the Eclipse Public License v2.0
which accompanies this distribution, and is available at
http://www.eclipse.org/legal/epl-v20.html
This file may also be made available under the following Secondary
Licenses when the conditions for such availability set forth in the Eclipse
Public License 2.0 are satisfied: GNU General Public License, version 2
or later which is available at
https://www.gnu.org/licenses/old-licenses/gpl-2.0-standalone.html
SPDX-License-Identifier: EPL-2.0 OR GPL-2.0-or-later
<configuration xmlns:xsi="http://www.w3.org/2001/XMLSchema-instance" xsi:noNamespaceSchemaLocation="http://sumo.dlr.de/xsd/sumoConfiguration.xsd">

    <input>
        <net-file value="net.net.xml"/>
        <route-files value="input_routes.rou.xml"/>
    </input>

    <output>
        <write-license value="true"/>
        <railsignal-block-output value="railsignal_blocks.xml"/>
    </output>

    <processing>
        <default.speeddev value="0"/>
    </processing>

    <report>
        <xml-validation value="never"/>
        <duration-log.disable value="true"/>
        <no-step-log value="true"/>
    </report>

</configuration>
-->

<railsignal-block-output>
    <railSignal id="11">
        <link linkIndex="0" from="h_0" to=":11_0_0">
            <driveWay id="11.0" vehicle="light_rail_S46:0.0" edges="branch -branch -h">
                <forward lanes=":11_0_0 branch_0 :12_0_0 -branch_0"/>
                <bidi lanes=":11_1_0 -branch_0 branch_0 :11_0_0 h_0"/>
                <flank lanes=":10_1_0 f_0 :1_0_0"/>
                <protectingSwitches links="1_0"/>
                <conflictLinks signals=""/>
                <foes driveWays="0.d0 11.0"/>
            </driveWay>
        </link>
        <link linkIndex="1" from="-branch_0" to=":11_1_0">
            <driveWay id="11.1" vehicle="light_rail_S46:0.0" edges="-h g end">
                <forward lanes=":11_1_0 -h_0 :10_0_0 g_0 :2_0_0 end_0"/>
                <bidi lanes=":11_0_0 h_0"/>
                <flank lanes=":10_1_0 f_0 :1_0_0 :2_1_0 b_0 :1_1_0"/>
                <protectingSwitches links="1_0 1_1"/>
                <conflictLinks signals=""/>
                <foes driveWays="0.d0 11.1"/>
            </driveWay>
            <subDriveWay id="11.1.0" vehicle="" edges="-h">
                <forward lanes=":11_1_0 -h_0"/>
            </subDriveWay>
        </link>
    </railSignal>
    <departJunction id="0">
        <driveWay id="0.d0" vehicle="light_rail_S46:0.0" edges="beg f h branch -branch -h">
            <forward lanes="beg_0 :1_0_0 f_0 :10_1_0 h_0"/>
            <bidi lanes="-h_0 :11_1_0 -branch_0 branch_0 :11_0_0 h_0"/>
            <flank lanes=""/>
            <protectingSwitches links=""/>
            <conflictLinks signals=""/>
            <foes driveWays="0.d0 11.0 11.1.0"/>
        </driveWay>
    </departJunction>
</railsignal-block-output>
