<?xml version="1.0" encoding="UTF-8"?>

<!-- generated on Wed May  6 14:37:58 2020 by Eclipse SUMO Version v1_6_0+0116-fc17f5a0a5
This data file and the accompanying materials
are made available under the terms of the Eclipse Public License v2.0
which accompanies this distribution, and is available at
http://www.eclipse.org/legal/epl-v20.html
SPDX-License-Identifier: EPL-2.0
<configuration xmlns:xsi="http://www.w3.org/2001/XMLSchema-instance" xsi:noNamespaceSchemaLocation="http://sumo.dlr.de/xsd/sumoConfiguration.xsd">

    <input>
        <net-file value="net.net.xml"/>
        <route-files value="input_routes.rou.xml"/>
    </input>

    <output>
        <write-license value="true"/>
        <railsignal-block-output value="railsignal_blocks.xml"/>
    </output>

    <processing>
        <default.speeddev value="0"/>
        <pedestrian.model value="nonInteracting"/>
    </processing>

    <report>
        <xml-validation value="never"/>
        <duration-log.disable value="true"/>
        <no-step-log value="true"/>
    </report>

    <mesoscopic>
        <mesosim value="true"/>
    </mesoscopic>

</configuration>
-->

<railsignal-block-output>
    <railSignal id="11">
        <link linkIndex="0" from="h_0" to="branch_0">
            <driveWay edges="branch">
                <forward lanes="branch_0"/>
                <bidi lanes="-branch_0"/>
                <flank lanes=""/>
                <conflictLinks signals=""/>
            </driveWay>
        </link>
        <link linkIndex="1" from="-branch_0" to="-h_0">
            <driveWay edges="-h g end">
                <forward lanes="-h_0 g_0 end_0"/>
                <bidi lanes="h_0"/>
                <flank lanes="b_0 f_0"/>
                <conflictLinks signals=""/>
            </driveWay>
        </link>
    </railSignal>
</railsignal-block-output>
