<routes xmlns:xsi="http://www.w3.org/2001/XMLSchema-instance" xsi:noNamespaceSchemaLocation="http://sumo-sim.org/xsd/routes_file.xsd">
   <vType id="DEFAULT_VEHTYPE" sigma="0" maxSpeed="70"/>

   <route id="horizontal" edges="2fi 2si 1o 1fi 1si 2o 2fi"/>

   <vehicle id="000" route="horizontal" depart="0000" departPos="0"/>
   <vehicle id="001" route="horizontal" depart="0010" departPos="0"/>
   <vehicle id="002" route="horizontal" depart="0020" departPos="0"/>
   <vehicle id="003" route="horizontal" depart="0030" departPos="0"/>
   <vehicle id="004" route="horizontal" depart="0040" departPos="0"/>
   <vehicle id="005" route="horizontal" depart="0050" departPos="0"/>
   <vehicle id="006" route="horizontal" depart="0060" departPos="0"/>
   <vehicle id="007" route="horizontal" depart="0070" departPos="0"/>
   <vehicle id="008" route="horizontal" depart="0080" departPos="0"/>
   <vehicle id="009" route="horizontal" depart="0090" departPos="0"/>
   <vehicle id="010" route="horizontal" depart="0100" departPos="0"/>
   <vehicle id="011" route="horizontal" depart="0110" departPos="0"/>
   <vehicle id="012" route="horizontal" depart="0120" departPos="0"/>
   <vehicle id="013" route="horizontal" depart="0130" departPos="0"/>
   <vehicle id="014" route="horizontal" depart="0140" departPos="0"/>
   <vehicle id="015" route="horizontal" depart="0150" departPos="0"/>
   <vehicle id="016" route="horizontal" depart="0160" departPos="0"/>
   <vehicle id="017" route="horizontal" depart="0170" departPos="0"/>
   <vehicle id="018" route="horizontal" depart="0180" departPos="0"/>
   <vehicle id="019" route="horizontal" depart="0190" departPos="0"/>
   <vehicle id="020" route="horizontal" depart="0200" departPos="0"/>
   <vehicle id="021" route="horizontal" depart="0210" departPos="0"/>
   <vehicle id="022" route="horizontal" depart="0220" departPos="0"/>
   <vehicle id="023" route="horizontal" depart="0230" departPos="0"/>
   <vehicle id="024" route="horizontal" depart="0240" departPos="0"/>
   <vehicle id="025" route="horizontal" depart="0250" departPos="0"/>
   <vehicle id="026" route="horizontal" depart="0260" departPos="0"/>
   <vehicle id="027" route="horizontal" depart="0270" departPos="0"/>
   <vehicle id="028" route="horizontal" depart="0280" departPos="0"/>
   <vehicle id="029" route="horizontal" depart="0290" departPos="0"/>
   <vehicle id="030" route="horizontal" depart="0300" departPos="0"/>
   <vehicle id="031" route="horizontal" depart="0310" departPos="0"/>
   <vehicle id="032" route="horizontal" depart="0320" departPos="0"/>
   <vehicle id="033" route="horizontal" depart="0330" departPos="0"/>
   <vehicle id="034" route="horizontal" depart="0340" departPos="0"/>
   <vehicle id="035" route="horizontal" depart="0350" departPos="0"/>
   <vehicle id="036" route="horizontal" depart="0360" departPos="0"/>
   <vehicle id="037" route="horizontal" depart="0370" departPos="0"/>
   <vehicle id="038" route="horizontal" depart="0380" departPos="0"/>
   <vehicle id="039" route="horizontal" depart="0390" departPos="0"/>
   <vehicle id="040" route="horizontal" depart="0400" departPos="0"/>
   <vehicle id="041" route="horizontal" depart="0410" departPos="0"/>
   <vehicle id="042" route="horizontal" depart="0420" departPos="0"/>
   <vehicle id="043" route="horizontal" depart="0430" departPos="0"/>
   <vehicle id="044" route="horizontal" depart="0440" departPos="0"/>
   <vehicle id="045" route="horizontal" depart="0450" departPos="0"/>
   <vehicle id="046" route="horizontal" depart="0460" departPos="0"/>
   <vehicle id="047" route="horizontal" depart="0470" departPos="0"/>
   <vehicle id="048" route="horizontal" depart="0480" departPos="0"/>
   <vehicle id="049" route="horizontal" depart="0490" departPos="0"/>
   <vehicle id="050" route="horizontal" depart="0500" departPos="0"/>
   <vehicle id="051" route="horizontal" depart="0510" departPos="0"/>
   <vehicle id="052" route="horizontal" depart="0520" departPos="0"/>
   <vehicle id="053" route="horizontal" depart="0530" departPos="0"/>
   <vehicle id="054" route="horizontal" depart="0540" departPos="0"/>
   <vehicle id="055" route="horizontal" depart="0550" departPos="0"/>
   <vehicle id="056" route="horizontal" depart="0560" departPos="0"/>
   <vehicle id="057" route="horizontal" depart="0570" departPos="0"/>
   <vehicle id="058" route="horizontal" depart="0580" departPos="0"/>
   <vehicle id="059" route="horizontal" depart="0590" departPos="0"/>
   <vehicle id="060" route="horizontal" depart="0600" departPos="0"/>
   <vehicle id="061" route="horizontal" depart="0610" departPos="0"/>
   <vehicle id="062" route="horizontal" depart="0620" departPos="0"/>
   <vehicle id="063" route="horizontal" depart="0630" departPos="0"/>
   <vehicle id="064" route="horizontal" depart="0640" departPos="0"/>
   <vehicle id="065" route="horizontal" depart="0650" departPos="0"/>
   <vehicle id="066" route="horizontal" depart="0660" departPos="0"/>
   <vehicle id="067" route="horizontal" depart="0670" departPos="0"/>
   <vehicle id="068" route="horizontal" depart="0680" departPos="0"/>
   <vehicle id="069" route="horizontal" depart="0690" departPos="0"/>
   <vehicle id="070" route="horizontal" depart="0700" departPos="0"/>
   <vehicle id="071" route="horizontal" depart="0710" departPos="0"/>
   <vehicle id="072" route="horizontal" depart="0720" departPos="0"/>
   <vehicle id="073" route="horizontal" depart="0730" departPos="0"/>
   <vehicle id="074" route="horizontal" depart="0740" departPos="0"/>
   <vehicle id="075" route="horizontal" depart="0750" departPos="0"/>
   <vehicle id="076" route="horizontal" depart="0760" departPos="0"/>
   <vehicle id="077" route="horizontal" depart="0770" departPos="0"/>
   <vehicle id="078" route="horizontal" depart="0780" departPos="0"/>
   <vehicle id="079" route="horizontal" depart="0790" departPos="0"/>
   <vehicle id="080" route="horizontal" depart="0800" departPos="0"/>
   <vehicle id="081" route="horizontal" depart="0810" departPos="0"/>
   <vehicle id="082" route="horizontal" depart="0820" departPos="0"/>
   <vehicle id="083" route="horizontal" depart="0830" departPos="0"/>
   <vehicle id="084" route="horizontal" depart="0840" departPos="0"/>
   <vehicle id="085" route="horizontal" depart="0850" departPos="0"/>
   <vehicle id="086" route="horizontal" depart="0860" departPos="0"/>
   <vehicle id="087" route="horizontal" depart="0870" departPos="0"/>
   <vehicle id="088" route="horizontal" depart="0880" departPos="0"/>
   <vehicle id="089" route="horizontal" depart="0890" departPos="0"/>
   <vehicle id="090" route="horizontal" depart="0900" departPos="0"/>
   <vehicle id="091" route="horizontal" depart="0910" departPos="0"/>
   <vehicle id="092" route="horizontal" depart="0920" departPos="0"/>
   <vehicle id="093" route="horizontal" depart="0930" departPos="0"/>
   <vehicle id="094" route="horizontal" depart="0940" departPos="0"/>
   <vehicle id="095" route="horizontal" depart="0950" departPos="0"/>
   <vehicle id="096" route="horizontal" depart="0960" departPos="0"/>
   <vehicle id="097" route="horizontal" depart="0970" departPos="0"/>
   <vehicle id="098" route="horizontal" depart="0980" departPos="0"/>
   <vehicle id="099" route="horizontal" depart="0990" departPos="0"/>
</routes> 
