<?xml version="1.0" encoding="UTF-8"?>

<!-- generated on 2025-12-19T17:50:52.401807+01:00 by Eclipse SUMO sumo v1_25_0+0646-5052cf5c68d
This data file and the accompanying materials
are made available under the terms of the Eclipse Public License v2.0
which accompanies this distribution, and is available at
http://www.eclipse.org/legal/epl-v20.html
This file may also be made available under the following Secondary
Licenses when the conditions for such availability set forth in the Eclipse
Public License 2.0 are satisfied: GNU General Public License, version 2
or later which is available at
https://www.gnu.org/licenses/old-licenses/gpl-2.0-standalone.html
SPDX-License-Identifier: EPL-2.0 OR GPL-2.0-or-later
<sumoConfiguration xmlns:xsi="http://www.w3.org/2001/XMLSchema-instance" xsi:noNamespaceSchemaLocation="http://sumo.dlr.de/xsd/sumoConfiguration.xsd">

    <input>
        <net-file value="net.net.xml"/>
        <route-files value="input_routes.rou.xml"/>
        <additional-files value="input_additional.add.xml"/>
    </input>

    <output>
        <write-license value="true"/>
        <tripinfo-output value="tripinfos.xml"/>
        <railsignal-block-output value="railsignal_blocks.xml"/>
    </output>

    <time>
        <end value="200"/>
    </time>

    <processing>
        <time-to-teleport.railsignal-deadlock value="200"/>
        <default.speeddev value="0"/>
    </processing>

    <report>
        <xml-validation value="never"/>
        <duration-log.disable value="true"/>
        <no-step-log value="true"/>
    </report>

    <mesoscopic>
        <mesosim value="true"/>
        <meso-junction-control value="true"/>
    </mesoscopic>

</sumoConfiguration>
-->

<railsignal-block-output>
    <railSignal id="gneJ2">
        <link linkIndex="0" from="gneE1_0" to="gneE2_0">
            <driveWay id="gneJ2.0" vehicle="rail1" edges="gneE2 gneE3 gneE4 gneE5">
                <forward lanes="gneE2_0 gneE3_0"/>
                <bidi lanes=""/>
                <flank lanes=""/>
                <conflictLinks signals=""/>
                <foes driveWays="gneJ2.0"/>
            </driveWay>
        </link>
    </railSignal>
    <railSignal id="gneJ4">
        <link linkIndex="0" from="gneE3_0" to="gneE4_0">
            <driveWay id="gneJ4.0" vehicle="rail1" edges="gneE4 gneE5">
                <forward lanes="gneE4_0 gneE5_0"/>
                <bidi lanes=""/>
                <flank lanes=""/>
                <conflictLinks signals=""/>
                <foes driveWays="gneJ4.0"/>
            </driveWay>
        </link>
    </railSignal>
    <departJunction id="gneJ0">
        <driveWay id="gneJ0.d0" vehicle="rail1" edges="gneE0 gneE1 gneE2 gneE3 gneE4 gneE5">
            <forward lanes="gneE0_0 gneE1_0"/>
            <bidi lanes=""/>
            <flank lanes=""/>
            <conflictLinks signals=""/>
            <foes driveWays="gneJ0.d0"/>
        </driveWay>
    </departJunction>
</railsignal-block-output>
