<?xml version="1.0" encoding="UTF-8"?>
<routes xmlns:xsi="http://www.w3.org/2001/XMLSchema-instance" xsi:noNamespaceSchemaLocation="http://sumo.dlr.de/xsd/routes_file.xsd">
    <vType id="train" vClass="rail"/>
    <person id="person_0" depart="0.00">
        <stop busStop="A" duration="6.00" parking="0"/>
        <ride to="CE" lines="ANY"/>
    </person>
    <trip id="trip_0" type="train" depart="0.00" line="foo" from="WC" to="CE">
        <stop busStop="A" duration="10.00" until="30.00" parking="0"/>
        <stop lane="CE_0" startPos="100" endPos="186.50" speed="1000"/>
    </trip>
</routes>
