<routes xmlns:xsi="http://www.w3.org/2001/XMLSchema-instance" xsi:noNamespaceSchemaLocation="http://sumo-sim.org/xsd/routes_file.xsd">
   <vType id="DEFAULT_VEHTYPE" sigma="0"/>
    <vehicle id="0" departPos="96" depart="0" departSpeed="max" departLane="0" color="1,0,0">
        <route edges="beg e2 e3 end"/>
    </vehicle>
</routes>
