<?xml version="1.0"?>

<!-- generated on 05/04/09 15:49:36 by SUMO sumo Version dev-SVN-r7092
<configuration>

   <input>
      <net-file>net.net.xml</net-file>
      <additional-files>input_routes.rou.xml,input_additional.add.xml,input_additional2.add.xml</additional-files>
   </input>

   <time>
      <begin>0</begin>
      <end>1000</end>
   </time>

   <processing>
      <no-duration-log>true</no-duration-log>
      <no-step-log>true</no-step-log>
   </processing>

   <traci_server>
      <remote-port>8863</remote-port>
      <penetration>0.7</penetration>
   </traci_server>

</configuration>
-->

<e3-detector>
   <interval begin="0" end="1" id="3/1to2/1" meanTravelTime="-1.00" meanSpeed="-1.00" meanHaltsPerVehicle="-1.00" vehicleSum="0" meanSpeedWithin="-1.00" meanHaltsPerVehicleWithin="-1.00" meanDurationWithin="-1.00" vehicleSumWithin="0" meanIntervalSpeedWithin="-1.00" meanIntervalHaltsPerVehicleWithin="-1.00" meanIntervalDurationWithin="-1.00"/>
   <interval begin="1" end="2" id="3/1to2/1" meanTravelTime="-1.00" meanSpeed="-1.00" meanHaltsPerVehicle="-1.00" vehicleSum="0" meanSpeedWithin="-1.00" meanHaltsPerVehicleWithin="-1.00" meanDurationWithin="-1.00" vehicleSumWithin="0" meanIntervalSpeedWithin="-1.00" meanIntervalHaltsPerVehicleWithin="-1.00" meanIntervalDurationWithin="-1.00"/>
   <interval begin="2" end="3" id="3/1to2/1" meanTravelTime="-1.00" meanSpeed="-1.00" meanHaltsPerVehicle="-1.00" vehicleSum="0" meanSpeedWithin="-1.00" meanHaltsPerVehicleWithin="-1.00" meanDurationWithin="-1.00" vehicleSumWithin="0" meanIntervalSpeedWithin="-1.00" meanIntervalHaltsPerVehicleWithin="-1.00" meanIntervalDurationWithin="-1.00"/>
   <interval begin="3" end="4" id="3/1to2/1" meanTravelTime="-1.00" meanSpeed="-1.00" meanHaltsPerVehicle="-1.00" vehicleSum="0" meanSpeedWithin="-1.00" meanHaltsPerVehicleWithin="-1.00" meanDurationWithin="-1.00" vehicleSumWithin="0" meanIntervalSpeedWithin="-1.00" meanIntervalHaltsPerVehicleWithin="-1.00" meanIntervalDurationWithin="-1.00"/>
   <interval begin="4" end="5" id="3/1to2/1" meanTravelTime="-1.00" meanSpeed="-1.00" meanHaltsPerVehicle="-1.00" vehicleSum="0" meanSpeedWithin="-1.00" meanHaltsPerVehicleWithin="-1.00" meanDurationWithin="-1.00" vehicleSumWithin="0" meanIntervalSpeedWithin="-1.00" meanIntervalHaltsPerVehicleWithin="-1.00" meanIntervalDurationWithin="-1.00"/>
   <interval begin="5" end="6" id="3/1to2/1" meanTravelTime="-1.00" meanSpeed="-1.00" meanHaltsPerVehicle="-1.00" vehicleSum="0" meanSpeedWithin="-1.00" meanHaltsPerVehicleWithin="-1.00" meanDurationWithin="-1.00" vehicleSumWithin="0" meanIntervalSpeedWithin="-1.00" meanIntervalHaltsPerVehicleWithin="-1.00" meanIntervalDurationWithin="-1.00"/>
   <interval begin="6" end="7" id="3/1to2/1" meanTravelTime="-1.00" meanSpeed="-1.00" meanHaltsPerVehicle="-1.00" vehicleSum="0" meanSpeedWithin="-1.00" meanHaltsPerVehicleWithin="-1.00" meanDurationWithin="-1.00" vehicleSumWithin="0" meanIntervalSpeedWithin="-1.00" meanIntervalHaltsPerVehicleWithin="-1.00" meanIntervalDurationWithin="-1.00"/>
   <interval begin="7" end="8" id="3/1to2/1" meanTravelTime="-1.00" meanSpeed="-1.00" meanHaltsPerVehicle="-1.00" vehicleSum="0" meanSpeedWithin="-1.00" meanHaltsPerVehicleWithin="-1.00" meanDurationWithin="-1.00" vehicleSumWithin="0" meanIntervalSpeedWithin="-1.00" meanIntervalHaltsPerVehicleWithin="-1.00" meanIntervalDurationWithin="-1.00"/>
   <interval begin="8" end="9" id="3/1to2/1" meanTravelTime="-1.00" meanSpeed="-1.00" meanHaltsPerVehicle="-1.00" vehicleSum="0" meanSpeedWithin="-1.00" meanHaltsPerVehicleWithin="-1.00" meanDurationWithin="-1.00" vehicleSumWithin="0" meanIntervalSpeedWithin="-1.00" meanIntervalHaltsPerVehicleWithin="-1.00" meanIntervalDurationWithin="-1.00"/>
   <interval begin="9" end="10" id="3/1to2/1" meanTravelTime="-1.00" meanSpeed="-1.00" meanHaltsPerVehicle="-1.00" vehicleSum="0" meanSpeedWithin="-1.00" meanHaltsPerVehicleWithin="-1.00" meanDurationWithin="-1.00" vehicleSumWithin="0" meanIntervalSpeedWithin="-1.00" meanIntervalHaltsPerVehicleWithin="-1.00" meanIntervalDurationWithin="-1.00"/>
   <interval begin="10" end="11" id="3/1to2/1" meanTravelTime="-1.00" meanSpeed="-1.00" meanHaltsPerVehicle="-1.00" vehicleSum="0" meanSpeedWithin="-1.00" meanHaltsPerVehicleWithin="-1.00" meanDurationWithin="-1.00" vehicleSumWithin="0" meanIntervalSpeedWithin="-1.00" meanIntervalHaltsPerVehicleWithin="-1.00" meanIntervalDurationWithin="-1.00"/>
   <interval begin="11" end="12" id="3/1to2/1" meanTravelTime="-1.00" meanSpeed="-1.00" meanHaltsPerVehicle="-1.00" vehicleSum="0" meanSpeedWithin="-1.00" meanHaltsPerVehicleWithin="-1.00" meanDurationWithin="-1.00" vehicleSumWithin="0" meanIntervalSpeedWithin="-1.00" meanIntervalHaltsPerVehicleWithin="-1.00" meanIntervalDurationWithin="-1.00"/>
   <interval begin="12" end="13" id="3/1to2/1" meanTravelTime="-1.00" meanSpeed="-1.00" meanHaltsPerVehicle="-1.00" vehicleSum="0" meanSpeedWithin="-1.00" meanHaltsPerVehicleWithin="-1.00" meanDurationWithin="-1.00" vehicleSumWithin="0" meanIntervalSpeedWithin="-1.00" meanIntervalHaltsPerVehicleWithin="-1.00" meanIntervalDurationWithin="-1.00"/>
   <interval begin="13" end="14" id="3/1to2/1" meanTravelTime="-1.00" meanSpeed="-1.00" meanHaltsPerVehicle="-1.00" vehicleSum="0" meanSpeedWithin="-1.00" meanHaltsPerVehicleWithin="-1.00" meanDurationWithin="-1.00" vehicleSumWithin="0" meanIntervalSpeedWithin="-1.00" meanIntervalHaltsPerVehicleWithin="-1.00" meanIntervalDurationWithin="-1.00"/>
   <interval begin="14" end="15" id="3/1to2/1" meanTravelTime="-1.00" meanSpeed="-1.00" meanHaltsPerVehicle="-1.00" vehicleSum="0" meanSpeedWithin="-1.00" meanHaltsPerVehicleWithin="-1.00" meanDurationWithin="-1.00" vehicleSumWithin="0" meanIntervalSpeedWithin="-1.00" meanIntervalHaltsPerVehicleWithin="-1.00" meanIntervalDurationWithin="-1.00"/>
   <interval begin="15" end="16" id="3/1to2/1" meanTravelTime="-1.00" meanSpeed="-1.00" meanHaltsPerVehicle="-1.00" vehicleSum="0" meanSpeedWithin="-1.00" meanHaltsPerVehicleWithin="-1.00" meanDurationWithin="-1.00" vehicleSumWithin="0" meanIntervalSpeedWithin="-1.00" meanIntervalHaltsPerVehicleWithin="-1.00" meanIntervalDurationWithin="-1.00"/>
   <interval begin="16" end="17" id="3/1to2/1" meanTravelTime="-1.00" meanSpeed="-1.00" meanHaltsPerVehicle="-1.00" vehicleSum="0" meanSpeedWithin="-1.00" meanHaltsPerVehicleWithin="-1.00" meanDurationWithin="-1.00" vehicleSumWithin="0" meanIntervalSpeedWithin="-1.00" meanIntervalHaltsPerVehicleWithin="-1.00" meanIntervalDurationWithin="-1.00"/>
   <interval begin="17" end="18" id="3/1to2/1" meanTravelTime="-1.00" meanSpeed="-1.00" meanHaltsPerVehicle="-1.00" vehicleSum="0" meanSpeedWithin="-1.00" meanHaltsPerVehicleWithin="-1.00" meanDurationWithin="-1.00" vehicleSumWithin="0" meanIntervalSpeedWithin="-1.00" meanIntervalHaltsPerVehicleWithin="-1.00" meanIntervalDurationWithin="-1.00"/>
   <interval begin="18" end="19" id="3/1to2/1" meanTravelTime="-1.00" meanSpeed="-1.00" meanHaltsPerVehicle="-1.00" vehicleSum="0" meanSpeedWithin="-1.00" meanHaltsPerVehicleWithin="-1.00" meanDurationWithin="-1.00" vehicleSumWithin="0" meanIntervalSpeedWithin="-1.00" meanIntervalHaltsPerVehicleWithin="-1.00" meanIntervalDurationWithin="-1.00"/>
   <interval begin="19" end="20" id="3/1to2/1" meanTravelTime="-1.00" meanSpeed="-1.00" meanHaltsPerVehicle="-1.00" vehicleSum="0" meanSpeedWithin="-1.00" meanHaltsPerVehicleWithin="-1.00" meanDurationWithin="-1.00" vehicleSumWithin="0" meanIntervalSpeedWithin="-1.00" meanIntervalHaltsPerVehicleWithin="-1.00" meanIntervalDurationWithin="-1.00"/>
   <interval begin="20" end="21" id="3/1to2/1" meanTravelTime="-1.00" meanSpeed="-1.00" meanHaltsPerVehicle="-1.00" vehicleSum="0" meanSpeedWithin="-1.00" meanHaltsPerVehicleWithin="-1.00" meanDurationWithin="-1.00" vehicleSumWithin="0" meanIntervalSpeedWithin="-1.00" meanIntervalHaltsPerVehicleWithin="-1.00" meanIntervalDurationWithin="-1.00"/>
   <interval begin="21" end="22" id="3/1to2/1" meanTravelTime="-1.00" meanSpeed="-1.00" meanHaltsPerVehicle="-1.00" vehicleSum="0" meanSpeedWithin="-1.00" meanHaltsPerVehicleWithin="-1.00" meanDurationWithin="-1.00" vehicleSumWithin="0" meanIntervalSpeedWithin="-1.00" meanIntervalHaltsPerVehicleWithin="-1.00" meanIntervalDurationWithin="-1.00"/>
   <interval begin="22" end="23" id="3/1to2/1" meanTravelTime="-1.00" meanSpeed="-1.00" meanHaltsPerVehicle="-1.00" vehicleSum="0" meanSpeedWithin="-1.00" meanHaltsPerVehicleWithin="-1.00" meanDurationWithin="-1.00" vehicleSumWithin="0" meanIntervalSpeedWithin="-1.00" meanIntervalHaltsPerVehicleWithin="-1.00" meanIntervalDurationWithin="-1.00"/>
   <interval begin="23" end="24" id="3/1to2/1" meanTravelTime="-1.00" meanSpeed="-1.00" meanHaltsPerVehicle="-1.00" vehicleSum="0" meanSpeedWithin="-1.00" meanHaltsPerVehicleWithin="-1.00" meanDurationWithin="-1.00" vehicleSumWithin="0" meanIntervalSpeedWithin="-1.00" meanIntervalHaltsPerVehicleWithin="-1.00" meanIntervalDurationWithin="-1.00"/>
   <interval begin="24" end="25" id="3/1to2/1" meanTravelTime="-1.00" meanSpeed="-1.00" meanHaltsPerVehicle="-1.00" vehicleSum="0" meanSpeedWithin="-1.00" meanHaltsPerVehicleWithin="-1.00" meanDurationWithin="-1.00" vehicleSumWithin="0" meanIntervalSpeedWithin="-1.00" meanIntervalHaltsPerVehicleWithin="-1.00" meanIntervalDurationWithin="-1.00"/>
   <interval begin="25" end="26" id="3/1to2/1" meanTravelTime="-1.00" meanSpeed="-1.00" meanHaltsPerVehicle="-1.00" vehicleSum="0" meanSpeedWithin="-1.00" meanHaltsPerVehicleWithin="-1.00" meanDurationWithin="-1.00" vehicleSumWithin="0" meanIntervalSpeedWithin="-1.00" meanIntervalHaltsPerVehicleWithin="-1.00" meanIntervalDurationWithin="-1.00"/>
   <interval begin="26" end="27" id="3/1to2/1" meanTravelTime="-1.00" meanSpeed="-1.00" meanHaltsPerVehicle="-1.00" vehicleSum="0" meanSpeedWithin="-1.00" meanHaltsPerVehicleWithin="-1.00" meanDurationWithin="-1.00" vehicleSumWithin="0" meanIntervalSpeedWithin="-1.00" meanIntervalHaltsPerVehicleWithin="-1.00" meanIntervalDurationWithin="-1.00"/>
   <interval begin="27" end="28" id="3/1to2/1" meanTravelTime="-1.00" meanSpeed="-1.00" meanHaltsPerVehicle="-1.00" vehicleSum="0" meanSpeedWithin="-1.00" meanHaltsPerVehicleWithin="-1.00" meanDurationWithin="-1.00" vehicleSumWithin="0" meanIntervalSpeedWithin="-1.00" meanIntervalHaltsPerVehicleWithin="-1.00" meanIntervalDurationWithin="-1.00"/>
   <interval begin="28" end="29" id="3/1to2/1" meanTravelTime="-1.00" meanSpeed="-1.00" meanHaltsPerVehicle="-1.00" vehicleSum="0" meanSpeedWithin="-1.00" meanHaltsPerVehicleWithin="-1.00" meanDurationWithin="-1.00" vehicleSumWithin="0" meanIntervalSpeedWithin="-1.00" meanIntervalHaltsPerVehicleWithin="-1.00" meanIntervalDurationWithin="-1.00"/>
   <interval begin="29" end="30" id="3/1to2/1" meanTravelTime="-1.00" meanSpeed="-1.00" meanHaltsPerVehicle="-1.00" vehicleSum="0" meanSpeedWithin="-1.00" meanHaltsPerVehicleWithin="-1.00" meanDurationWithin="-1.00" vehicleSumWithin="0" meanIntervalSpeedWithin="-1.00" meanIntervalHaltsPerVehicleWithin="-1.00" meanIntervalDurationWithin="-1.00"/>
   <interval begin="30" end="31" id="3/1to2/1" meanTravelTime="-1.00" meanSpeed="-1.00" meanHaltsPerVehicle="-1.00" vehicleSum="0" meanSpeedWithin="-1.00" meanHaltsPerVehicleWithin="-1.00" meanDurationWithin="-1.00" vehicleSumWithin="0" meanIntervalSpeedWithin="-1.00" meanIntervalHaltsPerVehicleWithin="-1.00" meanIntervalDurationWithin="-1.00"/>
   <interval begin="31" end="32" id="3/1to2/1" meanTravelTime="-1.00" meanSpeed="-1.00" meanHaltsPerVehicle="-1.00" vehicleSum="0" meanSpeedWithin="-1.00" meanHaltsPerVehicleWithin="-1.00" meanDurationWithin="-1.00" vehicleSumWithin="0" meanIntervalSpeedWithin="-1.00" meanIntervalHaltsPerVehicleWithin="-1.00" meanIntervalDurationWithin="-1.00"/>
   <interval begin="32" end="33" id="3/1to2/1" meanTravelTime="-1.00" meanSpeed="-1.00" meanHaltsPerVehicle="-1.00" vehicleSum="0" meanSpeedWithin="-1.00" meanHaltsPerVehicleWithin="-1.00" meanDurationWithin="-1.00" vehicleSumWithin="0" meanIntervalSpeedWithin="-1.00" meanIntervalHaltsPerVehicleWithin="-1.00" meanIntervalDurationWithin="-1.00"/>
   <interval begin="33" end="34" id="3/1to2/1" meanTravelTime="-1.00" meanSpeed="-1.00" meanHaltsPerVehicle="-1.00" vehicleSum="0" meanSpeedWithin="-1.00" meanHaltsPerVehicleWithin="-1.00" meanDurationWithin="-1.00" vehicleSumWithin="0" meanIntervalSpeedWithin="-1.00" meanIntervalHaltsPerVehicleWithin="-1.00" meanIntervalDurationWithin="-1.00"/>
   <interval begin="34" end="35" id="3/1to2/1" meanTravelTime="-1.00" meanSpeed="-1.00" meanHaltsPerVehicle="-1.00" vehicleSum="0" meanSpeedWithin="-1.00" meanHaltsPerVehicleWithin="-1.00" meanDurationWithin="-1.00" vehicleSumWithin="0" meanIntervalSpeedWithin="-1.00" meanIntervalHaltsPerVehicleWithin="-1.00" meanIntervalDurationWithin="-1.00"/>
   <interval begin="35" end="36" id="3/1to2/1" meanTravelTime="-1.00" meanSpeed="-1.00" meanHaltsPerVehicle="-1.00" vehicleSum="0" meanSpeedWithin="-1.00" meanHaltsPerVehicleWithin="-1.00" meanDurationWithin="-1.00" vehicleSumWithin="0" meanIntervalSpeedWithin="-1.00" meanIntervalHaltsPerVehicleWithin="-1.00" meanIntervalDurationWithin="-1.00"/>
   <interval begin="36" end="37" id="3/1to2/1" meanTravelTime="-1.00" meanSpeed="-1.00" meanHaltsPerVehicle="-1.00" vehicleSum="0" meanSpeedWithin="-1.00" meanHaltsPerVehicleWithin="-1.00" meanDurationWithin="-1.00" vehicleSumWithin="0" meanIntervalSpeedWithin="-1.00" meanIntervalHaltsPerVehicleWithin="-1.00" meanIntervalDurationWithin="-1.00"/>
   <interval begin="37" end="38" id="3/1to2/1" meanTravelTime="-1.00" meanSpeed="-1.00" meanHaltsPerVehicle="-1.00" vehicleSum="0" meanSpeedWithin="-1.00" meanHaltsPerVehicleWithin="-1.00" meanDurationWithin="-1.00" vehicleSumWithin="0" meanIntervalSpeedWithin="-1.00" meanIntervalHaltsPerVehicleWithin="-1.00" meanIntervalDurationWithin="-1.00"/>
   <interval begin="38" end="39" id="3/1to2/1" meanTravelTime="-1.00" meanSpeed="-1.00" meanHaltsPerVehicle="-1.00" vehicleSum="0" meanSpeedWithin="-1.00" meanHaltsPerVehicleWithin="-1.00" meanDurationWithin="-1.00" vehicleSumWithin="0" meanIntervalSpeedWithin="-1.00" meanIntervalHaltsPerVehicleWithin="-1.00" meanIntervalDurationWithin="-1.00"/>
   <interval begin="39" end="40" id="3/1to2/1" meanTravelTime="-1.00" meanSpeed="-1.00" meanHaltsPerVehicle="-1.00" vehicleSum="0" meanSpeedWithin="-1.00" meanHaltsPerVehicleWithin="-1.00" meanDurationWithin="-1.00" vehicleSumWithin="0" meanIntervalSpeedWithin="-1.00" meanIntervalHaltsPerVehicleWithin="-1.00" meanIntervalDurationWithin="-1.00"/>
   <interval begin="40" end="41" id="3/1to2/1" meanTravelTime="-1.00" meanSpeed="-1.00" meanHaltsPerVehicle="-1.00" vehicleSum="0" meanSpeedWithin="10.00" meanHaltsPerVehicleWithin="0.00" meanDurationWithin="0.95" vehicleSumWithin="1" meanIntervalSpeedWithin="10.00" meanIntervalHaltsPerVehicleWithin="0.00" meanIntervalDurationWithin="0.95"/>
   <interval begin="41" end="42" id="3/1to2/1" meanTravelTime="-1.00" meanSpeed="-1.00" meanHaltsPerVehicle="-1.00" vehicleSum="0" meanSpeedWithin="10.00" meanHaltsPerVehicleWithin="0.00" meanDurationWithin="1.95" vehicleSumWithin="1" meanIntervalSpeedWithin="10.00" meanIntervalHaltsPerVehicleWithin="0.00" meanIntervalDurationWithin="1.00"/>
   <interval begin="42" end="43" id="3/1to2/1" meanTravelTime="-1.00" meanSpeed="-1.00" meanHaltsPerVehicle="-1.00" vehicleSum="0" meanSpeedWithin="10.00" meanHaltsPerVehicleWithin="0.00" meanDurationWithin="2.95" vehicleSumWithin="1" meanIntervalSpeedWithin="10.00" meanIntervalHaltsPerVehicleWithin="0.00" meanIntervalDurationWithin="1.00"/>
   <interval begin="43" end="44" id="3/1to2/1" meanTravelTime="-1.00" meanSpeed="-1.00" meanHaltsPerVehicle="-1.00" vehicleSum="0" meanSpeedWithin="10.00" meanHaltsPerVehicleWithin="0.00" meanDurationWithin="3.95" vehicleSumWithin="1" meanIntervalSpeedWithin="10.00" meanIntervalHaltsPerVehicleWithin="0.00" meanIntervalDurationWithin="1.00"/>
   <interval begin="44" end="45" id="3/1to2/1" meanTravelTime="-1.00" meanSpeed="-1.00" meanHaltsPerVehicle="-1.00" vehicleSum="0" meanSpeedWithin="10.00" meanHaltsPerVehicleWithin="0.00" meanDurationWithin="4.95" vehicleSumWithin="1" meanIntervalSpeedWithin="10.00" meanIntervalHaltsPerVehicleWithin="0.00" meanIntervalDurationWithin="1.00"/>
   <interval begin="45" end="46" id="3/1to2/1" meanTravelTime="-1.00" meanSpeed="-1.00" meanHaltsPerVehicle="-1.00" vehicleSum="0" meanSpeedWithin="10.00" meanHaltsPerVehicleWithin="0.00" meanDurationWithin="5.95" vehicleSumWithin="1" meanIntervalSpeedWithin="10.00" meanIntervalHaltsPerVehicleWithin="0.00" meanIntervalDurationWithin="1.00"/>
   <interval begin="46" end="47" id="3/1to2/1" meanTravelTime="-1.00" meanSpeed="-1.00" meanHaltsPerVehicle="-1.00" vehicleSum="0" meanSpeedWithin="10.00" meanHaltsPerVehicleWithin="0.00" meanDurationWithin="6.95" vehicleSumWithin="1" meanIntervalSpeedWithin="10.00" meanIntervalHaltsPerVehicleWithin="0.00" meanIntervalDurationWithin="1.00"/>
   <interval begin="47" end="48" id="3/1to2/1" meanTravelTime="-1.00" meanSpeed="-1.00" meanHaltsPerVehicle="-1.00" vehicleSum="0" meanSpeedWithin="10.00" meanHaltsPerVehicleWithin="0.00" meanDurationWithin="7.95" vehicleSumWithin="1" meanIntervalSpeedWithin="10.00" meanIntervalHaltsPerVehicleWithin="0.00" meanIntervalDurationWithin="1.00"/>
   <interval begin="48" end="49" id="3/1to2/1" meanTravelTime="-1.00" meanSpeed="-1.00" meanHaltsPerVehicle="-1.00" vehicleSum="0" meanSpeedWithin="10.00" meanHaltsPerVehicleWithin="0.00" meanDurationWithin="8.95" vehicleSumWithin="1" meanIntervalSpeedWithin="10.00" meanIntervalHaltsPerVehicleWithin="0.00" meanIntervalDurationWithin="1.00"/>
   <interval begin="49" end="50" id="3/1to2/1" meanTravelTime="-1.00" meanSpeed="-1.00" meanHaltsPerVehicle="-1.00" vehicleSum="0" meanSpeedWithin="10.00" meanHaltsPerVehicleWithin="0.00" meanDurationWithin="9.95" vehicleSumWithin="1" meanIntervalSpeedWithin="10.00" meanIntervalHaltsPerVehicleWithin="0.00" meanIntervalDurationWithin="1.00"/>
</e3-detector>
