<routes>
    <vType id="fwd0" vClass="pedestrian" width="0.7" length="0.35" minGap="0.2" maxSpeed="1.18146025765" guiShape="pedestrian" color="blue"/>
    <person id="fwd0" type="fwd0" depart="1">
        <walk edges="WC" departPos="0.0" arrivalPos="-1.0"/>
    </person>
    <vType id="fwd1" vClass="pedestrian" width="0.7" length="0.35" minGap="0.2" maxSpeed="1.46034168036" guiShape="pedestrian" color="blue"/>
    <person id="fwd1" type="fwd1" depart="3">
        <walk edges="WC" departPos="0.0" arrivalPos="-1.0"/>
    </person>
    <vType id="fwd2" vClass="pedestrian" width="0.7" length="0.35" minGap="0.2" maxSpeed="0.717742551417" guiShape="pedestrian" color="blue"/>
    <person id="fwd2" type="fwd2" depart="5">
        <walk edges="WC" departPos="0.0" arrivalPos="-1.0"/>
    </person>
    <vType id="fwd3" vClass="pedestrian" width="0.7" length="0.35" minGap="0.2" maxSpeed="0.966228034014" guiShape="pedestrian" color="blue"/>
    <person id="fwd3" type="fwd3" depart="6">
        <walk edges="WC" departPos="0.0" arrivalPos="-1.0"/>
    </person>
    <vType id="fwd4" vClass="pedestrian" width="0.7" length="0.35" minGap="0.2" maxSpeed="1.48513258082" guiShape="pedestrian" color="blue"/>
    <person id="fwd4" type="fwd4" depart="12">
        <walk edges="WC" departPos="0.0" arrivalPos="-1.0"/>
    </person>
    <vType id="fwd5" vClass="pedestrian" width="0.7" length="0.35" minGap="0.2" maxSpeed="0.979673912579" guiShape="pedestrian" color="blue"/>
    <person id="fwd5" type="fwd5" depart="16">
        <walk edges="WC" departPos="0.0" arrivalPos="-1.0"/>
    </person>
    <vType id="fwd6" vClass="pedestrian" width="0.7" length="0.35" minGap="0.2" maxSpeed="1.19923726566" guiShape="pedestrian" color="blue"/>
    <person id="fwd6" type="fwd6" depart="19">
        <walk edges="WC" departPos="0.0" arrivalPos="-1.0"/>
    </person>
    <vType id="fwd7" vClass="pedestrian" width="0.7" length="0.35" minGap="0.2" maxSpeed="1.2396243933" guiShape="pedestrian" color="blue"/>
    <person id="fwd7" type="fwd7" depart="20">
        <walk edges="WC" departPos="0.0" arrivalPos="-1.0"/>
    </person>
    <vType id="fwd8" vClass="pedestrian" width="0.7" length="0.35" minGap="0.2" maxSpeed="1.28927831733" guiShape="pedestrian" color="blue"/>
    <person id="fwd8" type="fwd8" depart="21">
        <walk edges="WC" departPos="0.0" arrivalPos="-1.0"/>
    </person>
    <vType id="fwd9" vClass="pedestrian" width="0.7" length="0.35" minGap="0.2" maxSpeed="1.09126569704" guiShape="pedestrian" color="blue"/>
    <person id="fwd9" type="fwd9" depart="22">
        <walk edges="WC" departPos="0.0" arrivalPos="-1.0"/>
    </person>
    <vType id="fwd10" vClass="pedestrian" width="0.7" length="0.35" minGap="0.2" maxSpeed="1.31018468613" guiShape="pedestrian" color="blue"/>
    <person id="fwd10" type="fwd10" depart="28">
        <walk edges="WC" departPos="0.0" arrivalPos="-1.0"/>
    </person>
    <vType id="fwd11" vClass="pedestrian" width="0.7" length="0.35" minGap="0.2" maxSpeed="1.16286836963" guiShape="pedestrian" color="blue"/>
    <person id="fwd11" type="fwd11" depart="36">
        <walk edges="WC" departPos="0.0" arrivalPos="-1.0"/>
    </person>
    <vType id="fwd12" vClass="pedestrian" width="0.7" length="0.35" minGap="0.2" maxSpeed="1.04995736638" guiShape="pedestrian" color="blue"/>
    <person id="fwd12" type="fwd12" depart="37">
        <walk edges="WC" departPos="0.0" arrivalPos="-1.0"/>
    </person>
    <vType id="fwd13" vClass="pedestrian" width="0.7" length="0.35" minGap="0.2" maxSpeed="1.13859657458" guiShape="pedestrian" color="blue"/>
    <person id="fwd13" type="fwd13" depart="42">
        <walk edges="WC" departPos="0.0" arrivalPos="-1.0"/>
    </person>
    <vType id="fwd14" vClass="pedestrian" width="0.7" length="0.35" minGap="0.2" maxSpeed="0.739237823866" guiShape="pedestrian" color="blue"/>
    <person id="fwd14" type="fwd14" depart="43">
        <walk edges="WC" departPos="0.0" arrivalPos="-1.0"/>
    </person>
    <vType id="fwd15" vClass="pedestrian" width="0.7" length="0.35" minGap="0.2" maxSpeed="1.03927743893" guiShape="pedestrian" color="blue"/>
    <person id="fwd15" type="fwd15" depart="49">
        <walk edges="WC" departPos="0.0" arrivalPos="-1.0"/>
    </person>
    <vType id="fwd16" vClass="pedestrian" width="0.7" length="0.35" minGap="0.2" maxSpeed="1.27969693994" guiShape="pedestrian" color="blue"/>
    <person id="fwd16" type="fwd16" depart="55">
        <walk edges="WC" departPos="0.0" arrivalPos="-1.0"/>
    </person>
    <vType id="fwd17" vClass="pedestrian" width="0.7" length="0.35" minGap="0.2" maxSpeed="1.20117111311" guiShape="pedestrian" color="blue"/>
    <person id="fwd17" type="fwd17" depart="57">
        <walk edges="WC" departPos="0.0" arrivalPos="-1.0"/>
    </person>
    <vType id="fwd18" vClass="pedestrian" width="0.7" length="0.35" minGap="0.2" maxSpeed="1.20230832065" guiShape="pedestrian" color="blue"/>
    <person id="fwd18" type="fwd18" depart="59">
        <walk edges="WC" departPos="0.0" arrivalPos="-1.0"/>
    </person>
    <vType id="fwd19" vClass="pedestrian" width="0.7" length="0.35" minGap="0.2" maxSpeed="1.49275501583" guiShape="pedestrian" color="blue"/>
    <person id="fwd19" type="fwd19" depart="60">
        <walk edges="WC" departPos="0.0" arrivalPos="-1.0"/>
    </person>
    <vType id="fwd20" vClass="pedestrian" width="0.7" length="0.35" minGap="0.2" maxSpeed="1.06699886772" guiShape="pedestrian" color="blue"/>
    <person id="fwd20" type="fwd20" depart="65">
        <walk edges="WC" departPos="0.0" arrivalPos="-1.0"/>
    </person>
    <vType id="fwd21" vClass="pedestrian" width="0.7" length="0.35" minGap="0.2" maxSpeed="0.703460654514" guiShape="pedestrian" color="blue"/>
    <person id="fwd21" type="fwd21" depart="66">
        <walk edges="WC" departPos="0.0" arrivalPos="-1.0"/>
    </person>
    <vType id="fwd22" vClass="pedestrian" width="0.7" length="0.35" minGap="0.2" maxSpeed="1.31816753389" guiShape="pedestrian" color="blue"/>
    <person id="fwd22" type="fwd22" depart="71">
        <walk edges="WC" departPos="0.0" arrivalPos="-1.0"/>
    </person>
    <vType id="fwd23" vClass="pedestrian" width="0.7" length="0.35" minGap="0.2" maxSpeed="1.14250179045" guiShape="pedestrian" color="blue"/>
    <person id="fwd23" type="fwd23" depart="73">
        <walk edges="WC" departPos="0.0" arrivalPos="-1.0"/>
    </person>
    <vType id="fwd24" vClass="pedestrian" width="0.7" length="0.35" minGap="0.2" maxSpeed="0.876175614894" guiShape="pedestrian" color="blue"/>
    <person id="fwd24" type="fwd24" depart="81">
        <walk edges="WC" departPos="0.0" arrivalPos="-1.0"/>
    </person>
    <vType id="fwd25" vClass="pedestrian" width="0.7" length="0.35" minGap="0.2" maxSpeed="1.40625116466" guiShape="pedestrian" color="blue"/>
    <person id="fwd25" type="fwd25" depart="82">
        <walk edges="WC" departPos="0.0" arrivalPos="-1.0"/>
    </person>
    <vType id="fwd26" vClass="pedestrian" width="0.7" length="0.35" minGap="0.2" maxSpeed="0.828873822908" guiShape="pedestrian" color="blue"/>
    <person id="fwd26" type="fwd26" depart="84">
        <walk edges="WC" departPos="0.0" arrivalPos="-1.0"/>
    </person>
    <vType id="fwd27" vClass="pedestrian" width="0.7" length="0.35" minGap="0.2" maxSpeed="1.41934286879" guiShape="pedestrian" color="blue"/>
    <person id="fwd27" type="fwd27" depart="93">
        <walk edges="WC" departPos="0.0" arrivalPos="-1.0"/>
    </person>
    <vType id="fwd28" vClass="pedestrian" width="0.7" length="0.35" minGap="0.2" maxSpeed="1.04622483338" guiShape="pedestrian" color="blue"/>
    <person id="fwd28" type="fwd28" depart="94">
        <walk edges="WC" departPos="0.0" arrivalPos="-1.0"/>
    </person>
    <vType id="fwd29" vClass="pedestrian" width="0.7" length="0.35" minGap="0.2" maxSpeed="1.47171998045" guiShape="pedestrian" color="blue"/>
    <person id="fwd29" type="fwd29" depart="97">
        <walk edges="WC" departPos="0.0" arrivalPos="-1.0"/>
    </person>
    <vType id="fwd30" vClass="pedestrian" width="0.7" length="0.35" minGap="0.2" maxSpeed="0.757988409177" guiShape="pedestrian" color="blue"/>
    <person id="fwd30" type="fwd30" depart="101">
        <walk edges="WC" departPos="0.0" arrivalPos="-1.0"/>
    </person>
    <vType id="fwd31" vClass="pedestrian" width="0.7" length="0.35" minGap="0.2" maxSpeed="1.49331377145" guiShape="pedestrian" color="blue"/>
    <person id="fwd31" type="fwd31" depart="103">
        <walk edges="WC" departPos="0.0" arrivalPos="-1.0"/>
    </person>
    <vType id="fwd32" vClass="pedestrian" width="0.7" length="0.35" minGap="0.2" maxSpeed="1.04517178193" guiShape="pedestrian" color="blue"/>
    <person id="fwd32" type="fwd32" depart="105">
        <walk edges="WC" departPos="0.0" arrivalPos="-1.0"/>
    </person>
    <vType id="fwd33" vClass="pedestrian" width="0.7" length="0.35" minGap="0.2" maxSpeed="0.983351005889" guiShape="pedestrian" color="blue"/>
    <person id="fwd33" type="fwd33" depart="107">
        <walk edges="WC" departPos="0.0" arrivalPos="-1.0"/>
    </person>
    <vType id="fwd34" vClass="pedestrian" width="0.7" length="0.35" minGap="0.2" maxSpeed="1.48133856908" guiShape="pedestrian" color="blue"/>
    <person id="fwd34" type="fwd34" depart="109">
        <walk edges="WC" departPos="0.0" arrivalPos="-1.0"/>
    </person>
    <vType id="fwd35" vClass="pedestrian" width="0.7" length="0.35" minGap="0.2" maxSpeed="1.4214989288" guiShape="pedestrian" color="blue"/>
    <person id="fwd35" type="fwd35" depart="110">
        <walk edges="WC" departPos="0.0" arrivalPos="-1.0"/>
    </person>
    <vType id="fwd36" vClass="pedestrian" width="0.7" length="0.35" minGap="0.2" maxSpeed="0.762031313563" guiShape="pedestrian" color="blue"/>
    <person id="fwd36" type="fwd36" depart="111">
        <walk edges="WC" departPos="0.0" arrivalPos="-1.0"/>
    </person>
    <vType id="fwd37" vClass="pedestrian" width="0.7" length="0.35" minGap="0.2" maxSpeed="1.31784953333" guiShape="pedestrian" color="blue"/>
    <person id="fwd37" type="fwd37" depart="120">
        <walk edges="WC" departPos="0.0" arrivalPos="-1.0"/>
    </person>
    <vType id="fwd38" vClass="pedestrian" width="0.7" length="0.35" minGap="0.2" maxSpeed="0.817588471907" guiShape="pedestrian" color="blue"/>
    <person id="fwd38" type="fwd38" depart="127">
        <walk edges="WC" departPos="0.0" arrivalPos="-1.0"/>
    </person>
    <vType id="fwd39" vClass="pedestrian" width="0.7" length="0.35" minGap="0.2" maxSpeed="1.21110589604" guiShape="pedestrian" color="blue"/>
    <person id="fwd39" type="fwd39" depart="130">
        <walk edges="WC" departPos="0.0" arrivalPos="-1.0"/>
    </person>
    <vType id="fwd40" vClass="pedestrian" width="0.7" length="0.35" minGap="0.2" maxSpeed="1.16295156092" guiShape="pedestrian" color="blue"/>
    <person id="fwd40" type="fwd40" depart="131">
        <walk edges="WC" departPos="0.0" arrivalPos="-1.0"/>
    </person>
    <vType id="fwd41" vClass="pedestrian" width="0.7" length="0.35" minGap="0.2" maxSpeed="1.14953648335" guiShape="pedestrian" color="blue"/>
    <person id="fwd41" type="fwd41" depart="134">
        <walk edges="WC" departPos="0.0" arrivalPos="-1.0"/>
    </person>
    <vType id="fwd42" vClass="pedestrian" width="0.7" length="0.35" minGap="0.2" maxSpeed="1.40269014409" guiShape="pedestrian" color="blue"/>
    <person id="fwd42" type="fwd42" depart="135">
        <walk edges="WC" departPos="0.0" arrivalPos="-1.0"/>
    </person>
    <vType id="fwd43" vClass="pedestrian" width="0.7" length="0.35" minGap="0.2" maxSpeed="0.764525548334" guiShape="pedestrian" color="blue"/>
    <person id="fwd43" type="fwd43" depart="142">
        <walk edges="WC" departPos="0.0" arrivalPos="-1.0"/>
    </person>
    <vType id="fwd44" vClass="pedestrian" width="0.7" length="0.35" minGap="0.2" maxSpeed="1.02188755022" guiShape="pedestrian" color="blue"/>
    <person id="fwd44" type="fwd44" depart="148">
        <walk edges="WC" departPos="0.0" arrivalPos="-1.0"/>
    </person>
    <vType id="fwd45" vClass="pedestrian" width="0.7" length="0.35" minGap="0.2" maxSpeed="1.06264879729" guiShape="pedestrian" color="blue"/>
    <person id="fwd45" type="fwd45" depart="151">
        <walk edges="WC" departPos="0.0" arrivalPos="-1.0"/>
    </person>
    <vType id="fwd46" vClass="pedestrian" width="0.7" length="0.35" minGap="0.2" maxSpeed="1.16650230663" guiShape="pedestrian" color="blue"/>
    <person id="fwd46" type="fwd46" depart="155">
        <walk edges="WC" departPos="0.0" arrivalPos="-1.0"/>
    </person>
    <vType id="fwd47" vClass="pedestrian" width="0.7" length="0.35" minGap="0.2" maxSpeed="1.41219322827" guiShape="pedestrian" color="blue"/>
    <person id="fwd47" type="fwd47" depart="157">
        <walk edges="WC" departPos="0.0" arrivalPos="-1.0"/>
    </person>
    <vType id="fwd48" vClass="pedestrian" width="0.7" length="0.35" minGap="0.2" maxSpeed="0.768014127735" guiShape="pedestrian" color="blue"/>
    <person id="fwd48" type="fwd48" depart="158">
        <walk edges="WC" departPos="0.0" arrivalPos="-1.0"/>
    </person>
    <vType id="fwd49" vClass="pedestrian" width="0.7" length="0.35" minGap="0.2" maxSpeed="0.827745629177" guiShape="pedestrian" color="blue"/>
    <person id="fwd49" type="fwd49" depart="160">
        <walk edges="WC" departPos="0.0" arrivalPos="-1.0"/>
    </person>
    <vType id="fwd50" vClass="pedestrian" width="0.7" length="0.35" minGap="0.2" maxSpeed="0.939351624675" guiShape="pedestrian" color="blue"/>
    <person id="fwd50" type="fwd50" depart="161">
        <walk edges="WC" departPos="0.0" arrivalPos="-1.0"/>
    </person>
    <vType id="fwd51" vClass="pedestrian" width="0.7" length="0.35" minGap="0.2" maxSpeed="0.835247929276" guiShape="pedestrian" color="blue"/>
    <person id="fwd51" type="fwd51" depart="162">
        <walk edges="WC" departPos="0.0" arrivalPos="-1.0"/>
    </person>
    <vType id="fwd52" vClass="pedestrian" width="0.7" length="0.35" minGap="0.2" maxSpeed="1.31416582828" guiShape="pedestrian" color="blue"/>
    <person id="fwd52" type="fwd52" depart="164">
        <walk edges="WC" departPos="0.0" arrivalPos="-1.0"/>
    </person>
    <vType id="fwd53" vClass="pedestrian" width="0.7" length="0.35" minGap="0.2" maxSpeed="0.902095257687" guiShape="pedestrian" color="blue"/>
    <person id="fwd53" type="fwd53" depart="168">
        <walk edges="WC" departPos="0.0" arrivalPos="-1.0"/>
    </person>
    <vType id="fwd54" vClass="pedestrian" width="0.7" length="0.35" minGap="0.2" maxSpeed="1.28900637814" guiShape="pedestrian" color="blue"/>
    <person id="fwd54" type="fwd54" depart="170">
        <walk edges="WC" departPos="0.0" arrivalPos="-1.0"/>
    </person>
    <vType id="fwd55" vClass="pedestrian" width="0.7" length="0.35" minGap="0.2" maxSpeed="1.01671598501" guiShape="pedestrian" color="blue"/>
    <person id="fwd55" type="fwd55" depart="171">
        <walk edges="WC" departPos="0.0" arrivalPos="-1.0"/>
    </person>
    <vType id="fwd56" vClass="pedestrian" width="0.7" length="0.35" minGap="0.2" maxSpeed="1.38792970524" guiShape="pedestrian" color="blue"/>
    <person id="fwd56" type="fwd56" depart="173">
        <walk edges="WC" departPos="0.0" arrivalPos="-1.0"/>
    </person>
    <vType id="fwd57" vClass="pedestrian" width="0.7" length="0.35" minGap="0.2" maxSpeed="1.38421594484" guiShape="pedestrian" color="blue"/>
    <person id="fwd57" type="fwd57" depart="175">
        <walk edges="WC" departPos="0.0" arrivalPos="-1.0"/>
    </person>
    <vType id="fwd58" vClass="pedestrian" width="0.7" length="0.35" minGap="0.2" maxSpeed="1.01644182992" guiShape="pedestrian" color="blue"/>
    <person id="fwd58" type="fwd58" depart="179">
        <walk edges="WC" departPos="0.0" arrivalPos="-1.0"/>
    </person>
    <vType id="fwd59" vClass="pedestrian" width="0.7" length="0.35" minGap="0.2" maxSpeed="0.847422345957" guiShape="pedestrian" color="blue"/>
    <person id="fwd59" type="fwd59" depart="180">
        <walk edges="WC" departPos="0.0" arrivalPos="-1.0"/>
    </person>
    <vType id="fwd60" vClass="pedestrian" width="0.7" length="0.35" minGap="0.2" maxSpeed="0.923845988346" guiShape="pedestrian" color="blue"/>
    <person id="fwd60" type="fwd60" depart="187">
        <walk edges="WC" departPos="0.0" arrivalPos="-1.0"/>
    </person>
    <vType id="fwd61" vClass="pedestrian" width="0.7" length="0.35" minGap="0.2" maxSpeed="1.41533927498" guiShape="pedestrian" color="blue"/>
    <person id="fwd61" type="fwd61" depart="198">
        <walk edges="WC" departPos="0.0" arrivalPos="-1.0"/>
    </person>
    <vType id="fwd62" vClass="pedestrian" width="0.7" length="0.35" minGap="0.2" maxSpeed="0.810681918907" guiShape="pedestrian" color="blue"/>
    <person id="fwd62" type="fwd62" depart="202">
        <walk edges="WC" departPos="0.0" arrivalPos="-1.0"/>
    </person>
    <vType id="fwd63" vClass="pedestrian" width="0.7" length="0.35" minGap="0.2" maxSpeed="1.13847054074" guiShape="pedestrian" color="blue"/>
    <person id="fwd63" type="fwd63" depart="208">
        <walk edges="WC" departPos="0.0" arrivalPos="-1.0"/>
    </person>
    <vType id="fwd64" vClass="pedestrian" width="0.7" length="0.35" minGap="0.2" maxSpeed="0.741570509358" guiShape="pedestrian" color="blue"/>
    <person id="fwd64" type="fwd64" depart="211">
        <walk edges="WC" departPos="0.0" arrivalPos="-1.0"/>
    </person>
    <vType id="fwd65" vClass="pedestrian" width="0.7" length="0.35" minGap="0.2" maxSpeed="0.906059330277" guiShape="pedestrian" color="blue"/>
    <person id="fwd65" type="fwd65" depart="214">
        <walk edges="WC" departPos="0.0" arrivalPos="-1.0"/>
    </person>
    <vType id="fwd66" vClass="pedestrian" width="0.7" length="0.35" minGap="0.2" maxSpeed="1.27196900215" guiShape="pedestrian" color="blue"/>
    <person id="fwd66" type="fwd66" depart="216">
        <walk edges="WC" departPos="0.0" arrivalPos="-1.0"/>
    </person>
    <vType id="fwd67" vClass="pedestrian" width="0.7" length="0.35" minGap="0.2" maxSpeed="0.849785035206" guiShape="pedestrian" color="blue"/>
    <person id="fwd67" type="fwd67" depart="220">
        <walk edges="WC" departPos="0.0" arrivalPos="-1.0"/>
    </person>
    <vType id="fwd68" vClass="pedestrian" width="0.7" length="0.35" minGap="0.2" maxSpeed="0.904640324442" guiShape="pedestrian" color="blue"/>
    <person id="fwd68" type="fwd68" depart="222">
        <walk edges="WC" departPos="0.0" arrivalPos="-1.0"/>
    </person>
    <vType id="fwd69" vClass="pedestrian" width="0.7" length="0.35" minGap="0.2" maxSpeed="1.3010382297" guiShape="pedestrian" color="blue"/>
    <person id="fwd69" type="fwd69" depart="226">
        <walk edges="WC" departPos="0.0" arrivalPos="-1.0"/>
    </person>
    <vType id="fwd70" vClass="pedestrian" width="0.7" length="0.35" minGap="0.2" maxSpeed="0.955219886673" guiShape="pedestrian" color="blue"/>
    <person id="fwd70" type="fwd70" depart="234">
        <walk edges="WC" departPos="0.0" arrivalPos="-1.0"/>
    </person>
    <vType id="fwd71" vClass="pedestrian" width="0.7" length="0.35" minGap="0.2" maxSpeed="1.25533091425" guiShape="pedestrian" color="blue"/>
    <person id="fwd71" type="fwd71" depart="238">
        <walk edges="WC" departPos="0.0" arrivalPos="-1.0"/>
    </person>
    <vType id="fwd72" vClass="pedestrian" width="0.7" length="0.35" minGap="0.2" maxSpeed="0.893704758322" guiShape="pedestrian" color="blue"/>
    <person id="fwd72" type="fwd72" depart="239">
        <walk edges="WC" departPos="0.0" arrivalPos="-1.0"/>
    </person>
    <vType id="fwd73" vClass="pedestrian" width="0.7" length="0.35" minGap="0.2" maxSpeed="1.30048279117" guiShape="pedestrian" color="blue"/>
    <person id="fwd73" type="fwd73" depart="241">
        <walk edges="WC" departPos="0.0" arrivalPos="-1.0"/>
    </person>
    <vType id="fwd74" vClass="pedestrian" width="0.7" length="0.35" minGap="0.2" maxSpeed="1.31746777813" guiShape="pedestrian" color="blue"/>
    <person id="fwd74" type="fwd74" depart="248">
        <walk edges="WC" departPos="0.0" arrivalPos="-1.0"/>
    </person>
    <vType id="fwd75" vClass="pedestrian" width="0.7" length="0.35" minGap="0.2" maxSpeed="1.41978152159" guiShape="pedestrian" color="blue"/>
    <person id="fwd75" type="fwd75" depart="251">
        <walk edges="WC" departPos="0.0" arrivalPos="-1.0"/>
    </person>
    <vType id="fwd76" vClass="pedestrian" width="0.7" length="0.35" minGap="0.2" maxSpeed="1.45932283529" guiShape="pedestrian" color="blue"/>
    <person id="fwd76" type="fwd76" depart="253">
        <walk edges="WC" departPos="0.0" arrivalPos="-1.0"/>
    </person>
    <vType id="fwd77" vClass="pedestrian" width="0.7" length="0.35" minGap="0.2" maxSpeed="0.866660194556" guiShape="pedestrian" color="blue"/>
    <person id="fwd77" type="fwd77" depart="260">
        <walk edges="WC" departPos="0.0" arrivalPos="-1.0"/>
    </person>
    <vType id="fwd78" vClass="pedestrian" width="0.7" length="0.35" minGap="0.2" maxSpeed="0.860533816455" guiShape="pedestrian" color="blue"/>
    <person id="fwd78" type="fwd78" depart="261">
        <walk edges="WC" departPos="0.0" arrivalPos="-1.0"/>
    </person>
    <vType id="fwd79" vClass="pedestrian" width="0.7" length="0.35" minGap="0.2" maxSpeed="0.7753779307" guiShape="pedestrian" color="blue"/>
    <person id="fwd79" type="fwd79" depart="275">
        <walk edges="WC" departPos="0.0" arrivalPos="-1.0"/>
    </person>
    <vType id="fwd80" vClass="pedestrian" width="0.7" length="0.35" minGap="0.2" maxSpeed="1.35750159873" guiShape="pedestrian" color="blue"/>
    <person id="fwd80" type="fwd80" depart="276">
        <walk edges="WC" departPos="0.0" arrivalPos="-1.0"/>
    </person>
    <vType id="fwd81" vClass="pedestrian" width="0.7" length="0.35" minGap="0.2" maxSpeed="1.20435434097" guiShape="pedestrian" color="blue"/>
    <person id="fwd81" type="fwd81" depart="278">
        <walk edges="WC" departPos="0.0" arrivalPos="-1.0"/>
    </person>
    <vType id="fwd82" vClass="pedestrian" width="0.7" length="0.35" minGap="0.2" maxSpeed="1.11921898328" guiShape="pedestrian" color="blue"/>
    <person id="fwd82" type="fwd82" depart="280">
        <walk edges="WC" departPos="0.0" arrivalPos="-1.0"/>
    </person>
    <vType id="fwd83" vClass="pedestrian" width="0.7" length="0.35" minGap="0.2" maxSpeed="1.41052025853" guiShape="pedestrian" color="blue"/>
    <person id="fwd83" type="fwd83" depart="281">
        <walk edges="WC" departPos="0.0" arrivalPos="-1.0"/>
    </person>
    <vType id="fwd84" vClass="pedestrian" width="0.7" length="0.35" minGap="0.2" maxSpeed="1.23098313012" guiShape="pedestrian" color="blue"/>
    <person id="fwd84" type="fwd84" depart="290">
        <walk edges="WC" departPos="0.0" arrivalPos="-1.0"/>
    </person>
    <vType id="fwd85" vClass="pedestrian" width="0.7" length="0.35" minGap="0.2" maxSpeed="1.47698936994" guiShape="pedestrian" color="blue"/>
    <person id="fwd85" type="fwd85" depart="291">
        <walk edges="WC" departPos="0.0" arrivalPos="-1.0"/>
    </person>
    <vType id="fwd86" vClass="pedestrian" width="0.7" length="0.35" minGap="0.2" maxSpeed="1.08931826868" guiShape="pedestrian" color="blue"/>
    <person id="fwd86" type="fwd86" depart="297">
        <walk edges="WC" departPos="0.0" arrivalPos="-1.0"/>
    </person>
    <vType id="fwd87" vClass="pedestrian" width="0.7" length="0.35" minGap="0.2" maxSpeed="1.23666718082" guiShape="pedestrian" color="blue"/>
    <person id="fwd87" type="fwd87" depart="303">
        <walk edges="WC" departPos="0.0" arrivalPos="-1.0"/>
    </person>
    <vType id="fwd88" vClass="pedestrian" width="0.7" length="0.35" minGap="0.2" maxSpeed="1.40929298387" guiShape="pedestrian" color="blue"/>
    <person id="fwd88" type="fwd88" depart="305">
        <walk edges="WC" departPos="0.0" arrivalPos="-1.0"/>
    </person>
    <vType id="fwd89" vClass="pedestrian" width="0.7" length="0.35" minGap="0.2" maxSpeed="1.30172651092" guiShape="pedestrian" color="blue"/>
    <person id="fwd89" type="fwd89" depart="309">
        <walk edges="WC" departPos="0.0" arrivalPos="-1.0"/>
    </person>
    <vType id="fwd90" vClass="pedestrian" width="0.7" length="0.35" minGap="0.2" maxSpeed="1.2007554622" guiShape="pedestrian" color="blue"/>
    <person id="fwd90" type="fwd90" depart="311">
        <walk edges="WC" departPos="0.0" arrivalPos="-1.0"/>
    </person>
    <vType id="fwd91" vClass="pedestrian" width="0.7" length="0.35" minGap="0.2" maxSpeed="0.800925701316" guiShape="pedestrian" color="blue"/>
    <person id="fwd91" type="fwd91" depart="316">
        <walk edges="WC" departPos="0.0" arrivalPos="-1.0"/>
    </person>
    <vType id="fwd92" vClass="pedestrian" width="0.7" length="0.35" minGap="0.2" maxSpeed="1.29193483916" guiShape="pedestrian" color="blue"/>
    <person id="fwd92" type="fwd92" depart="321">
        <walk edges="WC" departPos="0.0" arrivalPos="-1.0"/>
    </person>
    <vType id="fwd93" vClass="pedestrian" width="0.7" length="0.35" minGap="0.2" maxSpeed="0.809890393324" guiShape="pedestrian" color="blue"/>
    <person id="fwd93" type="fwd93" depart="322">
        <walk edges="WC" departPos="0.0" arrivalPos="-1.0"/>
    </person>
    <vType id="fwd94" vClass="pedestrian" width="0.7" length="0.35" minGap="0.2" maxSpeed="0.96947663043" guiShape="pedestrian" color="blue"/>
    <person id="fwd94" type="fwd94" depart="323">
        <walk edges="WC" departPos="0.0" arrivalPos="-1.0"/>
    </person>
    <vType id="fwd95" vClass="pedestrian" width="0.7" length="0.35" minGap="0.2" maxSpeed="0.787073621904" guiShape="pedestrian" color="blue"/>
    <person id="fwd95" type="fwd95" depart="325">
        <walk edges="WC" departPos="0.0" arrivalPos="-1.0"/>
    </person>
    <vType id="fwd96" vClass="pedestrian" width="0.7" length="0.35" minGap="0.2" maxSpeed="1.48688436392" guiShape="pedestrian" color="blue"/>
    <person id="fwd96" type="fwd96" depart="329">
        <walk edges="WC" departPos="0.0" arrivalPos="-1.0"/>
    </person>
    <vType id="fwd97" vClass="pedestrian" width="0.7" length="0.35" minGap="0.2" maxSpeed="1.15560730182" guiShape="pedestrian" color="blue"/>
    <person id="fwd97" type="fwd97" depart="330">
        <walk edges="WC" departPos="0.0" arrivalPos="-1.0"/>
    </person>
    <vType id="fwd98" vClass="pedestrian" width="0.7" length="0.35" minGap="0.2" maxSpeed="0.820343710853" guiShape="pedestrian" color="blue"/>
    <person id="fwd98" type="fwd98" depart="332">
        <walk edges="WC" departPos="0.0" arrivalPos="-1.0"/>
    </person>
    <vType id="fwd99" vClass="pedestrian" width="0.7" length="0.35" minGap="0.2" maxSpeed="1.02397374503" guiShape="pedestrian" color="blue"/>
    <person id="fwd99" type="fwd99" depart="334">
        <walk edges="WC" departPos="0.0" arrivalPos="-1.0"/>
    </person>
    <vType id="fwd100" vClass="pedestrian" width="0.7" length="0.35" minGap="0.2" maxSpeed="1.48407730776" guiShape="pedestrian" color="blue"/>
    <person id="fwd100" type="fwd100" depart="337">
        <walk edges="WC" departPos="0.0" arrivalPos="-1.0"/>
    </person>
    <vType id="fwd101" vClass="pedestrian" width="0.7" length="0.35" minGap="0.2" maxSpeed="0.750910517855" guiShape="pedestrian" color="blue"/>
    <person id="fwd101" type="fwd101" depart="338">
        <walk edges="WC" departPos="0.0" arrivalPos="-1.0"/>
    </person>
    <vType id="fwd102" vClass="pedestrian" width="0.7" length="0.35" minGap="0.2" maxSpeed="0.939308249673" guiShape="pedestrian" color="blue"/>
    <person id="fwd102" type="fwd102" depart="345">
        <walk edges="WC" departPos="0.0" arrivalPos="-1.0"/>
    </person>
    <vType id="fwd103" vClass="pedestrian" width="0.7" length="0.35" minGap="0.2" maxSpeed="0.789478190153" guiShape="pedestrian" color="blue"/>
    <person id="fwd103" type="fwd103" depart="349">
        <walk edges="WC" departPos="0.0" arrivalPos="-1.0"/>
    </person>
    <vType id="fwd104" vClass="pedestrian" width="0.7" length="0.35" minGap="0.2" maxSpeed="0.879457425518" guiShape="pedestrian" color="blue"/>
    <person id="fwd104" type="fwd104" depart="352">
        <walk edges="WC" departPos="0.0" arrivalPos="-1.0"/>
    </person>
    <vType id="fwd105" vClass="pedestrian" width="0.7" length="0.35" minGap="0.2" maxSpeed="1.25654244548" guiShape="pedestrian" color="blue"/>
    <person id="fwd105" type="fwd105" depart="358">
        <walk edges="WC" departPos="0.0" arrivalPos="-1.0"/>
    </person>
    <vType id="fwd106" vClass="pedestrian" width="0.7" length="0.35" minGap="0.2" maxSpeed="1.47971478246" guiShape="pedestrian" color="blue"/>
    <person id="fwd106" type="fwd106" depart="359">
        <walk edges="WC" departPos="0.0" arrivalPos="-1.0"/>
    </person>
    <vType id="fwd107" vClass="pedestrian" width="0.7" length="0.35" minGap="0.2" maxSpeed="1.33153536146" guiShape="pedestrian" color="blue"/>
    <person id="fwd107" type="fwd107" depart="361">
        <walk edges="WC" departPos="0.0" arrivalPos="-1.0"/>
    </person>
    <vType id="fwd108" vClass="pedestrian" width="0.7" length="0.35" minGap="0.2" maxSpeed="1.02692205741" guiShape="pedestrian" color="blue"/>
    <person id="fwd108" type="fwd108" depart="373">
        <walk edges="WC" departPos="0.0" arrivalPos="-1.0"/>
    </person>
    <vType id="fwd109" vClass="pedestrian" width="0.7" length="0.35" minGap="0.2" maxSpeed="1.23509394528" guiShape="pedestrian" color="blue"/>
    <person id="fwd109" type="fwd109" depart="374">
        <walk edges="WC" departPos="0.0" arrivalPos="-1.0"/>
    </person>
    <vType id="fwd110" vClass="pedestrian" width="0.7" length="0.35" minGap="0.2" maxSpeed="1.28324639978" guiShape="pedestrian" color="blue"/>
    <person id="fwd110" type="fwd110" depart="380">
        <walk edges="WC" departPos="0.0" arrivalPos="-1.0"/>
    </person>
    <vType id="fwd111" vClass="pedestrian" width="0.7" length="0.35" minGap="0.2" maxSpeed="1.00496593" guiShape="pedestrian" color="blue"/>
    <person id="fwd111" type="fwd111" depart="386">