<?xml version="1.0" encoding="UTF-8"?>

<!-- generated on 2022-03-25 08:41:09 by Eclipse SUMO netedit Version v1_12_0+1639-9e6c12b8944
-->

<routes xmlns:xsi="http://www.w3.org/2001/XMLSchema-instance" xsi:noNamespaceSchemaLocation="http://sumo.dlr.de/xsd/routes_file.xsd">
    <!-- Vehicles, persons and containers (sorted by depart) -->
    <vehicle id="v_0" depart="0.00" arrivalLane="random">
        <route edges="gneE2 gneE4 gneE5"/>
    </vehicle>
</routes>
