<?xml version="1.0"?>

<!-- generated on 03/18/10 14:23:40 by SUMO duarouter Version dev-SVN-r8460
<configuration>

    <input>
        <net-file value="input_net.net.xml"/>
        <flow-definition value="input_flows.flows.xml"/>
    </input>

    <output>
        <output-file value="routes.rou.xml"/>
    </output>

</configuration>
-->

<routes>
    <vehicle id="0_0" depart="0.00">
        <route edges="beg middle end rend"/>
    </vehicle>
    <vehicle id="0_1" depart="20.00">
        <route edges="beg middle end rend"/>
    </vehicle>
    <vehicle id="0_2" depart="40.00">
        <route edges="beg middle end rend"/>
    </vehicle>
    <vehicle id="0_3" depart="60.00">
        <route edges="beg middle end rend"/>
    </vehicle>
    <vehicle id="0_4" depart="80.00">
        <route edges="beg middle end rend"/>
    </vehicle>
    <vehicle id="0_5" depart="100.00">
        <route edges="beg middle end rend"/>
    </vehicle>
    <vehicle id="0_6" depart="120.00">
        <route edges="beg middle end rend"/>
    </vehicle>
    <vehicle id="0_7" depart="140.00">
        <route edges="beg middle end rend"/>
    </vehicle>
    <vehicle id="0_8" depart="160.00">
        <route edges="beg middle end rend"/>
    </vehicle>
    <vehicle id="0_9" depart="180.00">
        <route edges="beg middle end rend"/>
    </vehicle>
</routes>
