<?xml version="1.0" encoding="iso-8859-1"?>

<!-- generated on Tue Aug 23 18:10:54 2011 by SUMO netconvert Version dev-SVN-r11143
<?xml version="1.0" encoding="iso-8859-1"?>

<configuration xmlns:xsi="http://www.w3.org/2001/XMLSchema-instance" xsi:noNamespaceSchemaLocation="http://sumo.dlr.de/xsd/netconvertConfiguration.xsd">

    <input>
        <sumo-net-file value="net.net.xml"/>
    </input>

    <output>
        <plain-output-prefix value="input_nodes"/>
    </output>

    <processing>
        <no-turnarounds value="true"/>
    </processing>

</configuration>
-->

<edges version="0.13" xmlns:xsi="http://www.w3.org/2001/XMLSchema-instance" xsi:noNamespaceSchemaLocation="http://sumo.dlr.de/xsd/edges_file.xsd">
    <edge id="0" from="SUMOGenerated0" to="SUMOGenerated1"/>
    <edge id="1" from="SUMOGenerated2" to="SUMOGenerated3"/>
</edges>
