<?xml version="1.0" encoding="UTF-8"?>

<!-- generated on Wed Apr 22 11:01:38 2015 by SUMO netconvert Version dev-SVN-r18262I
<?xml version="1.0" encoding="UTF-8"?>

<configuration xmlns:xsi="http://www.w3.org/2001/XMLSchema-instance" xsi:noNamespaceSchemaLocation="http://sumo.dlr.de/xsd/netconvertConfiguration.xsd">

    <input>
        <sumo-net-file value="input_net.net.xml"/>
    </input>

    <output>
        <output-file value="net.net.xml"/>
    </output>

    <processing>
        <no-internal-links value="true"/>
        <no-turnarounds value="true"/>
        <geometry.remove value="true"/>
        <offset.disable-normalization value="true"/>
    </processing>

    <report>
        <xml-validation value="never"/>
    </report>

</configuration>
-->

<net version="0.13" xmlns:xsi="http://www.w3.org/2001/XMLSchema-instance" xsi:noNamespaceSchemaLocation="http://sumo.dlr.de/xsd/net_file.xsd">

    <location netOffset="-48205.27,-59917.20" convBoundary="0.00,131.67,142.80,276.18" origBoundary="48205.27,59917.20,48348.07,60193.38" projParameter="!"/>

    <edge id="-9887" from="14304" to="14305" priority="-1" spreadType="center" shape="2.17,131.67 13.41,141.44 24.68,151.71 30.27,157.46 34.75,157.71 37.63,155.70 42.64,153.14 46.78,151.91 51.56,151.12 56.84,150.84 61.16,151.55 64.39,152.33 67.58,153.51 70.47,155.04 73.16,156.64 74.50,157.76 80.89,164.53 81.94,166.06 83.44,168.75 84.89,171.93 86.04,176.12 86.71,180.70 86.85,185.62 86.20,189.28 85.18,193.39 83.77,196.71 82.00,200.46 79.95,203.30 80.19,207.82 142.80,273.88">
        <lane id="-9887_0" index="0" speed="13.90" length="235.19" shape="1.98,131.50 13.41,141.44 24.68,151.71 30.27,157.46 34.75,157.71 37.63,155.70 42.64,153.14 46.78,151.91 51.56,151.12 56.84,150.84 61.16,151.55 64.39,152.33 67.58,153.51 70.47,155.04 73.16,156.64 74.50,157.76 80.89,164.53 81.94,166.06 83.44,168.75 84.89,171.93 86.04,176.12 86.71,180.70 86.85,185.62 86.20,189.28 85.18,193.39 83.77,196.71 82.00,200.46 79.95,203.30 80.19,207.82 142.84,273.92"/>
    </edge>
    <edge id="-9889" from="14305" to="14304" priority="-1" spreadType="center" shape="140.43,276.18 77.80,210.09 73.35,209.78 71.60,210.93 67.71,213.02 62.84,214.62 57.48,215.70 52.94,215.70 48.65,215.25 44.34,214.15 40.41,212.44 36.91,210.57 33.80,208.10 30.27,204.85 27.50,201.18 24.74,196.03 22.82,190.01 22.30,185.03 22.36,180.66 23.01,176.54 24.23,172.11 25.72,168.35 28.34,164.34 27.91,159.76 22.39,154.08 11.21,143.90 0.00,134.16">
        <lane id="-9889_0" index="0" speed="13.90" length="232.49" shape="140.44,276.19 77.80,210.09 73.35,209.78 71.60,210.93 67.71,213.02 62.84,214.62 57.48,215.70 52.94,215.70 48.65,215.25 44.34,214.15 40.41,212.44 36.91,210.57 33.80,208.10 30.27,204.85 27.50,201.18 24.74,196.03 22.82,190.01 22.30,185.03 22.36,180.66 23.01,176.54 24.23,172.11 25.72,168.35 28.34,164.34 27.91,159.76 22.39,154.08 11.21,143.90 -0.19,133.99"/>
    </edge>

    <junction id="14304" type="priority" x="0.89" y="132.75" incLanes="-9889_0" intLanes="" shape="0.93,132.71 3.03,130.29 -1.24,135.20 0.86,132.79">
        <request index="0" response="0" foes="0"/>
    </junction>
    <junction id="14305" type="priority" x="141.64" y="275.05" incLanes="-9887_0" intLanes="" shape="141.60,275.09 139.28,277.29 144.00,272.82 141.67,275.02">
        <request index="0" response="0" foes="0"/>
    </junction>

    <connection from="-9887" to="-9889" fromLane="0" toLane="0" dir="t" state="M"/>
    <connection from="-9889" to="-9887" fromLane="0" toLane="0" dir="t" state="M"/>


</net>
