<?xml version="1.0" encoding="UTF-8"?>

<!-- generated on 2024-08-23 14:14:25 by Eclipse SUMO netedit Version v1_20_0+1744-c01c5fa6b16
This data file and the accompanying materials
are made available under the terms of the Eclipse Public License v2.0
which accompanies this distribution, and is available at
http://www.eclipse.org/legal/epl-v20.html
This file may also be made available under the following Secondary
Licenses when the conditions for such availability set forth in the Eclipse
Public License 2.0 are satisfied: GNU General Public License, version 2
or later which is available at
https://www.gnu.org/licenses/old-licenses/gpl-2.0-standalone.html
SPDX-License-Identifier: EPL-2.0 OR GPL-2.0-or-later
-->

<routes xmlns:xsi="http://www.w3.org/2001/XMLSchema-instance" xsi:noNamespaceSchemaLocation="http://sumo.dlr.de/xsd/routes_file.xsd">
    <!-- Vehicles, persons and containers (sorted by depart) -->
    <person id="p_0" depart="0.00">
        <walk from="Edge0" parkingArea="parkingAreaA"/>
    </person>
    <person id="p_1" depart="0.00">
        <walk from="Edge0" parkingArea="parkingAreaA"/>
        <walk to="EdgeCenter0" arrivalPos="2.50"/>
    </person>
</routes>
