<?xml version="1.0" encoding="UTF-8"?>

<!-- generated on 2022-02-09 12:15:44 by Eclipse SUMO netedit Version v1_12_0+0398-f65c8b140b2
-->

<additional xmlns:xsi="http://www.w3.org/2001/XMLSchema-instance" xsi:noNamespaceSchemaLocation="http://sumo.dlr.de/xsd/additional_file.xsd">
    <poi id="customID" color="red" layer="202.00" lane="gneE1_0" pos="34.00"/>
    <poi id="poi_0" color="red" layer="202.00" lane="gneE1_0" pos="44.00"/>
</additional>
