<?xml version="1.0" encoding="UTF-8"?>

<!-- generated on 2026-04-02T11:21:07.546122+01:00 by Eclipse SUMO netedit v1_26_0+0966-e2c61f36bbb
-->

<routes xmlns:xsi="http://www.w3.org/2001/XMLSchema-instance" xsi:noNamespaceSchemaLocation="http://sumo.dlr.de/xsd/routes_file.xsd">
    <!-- Vehicles, persons and containers (sorted by depart) -->
    <vehicle id="blocker" depart="0.00" departPos="stop">
        <route edges="left"/>
        <stop edge="left" endPos="300" duration="300"/>
    </vehicle>
    <vehicle id="v_0" depart="100.00">
        <route edges="beg middle end rend"/>
    </vehicle>
</routes>
