<?xml version="1.0" encoding="UTF-8"?>

<!-- generated on 2022-01-20 14:44:19 by Eclipse SUMO netedit Version v1_11_0+1305-0448234e9dc
-->

<routes xmlns:xsi="http://www.w3.org/2001/XMLSchema-instance" xsi:noNamespaceSchemaLocation="http://sumo.dlr.de/xsd/routes_file.xsd">
    <route id="routeA" edges="gneE2 gneE4 gneE5" color="yellow"/>
    <route id="routeB" edges="gneE6 gneE3 gneE7" color="yellow"/>
    <vehicle id="vehicleA" depart="containerTriggered" departLane="0" departPos="2.00" departPosLat="2.00" departSpeed="12.00" arrivalLane="0" arrivalPos="3.00" arrivalPosLat="3.00" arrivalSpeed="12.00" color="red" line="line A" personNumber="1" containerNumber="5" route="routeA">
        <param key="KeyA1" value="valueA1"/>
        <param key="KeyA2" value="valueA3"/>
        <param key="KeyA3" value="valueA2"/>
    </vehicle>
    <vehicle id="vehicleB" depart="containerTriggered" departLane="free" departPos="random" departPosLat="random_free" departSpeed="speedLimit" arrivalLane="current" arrivalPos="random" arrivalPosLat="right" arrivalSpeed="current" color="blue" line="line B" personNumber="2" containerNumber="10" route="routeB">
        <param key="KeyB1" value="valueB1"/>
        <param key="KeyB2" value="valueB3"/>
        <param key="KeyB3" value="valueB2"/>
    </vehicle>
</routes>
