<?xml version="1.0" encoding="UTF-8"?>

<!-- generated on Mon Feb 17 15:30:54 2020 by Eclipse SUMO netconvert Version v1_5_0+0130-ceb0a01
This data file and the accompanying materials
are made available under the terms of the Eclipse Public License v2.0
which accompanies this distribution, and is available at
http://www.eclipse.org/legal/epl-v20.html
SPDX-License-Identifier: EPL-2.0
<configuration xmlns:xsi="http://www.w3.org/2001/XMLSchema-instance" xsi:noNamespaceSchemaLocation="http://sumo.dlr.de/xsd/netconvertConfiguration.xsd">

    <input>
        <visum-file value="visum.net"/>
    </input>

    <output>
        <write-license value="true"/>
        <output-file value="net.net.xml"/>
    </output>

    <processing>
        <geometry.junction-mismatch-threshold value="100"/>
    </processing>

    <junctions>
        <no-turnarounds value="true"/>
    </junctions>

    <report>
        <verbose value="true"/>
        <xml-validation value="never"/>
        <aggregate-warnings value="5"/>
    </report>

</configuration>
-->

<net version="1.6" junctionCornerDetail="5" limitTurnSpeed="5.50" xmlns:xsi="http://www.w3.org/2001/XMLSchema-instance" xsi:noNamespaceSchemaLocation="http://sumo.dlr.de/xsd/net_file.xsd">

    <location netOffset="-889.91,1209.18" convBoundary="0.00,0.00,2060.03,844.92" origBoundary="889.91,-1209.18,2949.94,-364.26" projParameter="!"/>

    <type id="0" priority="999" numLanes="56" speed="13.89" allow="pedestrian passenger" oneway="0"/>
    <type id="1" priority="999" numLanes="56" speed="13.89" allow="pedestrian passenger" oneway="0"/>
    <type id="10" priority="998" numLanes="56" speed="13.89" allow="pedestrian passenger" oneway="0"/>
    <type id="11" priority="998" numLanes="56" speed="13.89" allow="pedestrian passenger" oneway="0"/>
    <type id="12" priority="998" numLanes="56" speed="13.89" allow="pedestrian passenger" oneway="0"/>
    <type id="13" priority="998" numLanes="56" speed="13.89" allow="pedestrian passenger" oneway="0"/>
    <type id="14" priority="998" numLanes="56" speed="13.89" allow="pedestrian passenger" oneway="0"/>
    <type id="15" priority="998" numLanes="56" speed="13.89" allow="pedestrian passenger" oneway="0"/>
    <type id="16" priority="998" numLanes="56" speed="13.89" allow="pedestrian passenger" oneway="0"/>
    <type id="17" priority="998" numLanes="56" speed="13.89" allow="pedestrian passenger" oneway="0"/>
    <type id="18" priority="998" numLanes="56" speed="13.89" allow="pedestrian passenger" oneway="0"/>
    <type id="19" priority="998" numLanes="56" speed="13.89" allow="pedestrian passenger" oneway="0"/>
    <type id="2" priority="999" numLanes="56" speed="13.89" allow="pedestrian passenger" oneway="0"/>
    <type id="20" priority="997" numLanes="56" speed="13.89" allow="pedestrian passenger" oneway="0"/>
    <type id="21" priority="997" numLanes="56" speed="13.89" allow="pedestrian passenger" oneway="0"/>
    <type id="22" priority="997" numLanes="56" speed="13.89" allow="pedestrian passenger" oneway="0"/>
    <type id="23" priority="997" numLanes="56" speed="13.89" allow="pedestrian passenger" oneway="0"/>
    <type id="24" priority="997" numLanes="56" speed="13.89" allow="pedestrian passenger" oneway="0"/>
    <type id="25" priority="997" numLanes="56" speed="13.89" allow="pedestrian passenger" oneway="0"/>
    <type id="26" priority="997" numLanes="56" speed="13.89" allow="pedestrian passenger" oneway="0"/>
    <type id="27" priority="997" numLanes="56" speed="13.89" allow="pedestrian passenger" oneway="0"/>
    <type id="28" priority="997" numLanes="56" speed="13.89" allow="pedestrian passenger" oneway="0"/>
    <type id="29" priority="997" numLanes="56" speed="13.89" allow="pedestrian passenger" oneway="0"/>
    <type id="3" priority="999" numLanes="56" speed="13.89" allow="pedestrian passenger" oneway="0"/>
    <type id="30" priority="996" numLanes="56" speed="13.89" allow="pedestrian passenger" oneway="0"/>
    <type id="31" priority="996" numLanes="56" speed="13.89" allow="pedestrian passenger" oneway="0"/>
    <type id="32" priority="996" numLanes="56" speed="13.89" allow="pedestrian passenger" oneway="0"/>
    <type id="33" priority="996" numLanes="56" speed="13.89" allow="pedestrian passenger" oneway="0"/>
    <type id="34" priority="996" numLanes="56" speed="13.89" allow="pedestrian passenger" oneway="0"/>
    <type id="35" priority="996" numLanes="56" speed="13.89" allow="pedestrian passenger" oneway="0"/>
    <type id="36" priority="996" numLanes="56" speed="13.89" allow="pedestrian passenger" oneway="0"/>
    <type id="37" priority="996" numLanes="56" speed="13.89" allow="pedestrian passenger" oneway="0"/>
    <type id="38" priority="996" numLanes="56" speed="13.89" allow="pedestrian passenger" oneway="0"/>
    <type id="39" priority="996" numLanes="56" speed="13.89" allow="pedestrian passenger" oneway="0"/>
    <type id="4" priority="999" numLanes="56" speed="13.89" allow="pedestrian passenger" oneway="0"/>
    <type id="40" priority="995" numLanes="56" speed="13.89" allow="pedestrian passenger" oneway="0"/>
    <type id="41" priority="995" numLanes="56" speed="13.89" allow="pedestrian passenger" oneway="0"/>
    <type id="42" priority="995" numLanes="56" speed="13.89" allow="pedestrian passenger" oneway="0"/>
    <type id="43" priority="995" numLanes="56" speed="13.89" allow="pedestrian passenger" oneway="0"/>
    <type id="44" priority="995" numLanes="56" speed="13.89" allow="pedestrian passenger" oneway="0"/>
    <type id="45" priority="995" numLanes="56" speed="13.89" allow="pedestrian passenger" oneway="0"/>
    <type id="46" priority="995" numLanes="56" speed="13.89" allow="pedestrian passenger" oneway="0"/>
    <type id="47" priority="995" numLanes="56" speed="13.89" allow="pedestrian passenger" oneway="0"/>
    <type id="48" priority="995" numLanes="56" speed="13.89" allow="pedestrian passenger" oneway="0"/>
    <type id="49" priority="995" numLanes="56" speed="13.89" allow="pedestrian passenger" oneway="0"/>
    <type id="5" priority="999" numLanes="56" speed="13.89" allow="pedestrian passenger" oneway="0"/>
    <type id="50" priority="994" numLanes="56" speed="13.89" allow="pedestrian passenger" oneway="0"/>
    <type id="51" priority="994" numLanes="56" speed="13.89" allow="pedestrian passenger" oneway="0"/>
    <type id="52" priority="994" numLanes="56" speed="13.89" allow="pedestrian passenger" oneway="0"/>
    <type id="53" priority="994" numLanes="56" speed="13.89" allow="pedestrian passenger" oneway="0"/>
    <type id="54" priority="994" numLanes="56" speed="13.89" allow="pedestrian passenger" oneway="0"/>
    <type id="55" priority="994" numLanes="56" speed="13.89" allow="pedestrian passenger" oneway="0"/>
    <type id="56" priority="994" numLanes="56" speed="13.89" allow="pedestrian passenger" oneway="0"/>
    <type id="57" priority="994" numLanes="56" speed="13.89" allow="pedestrian passenger" oneway="0"/>
    <type id="58" priority="994" numLanes="56" speed="13.89" allow="pedestrian passenger" oneway="0"/>
    <type id="59" priority="994" numLanes="56" speed="13.89" allow="pedestrian passenger" oneway="0"/>
    <type id="6" priority="999" numLanes="56" speed="13.89" allow="pedestrian passenger" oneway="0"/>
    <type id="60" priority="993" numLanes="56" speed="13.89" allow="pedestrian passenger" oneway="0"/>
    <type id="61" priority="993" numLanes="56" speed="13.89" allow="pedestrian passenger" oneway="0"/>
    <type id="62" priority="993" numLanes="56" speed="13.89" allow="pedestrian passenger" oneway="0"/>
    <type id="63" priority="993" numLanes="56" speed="13.89" allow="pedestrian passenger" oneway="0"/>
    <type id="64" priority="993" numLanes="56" speed="13.89" allow="pedestrian passenger" oneway="0"/>
    <type id="65" priority="993" numLanes="56" speed="13.89" allow="pedestrian passenger" oneway="0"/>
    <type id="66" priority="993" numLanes="56" speed="13.89" allow="pedestrian passenger" oneway="0"/>
    <type id="67" priority="993" numLanes="56" speed="13.89" allow="pedestrian passenger" oneway="0"/>
    <type id="68" priority="993" numLanes="56" speed="13.89" allow="pedestrian passenger" oneway="0"/>
    <type id="69" priority="993" numLanes="56" speed="13.89" allow="pedestrian passenger" oneway="0"/>
    <type id="7" priority="999" numLanes="56" speed="13.89" allow="pedestrian passenger" oneway="0"/>
    <type id="70" priority="992" numLanes="56" speed="13.89" allow="pedestrian passenger" oneway="0"/>
    <type id="71" priority="992" numLanes="56" speed="13.89" allow="pedestrian passenger" oneway="0"/>
    <type id="72" priority="992" numLanes="56" speed="13.89" allow="pedestrian passenger" oneway="0"/>
    <type id="73" priority="992" numLanes="56" speed="13.89" allow="pedestrian passenger" oneway="0"/>
    <type id="74" priority="992" numLanes="56" speed="13.89" allow="pedestrian passenger" oneway="0"/>
    <type id="75" priority="992" numLanes="56" speed="13.89" allow="pedestrian passenger" oneway="0"/>
    <type id="76" priority="992" numLanes="56" speed="13.89" allow="pedestrian passenger" oneway="0"/>
    <type id="77" priority="992" numLanes="56" speed="13.89" allow="pedestrian passenger" oneway="0"/>
    <type id="78" priority="992" numLanes="56" speed="13.89" allow="pedestrian passenger" oneway="0"/>
    <type id="79" priority="992" numLanes="56" speed="13.89" allow="pedestrian passenger" oneway="0"/>
    <type id="8" priority="999" numLanes="56" speed="13.89" allow="pedestrian passenger" oneway="0"/>
    <type id="80" priority="991" numLanes="56" speed="13.89" allow="pedestrian passenger" oneway="0"/>
    <type id="81" priority="991" numLanes="56" speed="13.89" allow="pedestrian passenger" oneway="0"/>
    <type id="82" priority="991" numLanes="56" speed="13.89" allow="pedestrian passenger" oneway="0"/>
    <type id="83" priority="991" numLanes="56" speed="13.89" allow="pedestrian passenger" oneway="0"/>
    <type id="84" priority="991" numLanes="56" speed="13.89" allow="pedestrian passenger" oneway="0"/>
    <type id="85" priority="991" numLanes="56" speed="13.89" allow="pedestrian passenger" oneway="0"/>
    <type id="86" priority="991" numLanes="56" speed="13.89" allow="pedestrian passenger" oneway="0"/>
    <type id="87" priority="991" numLanes="56" speed="13.89" allow="pedestrian passenger" oneway="0"/>
    <type id="88" priority="991" numLanes="56" speed="13.89" allow="pedestrian passenger" oneway="0"/>
    <type id="89" priority="991" numLanes="56" speed="13.89" allow="pedestrian passenger" oneway="0"/>
    <type id="9" priority="999" numLanes="56" speed="13.89" allow="pedestrian passenger" oneway="0"/>
    <type id="90" priority="990" numLanes="56" speed="13.89" allow="pedestrian passenger" oneway="0"/>
    <type id="91" priority="990" numLanes="56" speed="13.89" allow="pedestrian passenger" oneway="0"/>
    <type id="92" priority="990" numLanes="56" speed="13.89" allow="pedestrian passenger" oneway="0"/>
    <type id="93" priority="990" numLanes="56" speed="13.89" allow="pedestrian passenger" oneway="0"/>
    <type id="94" priority="990" numLanes="56" speed="13.89" allow="pedestrian passenger" oneway="0"/>
    <type id="95" priority="990" numLanes="56" speed="13.89" allow="pedestrian passenger" oneway="0"/>
    <type id="96" priority="990" numLanes="56" speed="13.89" allow="pedestrian passenger" oneway="0"/>
    <type id="97" priority="990" numLanes="56" speed="13.89" allow="pedestrian passenger" oneway="0"/>
    <type id="98" priority="990" numLanes="56" speed="13.89" allow="pedestrian passenger" oneway="0"/>
    <type id="99" priority="990" numLanes="56" speed="13.89" allow="pedestrian passenger" oneway="0"/>

    <edge id=":15_0" function="internal">
        <lane id=":15_0_0" index="0" allow="pedestrian passenger" speed="8.34" length="7.99" shape="1063.73,557.40 1060.57,557.11 1058.19,557.02 1056.61,557.14 1055.82,557.46"/>
    </edge>
    <edge id=":15_1" function="internal">
        <lane id=":15_1_0" index="0" allow="pedestrian passenger" speed="7.89" length="11.92" shape="1063.73,557.40 1062.15,556.60 1060.92,554.59 1060.04,551.38 1059.53,546.95"/>
    </edge>
    <edge id=":15_2" function="internal">
        <lane id=":15_2_0" index="0" allow="pedestrian passenger" speed="9.64" length="8.86" shape="1053.47,555.29 1054.84,553.49 1055.78,551.54 1056.27,549.43 1056.34,547.17"/>
    </edge>
    <edge id=":15_3" function="internal">
        <lane id=":15_3_0" index="0" allow="pedestrian passenger" speed="11.14" length="14.69" shape="1053.47,555.29 1055.08,554.49 1058.02,554.11 1062.31,554.16 1067.92,554.65"/>
    </edge>
    <edge id=":16_0" function="internal">
        <lane id=":16_0_0" index="0" allow="pedestrian passenger" speed="7.75" length="9.03" shape="1093.76,553.69 1092.19,552.91 1090.24,552.78 1087.92,553.30 1085.22,554.47"/>
    </edge>
    <edge id=":16_1" function="internal">
        <lane id=":16_1_0" index="0" allow="pedestrian passenger" speed="9.58" length="8.86" shape="1091.73,543.58 1092.12,545.81 1092.92,547.82 1094.13,549.62 1095.76,551.19"/>
    </edge>
    <edge id=":16_2" function="internal">
        <lane id=":16_2_0" index="0" allow="pedestrian passenger" speed="8.70" length="11.74" shape="1088.54,543.83 1088.58,547.71 1088.04,550.77 1086.92,553.03 1085.22,554.47"/>
    </edge>
    <edge id=":16_3" function="internal">
        <lane id=":16_3_0" index="0" allow="pedestrian passenger" speed="10.01" length="5.64" shape="1081.06,553.03 1085.84,550.91 1086.24,550.81"/>
    </edge>
    <edge id=":16_4" function="internal">
        <lane id=":16_4_0" index="0" allow="pedestrian passenger" speed="10.01" length="9.90" shape="1086.24,550.81 1089.88,549.89 1093.19,549.98 1095.76,551.19"/>
    </edge>
    <edge id=":22_0" function="internal">
        <lane id=":22_0_0" index="0" allow="pedestrian passenger" speed="19.44" length="7.78" shape="320.92,557.70 313.22,558.22"/>
        <lane id=":22_0_1" index="1" allow="pedestrian passenger" speed="19.44" length="7.78" shape="320.77,554.51 312.94,555.03"/>
    </edge>
    <edge id=":22_2" function="internal">
        <lane id=":22_2_0" index="0" allow="pedestrian passenger" speed="19.44" length="8.57" shape="312.40,548.65 314.86,547.94 316.35,546.73 317.84,545.54 320.30,544.92"/>
        <lane id=":22_2_1" index="1" allow="pedestrian passenger" speed="19.44" length="8.57" shape="312.67,551.84 315.10,551.13 316.56,549.92 318.03,548.73 320.46,548.11"/>
        <lane id=":22_2_2" index="2" allow="pedestrian passenger" speed="19.44" length="8.57" shape="312.67,551.84 320.61,551.31"/>
    </edge>
    <edge id=":23_0" function="internal">
        <lane id=":23_0_0" index="0" allow="pedestrian passenger" speed="19.44" length="8.41" shape="508.99,544.46 506.64,545.12 505.24,546.33 503.84,547.56 501.50,548.29"/>
        <lane id=":23_0_1" index="1" allow="pedestrian passenger" speed="19.44" length="8.41" shape="508.77,541.27 506.39,541.93 504.97,543.14 503.56,544.37 501.18,545.11"/>
        <lane id=":23_0_2" index="2" allow="pedestrian passenger" speed="19.44" length="8.41" shape="508.77,541.27 500.87,541.92"/>
    </edge>
    <edge id=":23_3" function="internal">
        <lane id=":23_3_0" index="0" allow="pedestrian passenger" speed="19.44" length="8.07" shape="500.24,535.56 508.34,534.88"/>
        <lane id=":23_3_1" index="1" allow="pedestrian passenger" speed="19.44" length="8.07" shape="500.55,538.74 508.55,538.07"/>
    </edge>
    <edge id=":24_0" function="internal">
        <lane id=":24_0_0" index="0" allow="pedestrian passenger" speed="13.89" length="7.39" shape="434.95,659.04 435.13,661.23 435.19,662.73 435.14,664.23 435.01,666.42"/>
    </edge>
    <edge id=":24_1" function="internal">
        <lane id=":24_1_0" index="0" allow="pedestrian passenger" speed="13.89" length="8.09" shape="431.82,666.22 430.99,663.95 428.85,663.03 426.59,662.11 425.39,659.85"/>
        <lane id=":24_1_1" index="1" allow="pedestrian passenger" speed="13.89" length="8.09" shape="431.82,666.22 431.45,664.14 430.40,662.90 429.25,661.65 428.58,659.58"/>
        <lane id=":24_1_2" index="2" allow="pedestrian passenger" speed="13.89" length="8.09" shape="431.82,666.22 431.94,664.17 431.98,662.76 431.93,661.36 431.76,659.31"/>
    </edge>
    <edge id=":25_0" function="internal">
        <lane id=":25_0_0" index="0" allow="pedestrian passenger" speed="13.89" length="0.26" shape="414.23,444.70 414.21,444.44"/>
    </edge>
    <edge id=":25_1" function="internal">
        <lane id=":25_1_0" index="0" allow="pedestrian passenger" speed="13.89" length="0.31" shape="417.39,444.13 417.42,444.45"/>
    </edge>
    <edge id=":26_0" function="internal">
        <lane id=":26_0_0" index="0" allow="pedestrian passenger" speed="19.44" length="8.61" shape="1742.87,519.89 1740.70,518.53 1738.80,518.24 1736.91,517.94 1734.79,516.54"/>
        <lane id=":26_0_1" index="1" allow="pedestrian passenger" speed="19.44" length="8.61" shape="1745.06,517.56 1742.91,516.22 1741.02,515.94 1739.15,515.65 1737.03,514.26"/>
        <lane id=":26_0_2" index="2" allow="pedestrian passenger" speed="19.44" length="8.61" shape="1745.06,517.56 1739.28,511.99"/>
    </edge>
    <edge id=":26_3" function="internal">
        <lane id=":26_3_0" index="0" allow="pedestrian passenger" speed="19.44" length="7.88" shape="1746.02,505.15 1751.64,510.57"/>
        <lane id=":26_3_1" index="1" allow="pedestrian passenger" speed="19.44" length="7.88" shape="1743.77,507.43 1749.45,512.90"/>
        <lane id=":26_3_2" index="2" allow="pedestrian passenger" speed="19.44" length="7.88" shape="1741.53,509.71 1747.25,515.23"/>
    </edge>
    <edge id=":27_0" function="internal">
        <lane id=":27_0_0" index="0" allow="pedestrian passenger" speed="19.44" length="7.77" shape="1019.24,495.64 1011.53,495.83"/>
        <lane id=":27_0_1" index="1" allow="pedestrian passenger" speed="19.44" length="7.77" shape="1019.23,492.44 1011.40,492.63"/>
    </edge>
    <edge id=":27_2" function="internal">
        <lane id=":27_2_0" index="0" allow="pedestrian passenger" speed="19.44" length="8.57" shape="1011.12,486.24 1013.61,485.63 1015.15,484.48 1016.69,483.36 1019.18,482.84"/>
        <lane id=":27_2_1" index="1" allow="pedestrian passenger" speed="19.44" length="8.57" shape="1011.26,489.43 1013.71,488.83 1015.23,487.68 1016.74,486.56 1019.20,486.04"/>
        <lane id=":27_2_2" index="2" allow="pedestrian passenger" speed="19.44" length="8.57" shape="1011.26,489.43 1019.21,489.24"/>
    </edge>
    <edge id=":28_0" function="internal">
        <lane id=":28_0_0" index="0" allow="pedestrian passenger" speed="19.44" length="6.49" shape="1704.60,490.49 1703.17,489.40 1702.17,488.69 1701.12,488.04 1699.56,487.14"/>
        <lane id=":28_0_1" index="1" allow="pedestrian passenger" speed="19.44" length="6.49" shape="1706.54,487.95 1705.01,486.78 1703.94,486.01 1702.81,485.32 1701.14,484.36"/>
        <lane id=":28_0_2" index="2" allow="pedestrian passenger" speed="19.44" length="6.49" shape="1708.49,485.41 1706.85,484.16 1705.70,483.34 1704.51,482.60 1702.72,481.58"/>
    </edge>
    <edge id=":28_3" function="internal">
        <lane id=":28_3_0" index="0" allow="pedestrian passenger" speed="19.44" length="8.21" shape="1705.88,476.01 1708.30,476.82 1710.23,476.71 1712.09,476.70 1714.33,477.79"/>
        <lane id=":28_3_1" index="1" allow="pedestrian passenger" speed="19.44" length="8.21" shape="1704.30,478.79 1706.61,479.54 1708.46,479.38 1710.24,479.32 1712.38,480.33"/>
        <lane id=":28_3_2" index="2" allow="pedestrian passenger" speed="19.44" length="8.21" shape="1704.30,478.79 1706.20,479.88 1707.47,480.67 1708.69,481.54 1710.44,482.87"/>
    </edge>
    <edge id=":3_0" function="internal">
        <lane id=":3_0_0" index="0" allow="pedestrian passenger" speed="7.50" length="12.00" shape="417.16,562.08 416.48,558.16 415.21,555.39 413.33,553.79 410.86,553.34"/>
    </edge>
    <edge id=":3_1" function="internal">
        <lane id=":3_1_0" index="0" allow="pedestrian passenger" speed="13.89" length="27.50" shape="420.35,561.81 420.07,552.45 420.55,544.83 421.17,538.83 421.32,534.37"/>
    </edge>
    <edge id=":3_2" function="internal">
        <lane id=":3_2_0" index="0" allow="pedestrian passenger" speed="9.39" length="9.88" shape="423.54,561.54 423.53,554.89 424.34,551.77"/>
    </edge>
    <edge id=":3_14" function="internal">
        <lane id=":3_14_0" index="0" allow="pedestrian passenger" speed="9.39" length="9.84" shape="424.34,551.77 424.80,550.01 427.33,546.91 431.13,545.59"/>
    </edge>
    <edge id=":3_3" function="internal">
        <lane id=":3_3_0" index="0" allow="pedestrian passenger" speed="6.61" length="9.24" shape="432.07,555.14 429.55,555.74 427.83,556.96 426.88,558.81 426.72,561.27"/>
    </edge>
    <edge id=":3_4" function="internal">
        <lane id=":3_4_0" index="0" allow="pedestrian passenger" speed="19.44" length="21.29" shape="432.07,555.14 425.69,555.23 421.24,554.45 416.90,553.57 410.86,553.34"/>
        <lane id=":3_4_1" index="1" allow="pedestrian passenger" speed="19.44" length="21.29" shape="431.75,551.96 425.44,552.04 421.03,551.26 416.73,550.37 410.71,550.15"/>
    </edge>
    <edge id=":3_6" function="internal">
        <lane id=":3_6_0" index="0" allow="pedestrian passenger" speed="9.28" length="5.50" shape="431.44,548.77 427.46,548.20 426.34,547.23"/>
    </edge>
    <edge id=":3_15" function="internal">
        <lane id=":3_15_0" index="0" allow="pedestrian passenger" speed="9.28" length="14.26" shape="426.34,547.23 424.45,545.61 422.40,541.00 421.32,534.37"/>
    </edge>
    <edge id=":3_7" function="internal">
        <lane id=":3_7_0" index="0" allow="pedestrian passenger" speed="7.28" length="11.75" shape="424.51,534.11 425.16,537.95 426.43,540.61 428.32,542.09 430.81,542.40"/>
    </edge>
    <edge id=":3_8" function="internal">
        <lane id=":3_8_0" index="0" allow="pedestrian passenger" speed="13.89" length="27.25" shape="424.51,534.11 426.72,561.27"/>
    </edge>
    <edge id=":3_9" function="internal">
        <lane id=":3_9_0" index="0" allow="pedestrian passenger" speed="10.21" length="11.11" shape="424.51,534.11 424.10,540.86 422.16,544.76"/>
    </edge>
    <edge id=":3_16" function="internal">
        <lane id=":3_16_0" index="0" allow="pedestrian passenger" speed="10.21" length="13.18" shape="422.16,544.76 421.66,545.77 417.20,548.87 410.71,550.15"/>
    </edge>
    <edge id=":3_10" function="internal">
        <lane id=":3_10_0" index="0" allow="pedestrian passenger" speed="7.89" length="14.08" shape="410.24,540.56 415.26,539.96 418.77,538.73 420.79,536.87 421.32,534.37"/>
    </edge>
    <edge id=":3_11" function="internal">
        <lane id=":3_11_0" index="0" allow="pedestrian passenger" speed="19.44" length="20.82" shape="410.24,540.56 416.41,540.77 420.66,541.66 424.85,542.46 430.81,542.40"/>
        <lane id=":3_11_1" index="1" allow="pedestrian passenger" speed="19.44" length="20.82" shape="410.40,543.75 416.62,543.97 420.93,544.85 425.15,545.64 431.13,545.59"/>
    </edge>
    <edge id=":3_13" function="internal">
        <lane id=":3_13_0" index="0" allow="pedestrian passenger" speed="10.49" length="11.00" shape="410.55,546.95 417.15,547.57 421.01,549.62"/>
    </edge>
    <edge id=":3_17" function="internal">
        <lane id=":3_17_0" index="0" allow="pedestrian passenger" speed="10.49" length="13.44" shape="421.01,549.62 422.05,550.17 425.24,554.74 426.72,561.27"/>
    </edge>
    <edge id=":4_0" function="internal">
        <lane id=":4_0_0" index="0" allow="pedestrian passenger" speed="6.43" length="9.03" shape="582.22,545.13 581.79,542.68 580.67,540.98 578.88,540.04 576.39,539.86"/>
    </edge>
    <edge id=":4_1" function="internal">
        <lane id=":4_1_0" index="0" allow="pedestrian passenger" speed="8.96" length="16.66" shape="582.22,545.13 582.55,539.83 583.92,535.89 586.32,533.31 589.77,532.10"/>
    </edge>
    <edge id=":4_2" function="internal">
        <lane id=":4_2_0" index="0" allow="pedestrian passenger" speed="6.87" length="9.37" shape="590.63,538.44 588.28,539.12 586.63,540.45 585.67,542.42 585.42,545.03"/>
    </edge>
    <edge id=":4_3" function="internal">
        <lane id=":4_3_0" index="0" allow="pedestrian passenger" speed="19.44" length="14.20" shape="590.63,538.44 576.39,539.86"/>
        <lane id=":4_3_1" index="1" allow="pedestrian passenger" speed="19.44" length="14.20" shape="590.20,535.27 576.18,536.66"/>
    </edge>
    <edge id=":4_5" function="internal">
        <lane id=":4_5_0" index="0" allow="pedestrian passenger" speed="19.44" length="13.77" shape="575.74,530.28 589.34,528.93"/>
        <lane id=":4_5_1" index="1" allow="pedestrian passenger" speed="19.44" length="13.77" shape="575.96,533.47 589.77,532.10"/>
    </edge>
    <edge id=":4_7" function="internal">
        <lane id=":4_7_0" index="0" allow="pedestrian passenger" speed="8.61" length="5.11" shape="575.96,533.47 579.95,533.96 580.83,534.59"/>
    </edge>
    <edge id=":4_8" function="internal">
        <lane id=":4_8_0" index="0" allow="pedestrian passenger" speed="8.61" length="11.95" shape="580.83,534.59 582.86,536.05 584.68,539.74 585.42,545.03"/>
    </edge>
    <edge id=":5_0" function="internal">
        <lane id=":5_0_0" index="0" allow="pedestrian passenger" speed="6.62" length="8.95" shape="1053.26,501.12 1052.76,498.65 1051.66,496.90 1049.94,495.85 1047.61,495.51"/>
    </edge>
    <edge id=":5_1" function="internal">
        <lane id=":5_1_0" index="0" allow="pedestrian passenger" speed="8.74" length="17.28" shape="1056.45,500.90 1056.36,494.35 1057.11,489.62 1058.69,486.72 1061.10,485.65"/>
    </edge>
    <edge id=":5_2" function="internal">
        <lane id=":5_2_0" index="0" allow="pedestrian passenger" speed="8.00" length="14.34" shape="1056.45,500.90 1056.45,495.74 1057.26,492.01 1058.87,489.71 1061.27,488.85"/>
    </edge>
    <edge id=":5_3" function="internal">
        <lane id=":5_3_0" index="0" allow="pedestrian passenger" speed="19.44" length="13.92" shape="1061.62,495.24 1047.61,495.51"/>
        <lane id=":5_3_1" index="1" allow="pedestrian passenger" speed="19.44" length="13.92" shape="1061.44,492.04 1047.60,492.31"/>
    </edge>
    <edge id=":5_5" function="internal">
        <lane id=":5_5_0" index="0" allow="pedestrian passenger" speed="19.44" length="13.53" shape="1047.55,482.71 1060.92,482.46"/>
        <lane id=":5_5_1" index="1" allow="pedestrian passenger" speed="19.44" length="13.53" shape="1047.57,485.91 1061.10,485.65"/>
        <lane id=":5_5_2" index="2" allow="pedestrian passenger" speed="19.44" length="13.53" shape="1047.58,489.11 1061.27,488.85"/>
    </edge>
    <edge id=":6_0" function="internal">
        <lane id=":6_0_0" index="0" allow="pedestrian passenger" speed="6.48" length="9.03" shape="1093.49,493.41 1091.06,493.92 1089.39,495.08 1088.47,496.90 1088.31,499.37"/>
    </edge>
    <edge id=":6_1" function="internal">
        <lane id=":6_1_0" index="0" allow="pedestrian passenger" speed="19.44" length="14.37" shape="1093.49,493.41 1079.13,494.29"/>
        <lane id=":6_1_1" index="1" allow="pedestrian passenger" speed="19.44" length="14.37" shape="1093.29,490.22 1078.96,491.09"/>
    </edge>
    <edge id=":6_3" function="internal">
        <lane id=":6_3_0" index="0" allow="pedestrian passenger" speed="19.44" length="14.76" shape="1078.44,481.51 1082.75,481.77 1085.66,482.69 1088.57,483.61 1092.88,483.83"/>
        <lane id=":6_3_1" index="1" allow="pedestrian passenger" speed="19.44" length="14.76" shape="1078.61,484.70 1082.93,484.96 1085.85,485.89 1088.77,486.80 1093.08,487.02"/>
    </edge>
    <edge id=":6_5" function="internal">
        <lane id=":6_5_0" index="0" allow="pedestrian passenger" speed="8.17" length="3.55" shape="1078.78,487.90 1081.21,488.52 1081.89,489.31"/>
    </edge>
    <edge id=":6_6" function="internal">
        <lane id=":6_6_0" index="0" allow="pedestrian passenger" speed="8.17" length="11.03" shape="1081.89,489.31 1083.07,490.68 1084.38,494.38 1085.12,499.62"/>
    </edge>
    <edge id=":7_0" function="internal">
        <lane id=":7_0_0" index="0" allow="pedestrian passenger" speed="6.51" length="9.02" shape="1452.12,467.31 1451.55,464.91 1450.35,463.26 1448.51,462.38 1446.04,462.25"/>
    </edge>
    <edge id=":7_1" function="internal">
        <lane id=":7_1_0" index="0" allow="pedestrian passenger" speed="8.68" length="16.83" shape="1452.12,467.31 1452.19,462.04 1453.48,458.15 1456.00,455.66 1459.76,454.55"/>
    </edge>
    <edge id=":7_2" function="internal">
        <lane id=":7_2_0" index="0" allow="pedestrian passenger" speed="6.51" length="9.03" shape="1460.36,460.92 1457.96,461.50 1456.32,462.71 1455.43,464.55 1455.31,467.02"/>
    </edge>
    <edge id=":7_3" function="internal">
        <lane id=":7_3_0" index="0" allow="pedestrian passenger" speed="19.44" length="14.38" shape="1460.36,460.92 1446.04,462.25"/>
        <lane id=":7_3_1" index="1" allow="pedestrian passenger" speed="19.44" length="14.38" shape="1460.06,457.73 1445.75,459.06"/>
    </edge>
    <edge id=":7_5" function="internal">
        <lane id=":7_5_0" index="0" allow="pedestrian passenger" speed="19.44" length="14.35" shape="1445.17,452.69 1459.45,451.36"/>
        <lane id=":7_5_1" index="1" allow="pedestrian passenger" speed="19.44" length="14.35" shape="1445.46,455.88 1459.76,454.55"/>
    </edge>
    <edge id=":7_7" function="internal">
        <lane id=":7_7_0" index="0" allow="pedestrian passenger" speed="8.67" length="5.24" shape="1445.46,455.88 1449.36,456.27 1450.46,457.02"/>
    </edge>
    <edge id=":7_8" function="internal">
        <lane id=":7_8_0" index="0" allow="pedestrian passenger" speed="8.67" length="11.59" shape="1450.46,457.02 1452.30,458.26 1454.28,461.85 1455.31,467.02"/>
    </edge>
    <edge id=":8_0" function="internal">
        <lane id=":8_0_0" index="0" allow="pedestrian passenger" speed="19.44" length="12.82" shape="1684.20,478.43 1681.25,476.21 1679.57,474.15 1677.80,472.27 1674.60,470.59"/>