<?xml version="1.0" encoding="UTF-8"?>

<!-- generated on Wed Jul  3 08:55:52 2019 by Eclipse SUMO Version v1_2_0+0918-6832705
<configuration xmlns:xsi="http://www.w3.org/2001/XMLSchema-instance" xsi:noNamespaceSchemaLocation="http://sumo.dlr.de/xsd/sumoConfiguration.xsd">

    <input>
        <net-file value="input_net.net.xml"/>
        <route-files value="input_routes.rou.xml"/>
    </input>

    <output>
        <fcd-output value="fcd.xml"/>
        <lanechange-output value="lanechanges.xml"/>
        <lanechange-output.started value="true"/>
        <lanechange-output.ended value="true"/>
    </output>

    <time>
        <begin value="0"/>
        <step-length value="0.1"/>
    </time>

    <processing>
        <lateral-resolution value="3.2"/>
        <default.action-step-length value="1"/>
        <default.speeddev value="0"/>
    </processing>

    <report>
        <no-step-log value="true"/>
    </report>

    <traci_server>
        <remote-port value="60078"/>
    </traci_server>

    <gui_only>
        <tracker-interval value="0.1"/>
    </gui_only>

</configuration>
-->

<lanechanges>
    <changeStarted id="v0" type="t0" time="0.10" from="beg_0" to="beg_0" dir="0" speed="0.26" pos="5.11" reason="traci|urgent" leaderGap="None" leaderSecureGap="None" leaderSpeed="None" followerGap="None" followerSecureGap="None" followerSpeed="None" origLeaderGap="None" origLeaderSecureGap="None" origLeaderSpeed="None" latGap="None" maneuverDistance="2.50"/>
    <changeStarted id="v0" type="t0" time="0.20" from="beg_0" to="beg_0" dir="0" speed="0.52" pos="5.15" reason="traci|urgent" leaderGap="None" leaderSecureGap="None" leaderSpeed="None" followerGap="None" followerSecureGap="None" followerSpeed="None" origLeaderGap="None" origLeaderSecureGap="None" origLeaderSpeed="None" latGap="None" maneuverDistance="2.49"/>
    <changeStarted id="v0" type="t0" time="0.30" from="beg_0" to="beg_0" dir="0" speed="0.78" pos="5.22" reason="traci|urgent" leaderGap="None" leaderSecureGap="None" leaderSpeed="None" followerGap="None" followerSecureGap="None" followerSpeed="None" origLeaderGap="None" origLeaderSecureGap="None" origLeaderSpeed="None" latGap="None" maneuverDistance="2.47"/>
    <changeStarted id="v0" type="t0" time="0.40" from="beg_0" to="beg_0" dir="0" speed="1.04" pos="5.31" reason="traci|urgent" leaderGap="None" leaderSecureGap="None" leaderSpeed="None" followerGap="None" followerSecureGap="None" followerSpeed="None" origLeaderGap="None" origLeaderSecureGap="None" origLeaderSpeed="None" latGap="None" maneuverDistance="2.44"/>
    <changeStarted id="v0" type="t0" time="0.50" from="beg_0" to="beg_0" dir="0" speed="1.30" pos="5.42" reason="traci|urgent" leaderGap="None" leaderSecureGap="None" leaderSpeed="None" followerGap="None" followerSecureGap="None" followerSpeed="None" origLeaderGap="None" origLeaderSecureGap="None" origLeaderSpeed="None" latGap="None" maneuverDistance="2.40"/>
    <changeStarted id="v0" type="t0" time="0.60" from="beg_0" to="beg_0" dir="0" speed="1.56" pos="5.57" reason="traci|urgent" leaderGap="None" leaderSecureGap="None" leaderSpeed="None" followerGap="None" followerSecureGap="None" followerSpeed="None" origLeaderGap="None" origLeaderSecureGap="None" origLeaderSpeed="None" latGap="None" maneuverDistance="2.35"/>
    <changeStarted id="v0" type="t0" time="0.70" from="beg_0" to="beg_0" dir="0" speed="1.82" pos="5.74" reason="traci|urgent" leaderGap="None" leaderSecureGap="None" leaderSpeed="None" followerGap="None" followerSecureGap="None" followerSpeed="None" origLeaderGap="None" origLeaderSecureGap="None" origLeaderSpeed="None" latGap="None" maneuverDistance="2.29"/>
    <changeStarted id="v0" type="t0" time="0.80" from="beg_0" to="beg_0" dir="0" speed="2.08" pos="5.93" reason="traci|urgent" leaderGap="None" leaderSecureGap="None" leaderSpeed="None" followerGap="None" followerSecureGap="None" followerSpeed="None" origLeaderGap="None" origLeaderSecureGap="None" origLeaderSpeed="None" latGap="None" maneuverDistance="2.22"/>
    <changeStarted id="v0" type="t0" time="0.90" from="beg_0" to="beg_0" dir="0" speed="2.34" pos="6.15" reason="traci|urgent" leaderGap="None" leaderSecureGap="None" leaderSpeed="None" followerGap="None" followerSecureGap="None" followerSpeed="None" origLeaderGap="None" origLeaderSecureGap="None" origLeaderSpeed="None" latGap="None" maneuverDistance="2.14"/>
    <changeStarted id="v0" type="t0" time="1.00" from="beg_0" to="beg_0" dir="0" speed="2.60" pos="6.40" reason="traci|urgent" leaderGap="None" leaderSecureGap="None" leaderSpeed="None" followerGap="None" followerSecureGap="None" followerSpeed="None" origLeaderGap="None" origLeaderSecureGap="None" origLeaderSpeed="None" latGap="None" maneuverDistance="2.05"/>
    <change id="v0" type="t0" time="2.10" from="beg_0" to="beg_1" dir="1" speed="5.46" pos="10.83" reason="traci|sublane" leaderGap="None" leaderSecureGap="None" leaderSpeed="None" followerGap="None" followerSecureGap="None" followerSpeed="None" origLeaderGap="None" origLeaderSecureGap="None" origLeaderSpeed="None" latGap="None"/>
    <changeEnded id="v0" type="t0" time="3.40" from="beg_1" to="beg_1" dir="0" speed="8.84" pos="20.13" reason="traci|sublane" leaderGap="None" leaderSecureGap="None" leaderSpeed="None" followerGap="None" followerSecureGap="None" followerSpeed="None" origLeaderGap="None" origLeaderSecureGap="None" origLeaderSpeed="None" latGap="None"/>
    <changeEnded id="v0" type="t0" time="30.60" from="beg_1" to="beg_1" dir="-1" speed="13.89" pos="237.88" reason="keepRight|traci|urgent" leaderGap="None" leaderSecureGap="None" leaderSpeed="None" followerGap="None" followerSecureGap="None" followerSpeed="None" origLeaderGap="None" origLeaderSecureGap="None" origLeaderSpeed="None" latGap="None"/>
    <changeStarted id="v0" type="t0" time="30.60" from="beg_1" to="beg_0" dir="-1" speed="13.89" pos="237.88" reason="keepRight|traci|urgent" leaderGap="None" leaderSecureGap="None" leaderSpeed="None" followerGap="None" followerSecureGap="None" followerSpeed="None" origLeaderGap="None" origLeaderSecureGap="None" origLeaderSpeed="None" latGap="None" maneuverDistance="-1.80"/>
    <changeEnded id="v0" type="t0" time="30.70" from="beg_1" to="beg_1" dir="-1" speed="13.89" pos="239.27" reason="keepRight|traci|urgent" leaderGap="None" leaderSecureGap="None" leaderSpeed="None" followerGap="None" followerSecureGap="None" followerSpeed="None" origLeaderGap="None" origLeaderSecureGap="None" origLeaderSpeed="None" latGap="None"/>
    <changeStarted id="v0" type="t0" time="30.70" from="beg_1" to="beg_0" dir="-1" speed="13.89" pos="239.27" reason="keepRight|traci|urgent" leaderGap="None" leaderSecureGap="None" leaderSpeed="None" followerGap="None" followerSecureGap="None" followerSpeed="None" origLeaderGap="None" origLeaderSecureGap="None" origLeaderSpeed="None" latGap="None" maneuverDistance="-1.79"/>
    <changeEnded id="v0" type="t0" time="30.80" from="beg_1" to="beg_1" dir="-1" speed="13.89" pos="240.66" reason="keepRight|traci|urgent" leaderGap="None" leaderSecureGap="None" leaderSpeed="None" followerGap="None" followerSecureGap="None" followerSpeed="None" origLeaderGap="None" origLeaderSecureGap="None" origLeaderSpeed="None" latGap="None"/>
    <changeStarted id="v0" type="t0" time="30.80" from="beg_1" to="beg_0" dir="-1" speed="13.89" pos="240.66" reason="keepRight|traci|urgent" leaderGap="None" leaderSecureGap="None" leaderSpeed="None" followerGap="None" followerSecureGap="None" followerSpeed="None" origLeaderGap="None" origLeaderSecureGap="None" origLeaderSpeed="None" latGap="None" maneuverDistance="-1.77"/>
    <changeEnded id="v0" type="t0" time="30.90" from="beg_1" to="beg_1" dir="-1" speed="13.89" pos="242.05" reason="keepRight|traci|urgent" leaderGap="None" leaderSecureGap="None" leaderSpeed="None" followerGap="None" followerSecureGap="None" followerSpeed="None" origLeaderGap="None" origLeaderSecureGap="None" origLeaderSpeed="None" latGap="None"/>
    <changeStarted id="v0" type="t0" time="30.90" from="beg_1" to="beg_0" dir="-1" speed="13.89" pos="242.05" reason="keepRight|traci|urgent" leaderGap="None" leaderSecureGap="None" leaderSpeed="None" followerGap="None" followerSecureGap="None" followerSpeed="None" origLeaderGap="None" origLeaderSecureGap="None" origLeaderSpeed="None" latGap="None" maneuverDistance="-1.74"/>
    <changeEnded id="v0" type="t0" time="31.00" from="beg_1" to="beg_1" dir="-1" speed="13.89" pos="243.44" reason="keepRight|traci|urgent" leaderGap="None" leaderSecureGap="None" leaderSpeed="None" followerGap="None" followerSecureGap="None" followerSpeed="None" origLeaderGap="None" origLeaderSecureGap="None" origLeaderSpeed="None" latGap="None"/>
    <changeStarted id="v0" type="t0" time="31.00" from="beg_1" to="beg_0" dir="-1" speed="13.89" pos="243.44" reason="keepRight|traci|urgent" leaderGap="None" leaderSecureGap="None" leaderSpeed="None" followerGap="None" followerSecureGap="None" followerSpeed="None" origLeaderGap="None" origLeaderSecureGap="None" origLeaderSpeed="None" latGap="None" maneuverDistance="-1.70"/>
    <change id="v0" type="t0" time="31.90" from="beg_1" to="beg_0" dir="-1" speed="13.89" pos="255.94" reason="keepRight|traci" leaderGap="None" leaderSecureGap="None" leaderSpeed="None" followerGap="None" followerSecureGap="None" followerSpeed="None" origLeaderGap="None" origLeaderSecureGap="None" origLeaderSpeed="None" latGap="None"/>
    <changeEnded id="v0" type="t0" time="33.20" from="beg_0" to="beg_0" dir="0" speed="13.89" pos="274.00" reason="keepRight|traci|sublane" leaderGap="None" leaderSecureGap="None" leaderSpeed="None" followerGap="None" followerSecureGap="None" followerSpeed="None" origLeaderGap="None" origLeaderSecureGap="None" origLeaderSpeed="None" latGap="None"/>
    <changeStarted id="v0" type="t0" time="60.60" from="beg_0" to="beg_1" dir="1" speed="13.89" pos="492.78" reason="traci|sublane" leaderGap="None" leaderSecureGap="None" leaderSpeed="None" followerGap="None" followerSecureGap="None" followerSpeed="None" origLeaderGap="None" origLeaderSecureGap="None" origLeaderSpeed="None" latGap="None" maneuverDistance="1.60"/>
    <changeStarted id="v0" type="t0" time="60.70" from="beg_0" to="beg_1" dir="1" speed="13.89" pos="494.17" reason="traci|sublane" leaderGap="None" leaderSecureGap="None" leaderSpeed="None" followerGap="None" followerSecureGap="None" followerSpeed="None" origLeaderGap="None" origLeaderSecureGap="None" origLeaderSpeed="None" latGap="None" maneuverDistance="1.59"/>
    <changeStarted id="v0" type="t0" time="60.80" from="beg_0" to="beg_1" dir="1" speed="13.89" pos="495.56" reason="traci|sublane" leaderGap="None" leaderSecureGap="None" leaderSpeed="None" followerGap="None" followerSecureGap="None" followerSpeed="None" origLeaderGap="None" origLeaderSecureGap="None" origLeaderSpeed="None" latGap="None" maneuverDistance="1.57"/>
    <changeStarted id="v0" type="t0" time="60.90" from="beg_0" to="beg_1" dir="1" speed="13.89" pos="496.95" reason="traci|sublane" leaderGap="None" leaderSecureGap="None" leaderSpeed="None" followerGap="None" followerSecureGap="None" followerSpeed="None" origLeaderGap="None" origLeaderSecureGap="None" origLeaderSpeed="None" latGap="None" maneuverDistance="1.54"/>
    <changeStarted id="v0" type="t0" time="61.00" from="beg_0" to="beg_1" dir="1" speed="13.89" pos="498.34" reason="traci|sublane" leaderGap="None" leaderSecureGap="None" leaderSpeed="None" followerGap="None" followerSecureGap="None" followerSpeed="None" origLeaderGap="None" origLeaderSecureGap="None" origLeaderSpeed="None" latGap="None" maneuverDistance="1.50"/>
    <change id="v0" type="t0" time="61.90" from="beg_0" to="beg_1" dir="1" speed="13.89" pos="510.84" reason="traci|sublane" leaderGap="None" leaderSecureGap="None" leaderSpeed="None" followerGap="None" followerSecureGap="None" followerSpeed="None" origLeaderGap="None" origLeaderSecureGap="None" origLeaderSpeed="None" latGap="None"/>
    <changeEnded id="v0" type="t0" time="62.10" from="beg_1" to="beg_1" dir="1" speed="13.89" pos="513.62" reason="keepRight|traci" leaderGap="None" leaderSecureGap="None" leaderSpeed="None" followerGap="None" followerSecureGap="None" followerSpeed="None" origLeaderGap="None" origLeaderSecureGap="None" origLeaderSpeed="None" latGap="None"/>
    <changeStarted id="v0" type="t0" time="62.10" from="beg_1" to="beg_1" dir="0" speed="13.89" pos="513.62" reason="keepRight|traci" leaderGap="None" leaderSecureGap="None" leaderSpeed="None" followerGap="None" followerSecureGap="None" followerSpeed="None" origLeaderGap="None" origLeaderSecureGap="None" origLeaderSpeed="None" latGap="None" maneuverDistance="0.55"/>
    <changeEnded id="v0" type="t0" time="62.20" from="beg_1" to="beg_1" dir="1" speed="13.89" pos="515.00" reason="keepRight|traci" leaderGap="None" leaderSecureGap="None" leaderSpeed="None" followerGap="None" followerSecureGap="None" followerSpeed="None" origLeaderGap="None" origLeaderSecureGap="None" origLeaderSpeed="None" latGap="None"/>
    <changeStarted id="v0" type="t0" time="62.20" from="beg_1" to="beg_1" dir="0" speed="13.89" pos="515.00" reason="keepRight|traci" leaderGap="None" leaderSecureGap="None" leaderSpeed="None" followerGap="None" followerSecureGap="None" followerSpeed="None" origLeaderGap="None" origLeaderSecureGap="None" origLeaderSpeed="None" latGap="None" maneuverDistance="0.45"/>
    <changeEnded id="v0" type="t0" time="62.30" from="beg_1" to="beg_1" dir="1" speed="13.89" pos="516.39" reason="keepRight|traci" leaderGap="None" leaderSecureGap="None" leaderSpeed="None" followerGap="None" followerSecureGap="None" followerSpeed="None" origLeaderGap="None" origLeaderSecureGap="None" origLeaderSpeed="None" latGap="None"/>
    <changeStarted id="v0" type="t0" time="62.30" from="beg_1" to="beg_1" dir="0" speed="13.89" pos="516.39" reason="keepRight|traci" leaderGap="None" leaderSecureGap="None" leaderSpeed="None" followerGap="None" followerSecureGap="None" followerSpeed="None" origLeaderGap="None" origLeaderSecureGap="None" origLeaderSpeed="None" latGap="None" maneuverDistance="0.36"/>
    <changeEnded id="v0" type="t0" time="62.40" from="beg_1" to="beg_1" dir="1" speed="13.89" pos="517.78" reason="keepRight|traci" leaderGap="None" leaderSecureGap="None" leaderSpeed="None" followerGap="None" followerSecureGap="None" followerSpeed="None" origLeaderGap="None" origLeaderSecureGap="None" origLeaderSpeed="None" latGap="None"/>
    <changeStarted id="v0" type="t0" time="62.40" from="beg_1" to="beg_1" dir="0" speed="13.89" pos="517.78" reason="keepRight|traci" leaderGap="None" leaderSecureGap="None" leaderSpeed="None" followerGap="None" followerSecureGap="None" followerSpeed="None" origLeaderGap="None" origLeaderSecureGap="None" origLeaderSpeed="None" latGap="None" maneuverDistance="0.28"/>
    <changeEnded id="v0" type="t0" time="62.50" from="beg_1" to="beg_1" dir="1" speed="13.89" pos="519.17" reason="keepRight|traci" leaderGap="None" leaderSecureGap="None" leaderSpeed="None" followerGap="None" followerSecureGap="None" followerSpeed="None" origLeaderGap="None" origLeaderSecureGap="None" origLeaderSpeed="None" latGap="None"/>
    <changeStarted id="v0" type="t0" time="62.50" from="beg_1" to="beg_1" dir="0" speed="13.89" pos="519.17" reason="keepRight|traci" leaderGap="None" leaderSecureGap="None" leaderSpeed="None" followerGap="None" followerSecureGap="None" followerSpeed="None" origLeaderGap="None" origLeaderSecureGap="None" origLeaderSpeed="None" latGap="None" maneuverDistance="0.21"/>
    <changeEnded id="v0" type="t0" time="62.60" from="beg_1" to="beg_1" dir="1" speed="13.89" pos="520.56" reason="keepRight|traci" leaderGap="None" leaderSecureGap="None" leaderSpeed="None" followerGap="None" followerSecureGap="None" followerSpeed="None" origLeaderGap="None" origLeaderSecureGap="None" origLeaderSpeed="None" latGap="None"/>
    <changeStarted id="v0" type="t0" time="62.60" from="beg_1" to="beg_1" dir="0" speed="13.89" pos="520.56" reason="keepRight|traci" leaderGap="None" leaderSecureGap="None" leaderSpeed="None" followerGap="None" followerSecureGap="None" followerSpeed="None" origLeaderGap="None" origLeaderSecureGap="None" origLeaderSpeed="None" latGap="None" maneuverDistance="0.15"/>
    <changeEnded id="v0" type="t0" time="62.70" from="beg_1" to="beg_1" dir="1" speed="13.89" pos="521.95" reason="keepRight|traci" leaderGap="None" leaderSecureGap="None" leaderSpeed="None" followerGap="None" followerSecureGap="None" followerSpeed="None" origLeaderGap="None" origLeaderSecureGap="None" origLeaderSpeed="None" latGap="None"/>
    <changeStarted id="v0" type="t0" time="62.70" from="beg_1" to="beg_1" dir="0" speed="13.89" pos="521.95" reason="keepRight|traci" leaderGap="None" leaderSecureGap="None" leaderSpeed="None" followerGap="None" followerSecureGap="None" followerSpeed="None" origLeaderGap="None" origLeaderSecureGap="None" origLeaderSpeed="None" latGap="None" maneuverDistance="0.10"/>
    <changeEnded id="v0" type="t0" time="62.80" from="beg_1" to="beg_1" dir="1" speed="13.89" pos="523.34" reason="keepRight|traci" leaderGap="None" leaderSecureGap="None" leaderSpeed="None" followerGap="None" followerSecureGap="None" followerSpeed="None" origLeaderGap="None" origLeaderSecureGap="None" origLeaderSpeed="None" latGap="None"/>
    <changeStarted id="v0" type="t0" time="62.80" from="beg_1" to="beg_1" dir="0" speed="13.89" pos="523.34" reason="keepRight|traci" leaderGap="None" leaderSecureGap="None" leaderSpeed="None" followerGap="None" followerSecureGap="None" followerSpeed="None" origLeaderGap="None" origLeaderSecureGap="None" origLeaderSpeed="None" latGap="None" maneuverDistance="0.06"/>
    <changeEnded id="v0" type="t0" time="62.90" from="beg_1" to="beg_1" dir="1" speed="13.89" pos="524.73" reason="keepRight|traci" leaderGap="None" leaderSecureGap="None" leaderSpeed="None" followerGap="None" followerSecureGap="None" followerSpeed="None" origLeaderGap="None" origLeaderSecureGap="None" origLeaderSpeed="None" latGap="None"/>
    <changeStarted id="v0" type="t0" time="62.90" from="beg_1" to="beg_1" dir="0" speed="13.89" pos="524.73" reason="keepRight|traci" leaderGap="None" leaderSecureGap="None" leaderSpeed="None" followerGap="None" followerSecureGap="None" followerSpeed="None" origLeaderGap="None" origLeaderSecureGap="None" origLeaderSpeed="None" latGap="None" maneuverDistance="0.03"/>
    <changeStarted id="v0" type="t0" time="63.00" from="beg_1" to="beg_1" dir="0" speed="13.89" pos="526.12" reason="keepRight|traci" leaderGap="None" leaderSecureGap="None" leaderSpeed="None" followerGap="None" followerSecureGap="None" followerSpeed="None" origLeaderGap="None" origLeaderSecureGap="None" origLeaderSpeed="None" latGap="None" maneuverDistance="0.01"/>
    <changeEnded id="v0" type="t0" time="63.00" from="beg_1" to="beg_1" dir="0" speed="13.89" pos="526.12" reason="keepRight|traci" leaderGap="None" leaderSecureGap="None" leaderSpeed="None" followerGap="None" followerSecureGap="None" followerSpeed="None" origLeaderGap="None" origLeaderSecureGap="None" origLeaderSpeed="None" latGap="None"/>
</lanechanges>
