<?xml version="1.0" encoding="UTF-8"?>
<!-- generated on 2021-03-05 20:58:44.152716 by $Id$ v1_8_0+1508-1a217e5cd8
  options: -r input_routes.rou.xml -t input_turns.xml -o out.rou.xml <doubleminus>write-flows number
-->
<routes xmlns:xsi="http://www.w3.org/2001/XMLSchema-instance" xsi:noNamespaceSchemaLocation="http://sumo.dlr.de/xsd/routes_file.xsd">
<!-- begin="0.0" end="99.0" -->
    <flow id="60" begin="0.00" end="1.00" number="1">
        <route edges="120 120.180.00 -109 -109.80.00 -11 -11.80.00 3 3.180.00 27 27.80.00 45"/>
    </flow>
    <flow id="81" begin="1.04" end="34.39" number="2">
        <route edges="31.80.00 58"/>
    </flow>
    <flow id="91" begin="2.08" end="3.08" number="1">
        <route edges="64.80.00 -64 -64.80.00 -31 -31.80.00 31"/>
    </flow>
    <flow id="0" begin="3.13" end="4.13" number="1">
        <route edges="-109.80.00 -11 -11.80.00 3 3.180.00 27 27.80.00 -27"/>
    </flow>
    <flow id="58" begin="4.17" end="41.68" number="2">
        <route edges="120 120.180.00 -109 -109.80.00 -11 -11.80.00 3 3.180.00 -71 -55 -55.80.00"/>
    </flow>
    <flow id="51" begin="5.21" end="22.93" number="2">
        <route edges="-79.80.00 75 75.121.42"/>
    </flow>
    <flow id="88" begin="6.25" end="7.25" number="1">
        <route edges="58 -37 -37.80.00 -23 -23.80.00 -11 -11.80.00 3 3.180.00"/>
    </flow>
    <flow id="20" begin="7.29" end="94.83" number="3">
        <route edges="-3.180.00 11 11.80.00 23 23.80.00"/>
    </flow>
    <flow id="32" begin="8.34" end="9.34" number="1">
        <route edges="-45.80.00 -27 -27.80.00 -3 -3.180.00 11 11.80.00 23 23.80.00 31 31.80.00 60 60.80.00 92"/>
    </flow>
    <flow id="70" begin="9.38" end="10.38" number="1">
        <route edges="15.180.00 -15 -15.180.00 11 11.80.00 23 23.80.00 31 31.80.00"/>
    </flow>
    <flow id="95" begin="10.42" end="11.42" number="1">
        <route edges="71 71.121.42 -3 -3.180.00 11 11.80.00 109 109.80.00 -120"/>
    </flow>
    <flow id="5" begin="11.46" end="12.46" number="1">
        <route edges="-120 -120.180.00 -64 -64.80.00 -31 -31.80.00 -23 -23.80.00 -11 -11.80.00 3 3.180.00 -71 -55 -55.80.00"/>
    </flow>
    <flow id="24" begin="12.51" end="13.51" number="1">
        <route edges="-37.80.00 -23 -23.80.00 -11 -11.80.00 15 15.180.00"/>
    </flow>
    <flow id="80" begin="13.55" end="72.95" number="2">
        <route edges="31 31.80.00 -31 -31.80.00 -23 -23.80.00 -11 -11.80.00 3 3.180.00 27 27.80.00 -27"/>
    </flow>
    <flow id="40" begin="14.59" end="15.59" number="1">
        <route edges="-64 -64.80.00 64 64.80.00 120 120.180.00 -120 -120.180.00"/>
    </flow>
    <flow id="97" begin="15.63" end="16.63" number="1">
        <route edges="75 75.121.42 120 120.180.00 -109 -109.80.00 23 23.80.00"/>
    </flow>
    <flow id="43" begin="16.67" end="21.88" number="2">
        <route edges="-71 -55 -55.80.00 -27 -27.80.00 -3 -3.180.00 11 11.80.00 23 23.80.00 31 31.80.00 58"/>
    </flow>
    <flow id="16" begin="17.72" end="95.87" number="2">
        <route edges="-152.80.00 -131 -131.180.00 -109 -109.80.00 23 23.80.00 31 31.80.00 64 64.80.00"/>
    </flow>
    <flow id="14" begin="18.76" end="19.76" number="1">
        <route edges="-15 -15.180.00 15 15.180.00"/>
    </flow>
    <flow id="22" begin="19.80" end="20.80" number="1">
        <route edges="-31.80.00 -23 -23.80.00 109 109.80.00 123"/>
    </flow>
    <flow id="46" begin="23.97" end="24.97" number="1">
        <route edges="-75.121.42 -60 -60.80.00 -31 -31.80.00 -23 -23.80.00 23"/>
    </flow>
    <flow id="38" begin="25.01" end="26.01" number="1">
        <route edges="-58.121.42 -31 -31.80.00 -23 -23.80.00 -11 -11.80.00 5"/>
    </flow>
    <flow id="27" begin="26.05" end="27.05" number="1">
        <route edges="-43 -43.80.00 -27 -27.80.00"/>
    </flow>
    <flow id="54" begin="27.09" end="28.09" number="1">
        <route edges="109 109.80.00 -109 -109.80.00 -11 -11.80.00 3 3.180.00 -71 -55 -55.80.00"/>
    </flow>
    <flow id="63" begin="28.14" end="29.14" number="1">
        <route edges="123 123.121.42 -15 -15.180.00 3 3.180.00 27 27.80.00 43 68"/>
    </flow>
    <flow id="47" begin="29.18" end="32.31" number="2">
        <route edges="-79 -79.80.00 -60 -60.80.00 -31 -31.80.00 -23 -23.80.00 -11 -11.80.00 3 3.180.00 -3 -3.180.00"/>
    </flow>
    <flow id="77" begin="30.22" end="85.45" number="2">
        <route edges="3 3.180.00 -3 -3.180.00 11 11.80.00 23 23.80.00 31 31.80.00 64 64.80.00"/>
    </flow>
    <flow id="79" begin="31.26" end="32.26" number="1">
        <route edges="3.180.00 27 27.80.00 55 71"/>
    </flow>
    <flow id="12" begin="33.35" end="34.35" number="1">
        <route edges="-148 -148.80.00 -131 -131.180.00 -109 -109.80.00 23 23.80.00 37 -58 -58.121.42"/>
    </flow>
    <flow id="83" begin="35.43" end="48.98" number="2">
        <route edges="37 -58 -58.121.42 -31 -31.80.00 -23 -23.80.00 109 109.80.00 131 131.180.00 -131 -131.180.00"/>
    </flow>
    <flow id="28" begin="36.47" end="52.11" number="2">
        <route edges="-43 -43.80.00 -27 -27.80.00 -3 -3.180.00 11 11.80.00 109 109.80.00"/>
    </flow>
    <flow id="11" begin="37.52" end="38.52" number="1">
        <route edges="-144.121.42 144 144.121.42 -15 -15.180.00 5"/>
    </flow>
    <flow id="87" begin="38.56" end="67.74" number="2">
        <route edges="58 -37 -37.80.00 -23"/>
    </flow>
    <flow id="45" begin="39.60" end="40.60" number="1">
        <route edges="-75 -75.121.42 -60 -60.80.00 -31 -31.80.00 -23 -23.80.00 -11 -11.80.00 3 3.180.00 -71"/>
    </flow>
    <flow id="72" begin="40.64" end="92.75" number="2">
        <route edges="23.80.00 31 31.80.00 60 60.80.00 75 75.121.42"/>
    </flow>
    <flow id="71" begin="42.73" end="43.73" number="1">
        <route edges="23 23.80.00 -23 -23.80.00 109"/>
    </flow>
    <flow id="35" begin="43.77" end="64.61" number="2">
        <route edges="-55 -55.80.00 -27 -27.80.00 -3 -3.180.00 15 15.180.00"/>
    </flow>
    <flow id="65" begin="44.81" end="45.81" number="1">
        <route edges="144 144.121.42 -123 -123.121.42 -120 -120.180.00 -64 -64.80.00 58"/>
    </flow>
    <flow id="29" begin="45.85" end="46.85" number="1">
        <route edges="-43.80.00 -27 -27.80.00 -3 -3.180.00 15 15.180.00 -144 -144.121.42 152"/>
    </flow>
    <flow id="52" begin="46.89" end="47.89" number="1">
        <route edges="-79.80.00 75 75.121.42 120 120.180.00 131 131.180.00 144 144.121.42"/>
    </flow>
    <flow id="25" begin="47.94" end="48.94" number="1">
        <route edges="-37.80.00 -23 -23.80.00 109 109.80.00 -109"/>
    </flow>
    <flow id="75" begin="50.02" end="91.71" number="2">
        <route edges="27 27.80.00 -27 -27.80.00 -3 -3.180.00 11 11.80.00 23 23.80.00 37 -58 -58.121.42"/>
    </flow>
    <flow id="94" begin="51.06" end="88.58" number="2">
        <route edges="68 -45 -45.80.00 -27 -27.80.00 -71 -55"/>
    </flow>
    <flow id="64" begin="53.15" end="54.15" number="1">
        <route edges="131 131.180.00 144 144.121.42 -15 -15.180.00 3 3.180.00 27 27.80.00 55 71"/>
    </flow>
    <flow id="93" begin="54.19" end="55.19" number="1">
        <route edges="68 -45 -45.80.00 -27 -27.80.00 -3 -3.180.00 11 11.80.00 -11"/>
    </flow>
    <flow id="18" begin="55.23" end="56.23" number="1">
        <route edges="-27 -27.80.00 -3 -3.180.00 15 15.180.00 -144 -144.121.42 144 144.121.42"/>
    </flow>
    <flow id="4" begin="56.27" end="57.27" number="1">
        <route edges="-11.80.00 3 3.180.00 27 27.80.00 55 71"/>
    </flow>
    <flow id="66" begin="57.32" end="58.32" number="1">
        <route edges="144 144.121.42 -15 -15.180.00 3 3.180.00 27 27.80.00"/>
    </flow>
    <flow id="48" begin="58.36" end="59.36" number="1">
        <route edges="-79 -79.80.00 -60 -60.80.00 64 64.80.00"/>
    </flow>
    <flow id="74" begin="59.40" end="60.40" number="1">
        <route edges="27 27.80.00 -27 -27.80.00 -3 -3.180.00 11 11.80.00 23 23.80.00 31 31.80.00 64 64.80.00 -75"/>
    </flow>
    <flow id="10" begin="60.44" end="61.44" number="1">
        <route edges="-144 -144.121.42 152"/>
    </flow>
    <flow id="39" begin="61.48" end="62.48" number="1">
        <route edges="-60 -60.80.00 -31 -31.80.00 -23 -23.80.00 -11 -11.80.00 3 3.180.00 27 27.80.00 43 68 -45 -45.80.00"/>
    </flow>
    <flow id="85" begin="62.53" end="63.53" number="1">
        <route edges="45 -68 -43 -43.80.00 -27 -27.80.00 -3 -3.180.00 11 11.80.00 109 109.80.00 123 123.121.42"/>
    </flow>
    <flow id="68" begin="63.57" end="64.57" number="1">
        <route edges="15 15.180.00 -123 -123.121.42 -109 -109.80.00 -11"/>
    </flow>
    <flow id="36" begin="65.65" end="66.65" number="1">
        <route edges="-55 -55.80.00 -27 -27.80.00 -3 -3.180.00 15 15.180.00 -144 -144.121.42 -131"/>
    </flow>
    <flow id="37" begin="66.69" end="67.69" number="1">
        <route edges="-58 -58.121.42 64 64.80.00 120 120.180.00"/>
    </flow>
    <flow id="61" begin="68.78" end="69.78" number="1">
        <route edges="120 120.180.00 -120 -120.180.00 -75 -75.121.42 -60"/>
    </flow>
    <flow id="90" begin="69.82" end="70.82" number="1">
        <route edges="60.80.00 75 75.121.42 -75"/>
    </flow>
    <flow id="62" begin="70.86" end="71.86" number="1">
        <route edges="123 123.121.42 -123"/>
    </flow>
    <flow id="26" begin="71.91" end="72.91" number="1">
        <route edges="-37.80.00 -23 -23.80.00 109 109.80.00 131"/>
    </flow>
    <flow id="31" begin="73.99" end="74.99" number="1">
        <route edges="-43.80.00 -27 -27.80.00 27 27.80.00"/>
    </flow>
    <flow id="15" begin="75.03" end="76.03" number="1">
        <route edges="-15.180.00 11 11.80.00 23 23.80.00 31 31.80.00 64 64.80.00 120"/>
    </flow>
    <flow id="21" begin="76.07" end="77.07" number="1">
        <route edges="-3.180.00 3 3.180.00 -3"/>
    </flow>
    <flow id="41" begin="77.12" end="78.12" number="1">
        <route edges="-64 -64.80.00 64 64.80.00 120 120.180.00 123 123.121.42"/>
    </flow>
    <flow id="13" begin="78.16" end="79.16" number="1">
        <route edges="-148 -148.80.00 144 144.121.42 -15 -15.180.00 3 3.180.00 -3"/>
    </flow>
    <flow id="55" begin="79.20" end="80.20" number="1">
        <route edges="109 109.80.00 -109 -109.80.00 -11 -11.80.00 3 3.180.00 27 27.80.00 43 68 -45"/>
    </flow>
    <flow id="92" begin="80.24" end="81.24" number="1">
        <route edges="64.80.00 120 120.180.00 131 131.180.00 -131"/>
    </flow>
    <flow id="6" begin="81.28" end="82.28" number="1">
        <route edges="-123 -123.121.42 131 131.180.00"/>
    </flow>
    <flow id="67" begin="82.33" end="83.33" number="1">
        <route edges="144.121.42 -123 -123.121.42 -120 -120.180.00 -64 -64.80.00 58"/>
    </flow>
    <flow id="19" begin="83.37" end="84.37" number="1">
        <route edges="-27.80.00 27 27.80.00 45 -68 -43 -43.80.00"/>
    </flow>
    <flow id="69" begin="84.41" end="85.41" number="1">
        <route edges="15 15.180.00 -123 -123.121.42 -120 -120.180.00 -75 -75.121.42 75"/>
    </flow>
    <flow id="57" begin="86.49" end="87.54" number="2">
        <route edges="11.80.00 23 23.80.00 31"/>
    </flow>
    <flow id="1" begin="89.62" end="90.62" number="1">
        <route edges="-109.80.00 -11 -11.80.00 3 3.180.00 27 27.80.00 -27 -27.80.00"/>
    </flow>
    <flow id="89" begin="90.66" end="91.66" number="1">
        <route edges="60.80.00 -60 -60.80.00 -31 -31.80.00 -23 -23.80.00 -11 -11.80.00 5"/>
    </flow>
    <flow id="7" begin="93.79" end="94.79" number="1">
        <route edges="-123.121.42 131"/>
    </flow>
    <flow id="9" begin="96.92" end="97.92" number="1">
        <route edges="-144 -144.121.42 -131 -131.180.00 131 131.180.00"/>
    </flow>
    <flow id="3" begin="97.96" end="98.96" number="1">
        <route edges="-11 -11.80.00 15 15.180.00 -123 -123.121.42 -120 -120.180.00"/>
    </flow>
</routes>
