<trips>
	<trip depart="0" from="beg" to="beg"/>
</trips>
