<?xml version="1.0" encoding="UTF-8"?>

<!-- generated on Fri 09 Aug 2013 01:39:31 PM CEST by Netedit Version dev-SVN-r14367
<?xml version="1.0" encoding="UTF-8"?>

<configuration xmlns:xsi="http://www.w3.org/2001/XMLSchema-instance" xsi:noNamespaceSchemaLocation="http://sumo.sf.net/xsd/netedit.exeConfiguration.xsd">

    <output>
        <output-file value="net.net.xml"/>
    </output>

    <processing>
        <no-internal-links value="true"/>
        <no-turnarounds value="true"/>
        <offset.disable-normalization value="true"/>
    </processing>

</configuration>
-->

<net version="0.13" xmlns:xsi="http://www.w3.org/2001/XMLSchema-instance" xsi:noNamespaceSchemaLocation="http://sumo.sf.net/xsd/net_file.xsd">

    <location netOffset="0.00,0.00" convBoundary="10000000000.00,10000000000.00,-10000000000.00,-10000000000.00" origBoundary="10000000000.00,10000000000.00,-10000000000.00,-10000000000.00" projParameter="!"/>

    <edge id="beg" from="gneJ4" to="gneJ0" priority="1">
        <lane id="beg_0" index="0" speed="1.00" length="7.00" shape="-7.00,-1.65 0.00,-1.65"/>
    </edge>
    <edge id="end" from="gneJ1" to="gneJ3" priority="1">
        <lane id="end_0" index="0" speed="13.89" length="100.00" shape="200.00,-1.65 300.00,-1.65"/>
    </edge>
    <edge id="middle" from="gneJ0" to="gneJ1" priority="1">
        <lane id="middle_0" index="0" speed="13.89" length="200.00" shape="0.00,-1.65 200.00,-1.65"/>
    </edge>

    <junction id="gneJ0" type="unregulated" x="0.00" y="0.00" incLanes="beg_0" intLanes="" shape="0.00,-0.05 0.00,-3.25 0.00,-0.05"/>
    <junction id="gneJ1" type="priority" x="200.00" y="0.00" incLanes="middle_0" intLanes="" shape="200.00,-0.05 200.00,-3.25 200.00,-0.05">
        <request index="0" response="0" foes="0"/>
    </junction>
    <junction id="gneJ3" type="unregulated" x="300.00" y="0.00" incLanes="end_0" intLanes="" shape="300.00,-3.25 300.00,-0.05"/>
    <junction id="gneJ4" type="unregulated" x="-7.00" y="0.00" incLanes="" intLanes="" shape="-7.00,-0.05 -7.00,-3.25"/>

    <connection from="beg" to="middle" fromLane="0" toLane="0" dir="s" state="M"/>
    <connection from="middle" to="end" fromLane="0" toLane="0" dir="s" state="M"/>

</net>
