<?xml version="1.0" encoding="UTF-8"?>

<!-- generated on 2025-03-05 10:16:30.476811 by cutRoutes.py v1_22_0+0650-d108669826e
<configuration>
    <pt-input value="input_routes.rou.xml"/>
    <pt-output value="out.rou.xml"/>
    <routes-output value="trips.trips.xml"/>
    <stops-output value="out.xml"/>
    <additional-input value="input_additional.add.xml"/>
    <orig-net value="net.net.xml"/>
    <network value="input_net.net.xml"/>
    <routeFiles value="input_routes2.rou.xml"/>
</configuration>
-->

<routes xmlns:xsi="http://www.w3.org/2001/XMLSchema-instance" xsi:noNamespaceSchemaLocation="http://sumo.dlr.de/xsd/routes_file.xsd">
    <person id="walk_ride" depart="0.00">
        <ride from="161159325#0" busStop="4032629820" lines="140:0"/>
    </person>
    <person id="ride_walk" depart="0.00">
        <ride from="53356539#0" lines="140:1" to="4710636#2"/>
    </person>
    <person id="ride_off_nofrom" depart="0.00">
        <ride lines="140:1" to="4710636#2" from="53356539#0"/>
    </person>
</routes>
