<?xml version="1.0" encoding="UTF-8"?>

<!-- generated on 2022-07-07 10:55:31.105872 by randomTrips.py v1_13_0+1343-240e5d48340
<configuration>
    <end value="10"/>
    <net-file value="net.net.xml"/>
    <random-arrivalpos value="True"/>
    <random-departpos value="True"/>
</configuration>
-->

<routes xmlns:xsi="http://www.w3.org/2001/XMLSchema-instance" xsi:noNamespaceSchemaLocation="http://sumo.dlr.de/xsd/routes_file.xsd">
    <trip id="0" depart="0.00" from="3si" to="1o" departPos="65.22" arrivalPos="109.07"/>
    <trip id="1" depart="1.00" from="3si" to="3si" departPos="211.58" arrivalPos="20.62"/>
    <trip id="2" depart="2.00" from="2si" to="1o" departPos="51.85" arrivalPos="246.94"/>
    <trip id="3" depart="3.00" from="1fi" to="1si" departPos="161.50" arrivalPos="129.23"/>
    <trip id="4" depart="4.00" from="1si" to="3o" departPos="191.96" arrivalPos="3.18"/>
    <trip id="5" depart="5.00" from="4fi" to="3si" departPos="84.55" arrivalPos="36.87"/>
    <trip id="6" depart="6.00" from="4si" to="2o" departPos="21.99" arrivalPos="47.26"/>
    <trip id="7" depart="7.00" from="4fi" to="3o" departPos="200.57" arrivalPos="356.58"/>
    <trip id="8" depart="8.00" from="3fi" to="4si" departPos="94.07" arrivalPos="130.92"/>
    <trip id="9" depart="9.00" from="4fi" to="3o" departPos="214.13" arrivalPos="282.12"/>
</routes>
