<?xml version="1.0"?>

<!-- generated on 07/11/08 09:32:24 by SUMO duarouter Version 0.9.7
<configuration>

   <input>
      <net-file>input_net.net.xml</net-file>
      <flow-definition>input_flows.flows.xml</flow-definition>
   </input>

   <output>
      <output-file>routes.rou.xml</output-file>
   </output>

</configuration>
-->

<route-alternatives>
   <vehicle id="0_0" depart="0">
      <routealt last="0">
         <route cost="124.88" probability="1.00">beg middle end rend</route>
      </routealt>
   </vehicle>
   <vehicle id="0_1" depart="10">
      <routealt last="0">
         <route cost="124.88" probability="1.00">beg middle end rend</route>
      </routealt>
   </vehicle>
   <vehicle id="0_2" depart="20">
      <routealt last="0">
         <route cost="124.88" probability="1.00">beg middle end rend</route>
      </routealt>
   </vehicle>
   <vehicle id="0_3" depart="30">
      <routealt last="0">
         <route cost="124.88" probability="1.00">beg middle end rend</route>
      </routealt>
   </vehicle>
   <vehicle id="0_4" depart="40">
      <routealt last="0">
         <route cost="124.88" probability="1.00">beg middle end rend</route>
      </routealt>
   </vehicle>
   <vehicle id="0_5" depart="50">
      <routealt last="0">
         <route cost="124.88" probability="1.00">beg middle end rend</route>
      </routealt>
   </vehicle>
   <vehicle id="0_6" depart="60">
      <routealt last="0">
         <route cost="124.88" probability="1.00">beg middle end rend</route>
      </routealt>
   </vehicle>
   <vehicle id="0_7" depart="70">
      <routealt last="0">
         <route cost="124.88" probability="1.00">beg middle end rend</route>
      </routealt>
   </vehicle>
   <vehicle id="0_8" depart="80">
      <routealt last="0">
         <route cost="124.88" probability="1.00">beg middle end rend</route>
      </routealt>
   </vehicle>
   <vehicle id="0_9" depart="90">
      <routealt last="0">
         <route cost="124.88" probability="1.00">beg middle end rend</route>
      </routealt>
   </vehicle>
</route-alternatives>
