<?xml version="1.0" encoding="UTF-8"?>

<!-- generated on 2025-03-29 13:13:30 by Eclipse SUMO netedit Version v1_22_0+1138-59136279702
-->

<routes xmlns:xsi="http://www.w3.org/2001/XMLSchema-instance" xsi:noNamespaceSchemaLocation="http://sumo.dlr.de/xsd/routes_file.xsd">
    <vehicle id="v_0" type="train"      depart="0.00" route="r_main" departPos="15000"/>

    <vehicle id="v_2" type="train_slow" depart="0.00" route="r_main" departEdge="1">
        <param key="overtakingReroute.prio" value="3"/>
    </vehicle>
</routes>
