<?xml version="1.0" encoding="UTF-8"?>

<!-- generated on 2023-03-10 18:01:22 by Eclipse SUMO netconvert Version v1_16_0+1097-3a874ee0d52
<configuration xmlns:xsi="http://www.w3.org/2001/XMLSchema-instance" xsi:noNamespaceSchemaLocation="http://sumo.dlr.de/xsd/netconvertConfiguration.xsd">

    <input>
        <sumo-net-file value="input_net.net.xml"/>
        <node-files value="net.nod.xml"/>
        <edge-files value="net.edg.xml"/>
    </input>

    <output>
        <output-file value="net.net.xml"/>
        <output.street-names value="true"/>
    </output>

    <processing>
        <geometry.min-radius.fix.railways value="false"/>
        <geometry.max-grade.fix value="false"/>
        <offset.disable-normalization value="true"/>
        <lefthand value="0"/>
    </processing>

    <junctions>
        <no-internal-links value="true"/>
        <no-turnarounds value="true"/>
        <junctions.corner-detail value="5"/>
        <junctions.limit-turn-speed value="5.50"/>
        <rectangular-lane-cut value="0"/>
    </junctions>

    <pedestrian>
        <walkingareas value="0"/>
    </pedestrian>

</configuration>
-->

<net version="1.16" junctionCornerDetail="5" limitTurnSpeed="5.50" xmlns:xsi="http://www.w3.org/2001/XMLSchema-instance" xsi:noNamespaceSchemaLocation="http://sumo.dlr.de/xsd/net_file.xsd">

    <location netOffset="-403040.31,-5788711.14" convBoundary="3221.27,9.89,3857.90,18116.70" origBoundary="13.574416,52.240912,13.691479,52.413950" projParameter="+proj=utm +zone=33 +ellps=WGS84 +datum=WGS84 +units=m +no_defs"/>

    <type id="aerialway.cable_car" priority="24" numLanes="1" speed="13.89" allow="rail_urban" oneway="0"/>
    <type id="aerialway.gondola" priority="23" numLanes="1" speed="13.89" allow="rail_urban" oneway="0"/>
    <type id="highway.bridleway" priority="1" numLanes="1" speed="2.78" allow="pedestrian" oneway="1" width="2.00"/>
    <type id="highway.bus_guideway" priority="1" numLanes="1" speed="27.78" allow="bus" oneway="1"/>
    <type id="highway.cycleway" priority="1" numLanes="1" speed="5.56" allow="bicycle" oneway="0" width="1.00"/>
    <type id="highway.footway" priority="1" numLanes="1" speed="2.78" allow="pedestrian" oneway="1" width="2.00"/>
    <type id="highway.ford" priority="1" numLanes="1" speed="2.78" allow="army" oneway="0"/>
    <type id="highway.living_street" priority="2" numLanes="1" speed="2.78" disallow="tram rail_urban rail rail_electric rail_fast ship" oneway="0"/>
    <type id="highway.motorway" priority="14" numLanes="2" speed="39.44" allow="private emergency authority army vip passenger hov taxi bus coach delivery truck trailer motorcycle evehicle custom1 custom2" oneway="1"/>
    <type id="highway.motorway_link" priority="9" numLanes="1" speed="22.22" allow="private emergency authority army vip passenger hov taxi bus coach delivery truck trailer motorcycle evehicle custom1 custom2" oneway="1"/>
    <type id="highway.path" priority="1" numLanes="1" speed="5.56" allow="pedestrian bicycle" oneway="0" width="2.00"/>
    <type id="highway.pedestrian" priority="1" numLanes="1" speed="2.78" allow="pedestrian" oneway="1" width="2.00"/>
    <type id="highway.primary" priority="12" numLanes="2" speed="27.78" disallow="tram rail_urban rail rail_electric rail_fast ship" oneway="0"/>
    <type id="highway.primary_link" priority="7" numLanes="1" speed="22.22" disallow="tram rail_urban rail rail_electric rail_fast ship" oneway="0"/>
    <type id="highway.raceway" priority="15" numLanes="2" speed="83.33" allow="vip" oneway="0"/>
    <type id="highway.residential" priority="3" numLanes="1" speed="13.89" disallow="tram rail_urban rail rail_electric rail_fast ship" oneway="0"/>
    <type id="highway.secondary" priority="11" numLanes="1" speed="27.78" disallow="tram rail_urban rail rail_electric rail_fast ship" oneway="0"/>
    <type id="highway.secondary_link" priority="6" numLanes="1" speed="22.22" disallow="tram rail_urban rail rail_electric rail_fast ship" oneway="0"/>
    <type id="highway.service" priority="1" numLanes="1" speed="5.56" allow="pedestrian delivery bicycle" oneway="0"/>
    <type id="highway.stairs" priority="1" numLanes="1" speed="1.39" allow="pedestrian" oneway="1" width="2.00"/>
    <type id="highway.step" priority="1" numLanes="1" speed="1.39" allow="pedestrian" oneway="1" width="2.00"/>
    <type id="highway.steps" priority="1" numLanes="1" speed="1.39" allow="pedestrian" oneway="1" width="2.00"/>
    <type id="highway.tertiary" priority="10" numLanes="1" speed="22.22" disallow="tram rail_urban rail rail_electric rail_fast ship" oneway="0"/>
    <type id="highway.tertiary_link" priority="5" numLanes="1" speed="22.22" disallow="tram rail_urban rail rail_electric rail_fast ship" oneway="0"/>
    <type id="highway.track" priority="1" numLanes="1" speed="5.56" allow="pedestrian motorcycle moped bicycle" oneway="0"/>
    <type id="highway.trunk" priority="13" numLanes="2" speed="27.78" disallow="pedestrian bicycle tram rail_urban rail rail_electric rail_fast ship" oneway="0"/>
    <type id="highway.trunk_link" priority="8" numLanes="1" speed="22.22" disallow="pedestrian bicycle tram rail_urban rail rail_electric rail_fast ship" oneway="0"/>
    <type id="highway.unclassified" priority="4" numLanes="1" speed="13.89" disallow="tram rail_urban rail rail_electric rail_fast ship" oneway="0"/>
    <type id="highway.unsurfaced" priority="1" numLanes="1" speed="8.33" disallow="tram rail_urban rail rail_electric rail_fast ship" oneway="0"/>
    <type id="railway.highspeed" priority="21" numLanes="1" speed="69.44" allow="rail_fast" oneway="1"/>
    <type id="railway.light_rail" priority="19" numLanes="1" speed="27.78" allow="rail_urban" oneway="1"/>
    <type id="railway.monorail" priority="22" numLanes="1" speed="27.78" allow="rail_urban" oneway="1"/>
    <type id="railway.preserved" priority="16" numLanes="1" speed="27.78" allow="rail" oneway="1"/>
    <type id="railway.rail" priority="20" numLanes="1" speed="44.44" allow="rail" oneway="1"/>
    <type id="railway.subway" priority="18" numLanes="1" speed="27.78" allow="rail_urban" oneway="1"/>
    <type id="railway.tram" priority="17" numLanes="1" speed="13.89" allow="tram" oneway="1"/>

    <edge id="-121902849" from="42145788" to="374388207" name="6142" priority="20" type="railway.rail" spreadType="center" length="85.51" bidi="33142249">
        <lane id="-121902849_0" index="0" allow="rail rail_electric rail_fast" speed="27.78" length="85.51" shape="3255.72,6565.45 3370.30,6480.42">
            <param key="origId" value="121902849 8602141 33142249"/>
        </lane>
    </edge>
    <edge id="-124449286#0" from="1363480435" to="4395255491" priority="20" type="railway.rail" spreadType="center" length="270.18" shape="3549.08,6317.92 3590.32,6381.46 3590.57,6394.13 3591.13,6423.04 3591.24,6428.76 3591.60,6447.33 3592.13,6474.77 3593.49,6544.55 3593.90,6565.95" bidi="441828377">
        <lane id="-124449286#0_0" index="0" allow="rail rail_electric rail_fast" speed="44.44" length="270.18" shape="3550.15,6319.56 3590.32,6381.46 3590.57,6394.13 3591.13,6423.04 3591.24,6428.76 3591.60,6447.33 3592.13,6474.77 3593.49,6544.55 3593.90,6565.95">
            <param key="origId" value="124449286 742458425 742458426 441828378 441828377"/>
        </lane>
    </edge>
    <edge id="-124449286#2" from="428994711" to="1363480434" priority="20" type="railway.rail" spreadType="center" length="8.44" bidi="124449286#2">
        <lane id="-124449286#2_0" index="0" allow="rail rail_electric rail_fast" speed="44.44" length="8.44" shape="3468.09,6267.41 3468.17,6271.61">
            <param key="origId" value="124449286"/>
        </lane>
    </edge>
    <edge id="-153134060#0" from="10707784192" to="296021288" name="6007" priority="19" type="railway.light_rail" spreadType="center" length="412.89" bidi="153134060#0">
        <lane id="-153134060#0_0" index="0" allow="rail_urban" speed="22.22" length="412.89" shape="3704.46,11235.96 3711.92,11620.44">
            <param key="origId" value="153134060"/>
        </lane>
    </edge>
    <edge id="-153134060#1" from="296020389" to="10707784192" name="6007" priority="19" type="railway.light_rail" spreadType="center" length="33.49" bidi="153134060#1">
        <lane id="-153134060#1_0" index="0" allow="rail_urban" speed="22.22" length="33.49" shape="3703.86,11204.84 3704.46,11235.96">
            <param key="origId" value="153134060"/>
        </lane>
    </edge>
    <edge id="-153134060#2" from="10707835705" to="296020389" name="6007" priority="19" type="railway.light_rail" spreadType="center" length="760.71" shape="3690.13,10496.95 3696.73,10837.22 3696.76,10838.62 3703.86,11204.84" bidi="153134060#2">
        <lane id="-153134060#2_0" index="0" allow="rail_urban" speed="22.22" length="760.71" shape="3690.13,10496.95 3696.73,10837.22 3696.76,10838.62 3703.86,11204.84">
            <param key="origId" value="153134060"/>
        </lane>
    </edge>
    <edge id="-153134060#3" from="10707835708" to="10707835705" name="6007" priority="19" type="railway.light_rail" spreadType="center" length="535.10" bidi="153134060#3">
        <lane id="-153134060#3_0" index="0" allow="rail_urban" speed="22.22" length="535.10" shape="3679.98,9973.22 3690.13,10496.95">
            <param key="origId" value="153134060"/>
        </lane>
    </edge>
    <edge id="-153134060#4" from="10707835717" to="10707835708" name="6007" priority="19" type="railway.light_rail" spreadType="center" length="791.57" shape="3664.96,9198.96 3665.90,9247.41 3666.00,9252.48 3666.10,9257.56 3666.64,9285.59 3670.73,9496.13 3673.35,9631.59 3679.98,9973.22" bidi="153134060#4">
        <lane id="-153134060#4_0" index="0" allow="rail_urban" speed="22.22" length="791.57" shape="3664.96,9198.96 3665.90,9247.41 3666.00,9252.48 3666.10,9257.56 3666.64,9285.59 3670.73,9496.13 3673.35,9631.59 3679.98,9973.22">
            <param key="origId" value="153134060"/>
        </lane>
    </edge>
    <edge id="-153134060#5" from="418008014" to="10707835717" name="6007" priority="19" type="railway.light_rail" spreadType="center" length="177.48" shape="3341.68,9032.99 3662.15,9054.11 3663.16,9105.94 3664.96,9198.96" bidi="153134060#5">
        <lane id="-153134060#5_0" index="0" allow="rail_urban" speed="22.22" length="177.48" shape="3344.64,9033.19 3662.15,9054.11 3663.16,9105.94 3664.96,9198.96">
            <param key="origId" value="153134060"/>
        </lane>
    </edge>
    <edge id="-176623658#0" from="4395205108" to="4360022513" name="6520" priority="20" type="railway.rail" spreadType="center" length="3110.07" shape="3629.05,6315.39 3610.32,6381.08 3610.57,6393.74 3611.13,6422.66 3611.24,6428.37 3611.60,6446.94 3612.13,6474.38 3613.48,6544.16 3613.79,6559.86 3613.87,6564.11 3613.90,6565.57 3614.66,6605.04 3615.73,6659.89 3616.36,6692.34 3616.48,6698.86 3616.77,6713.49 3617.21,6736.36 3617.26,6739.02 3617.57,6754.98 3617.80,6766.76 3618.11,6782.60 3618.39,6797.17 3618.51,6803.60 3618.90,6823.66 3618.97,6827.12 3619.39,6848.63 3620.97,6930.41 3621.78,6971.82 3621.78,6972.05 3621.87,6976.84 3622.12,6989.62 3622.21,6994.03 3622.60,7014.24" bidi="-8044249">
        <lane id="-176623658#0_0" index="0" allow="rail" speed="22.22" length="3110.07" shape="3626.12,6325.67 3610.32,6381.08 3610.57,6393.74 3611.13,6422.66 3611.24,6428.37 3611.60,6446.94 3612.13,6474.38 3613.48,6544.16 3613.79,6559.86 3613.87,6564.11 3613.90,6565.57 3614.66,6605.04 3615.73,6659.89 3616.36,6692.34 3616.48,6698.86 3616.77,6713.49 3617.21,6736.36 3617.26,6739.02 3617.57,6754.98 3617.80,6766.76 3618.11,6782.60 3618.39,6797.17 3618.51,6803.60 3618.90,6823.66 3618.97,6827.12 3619.39,6848.63 3620.97,6930.41 3621.78,6971.82 3621.78,6972.05 3621.87,6976.84 3622.12,6989.62 3622.21,6994.03 3622.51,7009.73">
            <param key="origId" value="176623658 5650950 10414934 8044249"/>
        </lane>
    </edge>
    <edge id="-176623658#1" from="4359951274" to="4395205108" name="6520" priority="20" type="railway.rail" spreadType="center" length="394.40" shape="3631.59,6446.55 3631.12,6422.27 3630.56,6393.35 3630.32,6380.69 3629.05,6315.39" bidi="176623658#1">
        <lane id="-176623658#1_0" index="0" allow="rail" speed="22.22" length="394.40" shape="3631.59,6446.55 3631.12,6422.27 3630.56,6393.35 3630.32,6380.69 3629.26,6326.08">
            <param key="origId" value="176623658"/>
        </lane>
    </edge>
    <edge id="-23369315" from="293605248" to="1363480438" name="6007" priority="19" type="railway.light_rail" spreadType="center" length="141.49" shape="3411.16,6426.53 3411.63,6450.82 3412.17,6478.26 3313.93,6569.93" bidi="294730185">
        <lane id="-23369315_0" index="0" allow="rail_urban" speed="22.22" length="141.49" shape="3411.28,6432.49 3411.63,6450.82 3412.17,6478.26 3315.55,6568.42">
            <param key="origId" value="23369315 23369316 294730185"/>
        </lane>
    </edge>
    <edge id="-254025498" from="2598612721" to="295049179" priority="20" type="railway.rail" spreadType="center" length="134.72" shape="3351.00,5387.14 3370.58,5365.49 3368.39,5252.13" bidi="254025498">
        <lane id="-254025498_0" index="0" allow="rail rail_electric rail_fast" speed="27.78" length="134.72" shape="3354.71,5383.03 3370.58,5365.49 3368.60,5262.97">
            <param key="origId" value="254025498"/>
        </lane>
    </edge>
    <edge id="-254033615#0" from="295049177" to="295049179" name="6142" priority="20" type="railway.rail" spreadType="center" length="113.39" bidi="254033615#0">
        <lane id="-254033615#0_0" index="0" allow="rail rail_electric rail_fast" speed="44.44" length="113.39" shape="3409.94,5363.00 3372.19,5262.28">
            <param key="origId" value="254033615"/>
        </lane>
    </edge>
    <edge id="-255228345#0" from="10707835741" to="428356234" name="6007" priority="19" type="railway.light_rail" spreadType="center" length="433.23" shape="3302.89,8063.78 3304.69,8156.55 3306.09,8229.25 3311.17,8491.11" bidi="255228345#0">
        <lane id="-255228345#0_0" index="0" allow="rail_urban" speed="22.22" length="433.23" shape="3302.89,8063.78 3304.69,8156.55 3306.09,8229.25 3311.14,8489.50">
            <param key="origId" value="255228345"/>
        </lane>
    </edge>
    <edge id="-255228346#0" from="10707835725" to="418008014" priority="19" type="railway.light_rail" spreadType="center" length="239.32" shape="3317.21,8802.56 3321.25,9010.95 3341.68,9032.99" bidi="255228346#0">
        <lane id="-255228346#0_0" index="0" allow="rail_urban" speed="27.78" length="239.32" shape="3317.21,8802.56 3321.25,9010.95 3337.81,9028.81">
            <param key="origId" value="255228346"/>
        </lane>
        <param key="railway:track_ref" value="3"/>
    </edge>
    <edge id="-255228346#1" from="10707835734" to="10707835725" priority="19" type="railway.light_rail" spreadType="center" length="167.30" shape="3314.07,8640.61 3315.83,8731.42 3316.11,8745.55 3316.19,8749.78 3317.21,8802.56" bidi="255228346#1">
        <lane id="-255228346#1_0" index="0" allow="rail_urban" speed="27.78" length="167.30" shape="3314.07,8640.61 3315.83,8731.42 3316.11,8745.55 3316.19,8749.78 3317.21,8802.56">
            <param key="origId" value="255228346"/>
        </lane>
        <param key="railway:track_ref" value="3"/>
    </edge>
    <edge id="-255228346#2" from="428356234" to="10707835734" priority="19" type="railway.light_rail" spreadType="center" length="153.76" bidi="255228346#2">
        <lane id="-255228346#2_0" index="0" allow="rail_urban" speed="27.78" length="153.76" shape="3311.66,8516.21 3314.07,8640.61">
            <param key="origId" value="255228346"/>
        </lane>
        <param key="railway:track_ref" value="3"/>
    </edge>
    <edge id="-255228348#0" from="428356234" to="10707835735" name="6007" priority="19" type="railway.light_rail" spreadType="center" length="153.51" bidi="255228348#0">
        <lane id="-255228348#0_0" index="0" allow="rail_urban" speed="22.22" length="153.51" shape="3315.04,8515.92 3334.00,8637.48">
            <param key="origId" value="255228348"/>
        </lane>
        <param key="railway:track_ref" value="4"/>
    </edge>
    <edge id="-255228348#1" from="10707835735" to="10707835726" name="6007" priority="19" type="railway.light_rail" spreadType="center" length="167.93" shape="3334.02,8637.59 3335.83,8731.04 3336.10,8745.17 3336.19,8749.39 3337.16,8799.84" bidi="255228348#1">
        <lane id="-255228348#1_0" index="0" allow="rail_urban" speed="22.22" length="167.93" shape="3334.02,8637.70 3335.83,8731.04 3336.10,8745.17 3336.19,8749.39 3337.16,8799.84">
            <param key="origId" value="255228348"/>
        </lane>
        <param key="railway:track_ref" value="4"/>
    </edge>
    <edge id="-255228348#2" from="10707835726" to="418008014" name="6007" priority="19" type="railway.light_rail" spreadType="center" length="239.06" shape="3337.16,8799.84 3341.25,9010.57 3341.68,9032.99" bidi="255228348#2">
        <lane id="-255228348#2_0" index="0" allow="rail_urban" speed="22.22" length="239.06" shape="3337.16,8799.84 3341.25,9010.57 3341.57,9027.29">
            <param key="origId" value="255228348"/>
        </lane>
        <param key="railway:track_ref" value="4"/>
    </edge>
    <edge id="-26926962" from="295049993" to="295049529" priority="20" type="railway.rail" spreadType="center" length="990.20" shape="3433.21,4468.55 3440.79,4859.42 3440.80,4859.98 3440.97,4868.78 3443.65,5007.31 3446.32,5144.70 3447.62,5211.93 3448.37,5250.58 3450.57,5363.94 3450.98,5385.20 3452.32,5454.10" bidi="121902859">
        <lane id="-26926962_0" index="0" allow="rail" speed="44.44" length="990.20" shape="3433.21,4468.55 3440.79,4859.42 3440.80,4859.98 3440.97,4868.78 3443.65,5007.31 3446.32,5144.70 3447.62,5211.93 3448.37,5250.58 3450.57,5363.94 3450.98,5385.20 3452.27,5451.65">
            <param key="origId" value="26926962 121902859"/>
        </lane>
    </edge>
    <edge id="-26927036" from="293604102" to="42132826" name="6520" priority="20" type="railway.rail" spreadType="center" length="561.79" shape="3450.35,6384.18 3571.13,6423.43 3571.24,6429.15 3571.60,6447.71 3572.14,6475.15 3573.49,6544.94 3573.79,6560.64 3573.88,6564.89 3573.90,6566.34 3574.67,6605.82 3575.73,6660.67 3576.36,6693.12 3576.49,6699.64 3576.77,6714.27 3577.22,6737.14 3577.27,6739.80 3577.58,6755.75 3577.81,6767.53 3598.39,6797.56" bidi="314928807#1">
        <lane id="-26927036_0" index="0" allow="rail" speed="13.89" length="561.79" shape="3453.91,6385.34 3571.13,6423.43 3571.24,6429.15 3571.60,6447.71 3572.14,6475.15 3573.49,6544.94 3573.79,6560.64 3573.88,6564.89 3573.90,6566.34 3574.67,6605.82 3575.73,6660.67 3576.36,6693.12 3576.49,6699.64 3576.77,6714.27 3577.22,6737.14 3577.27,6739.80 3577.58,6755.75 3577.81,6767.53 3598.12,6797.17">
            <param key="origId" value="26927036 314928807"/>
        </lane>
    </edge>
    <edge id="-294730182" from="293605247" to="293604102" name="6520" priority="20" type="railway.rail" spreadType="center" length="48.21" bidi="742458424">
        <lane id="-294730182_0" index="0" allow="rail" speed="44.44" length="48.21" shape="3449.60,6345.50 3450.30,6381.54">
            <param key="origId" value="294730182 742458423 742458424"/>
        </lane>
    </edge>
    <edge id="-294730183" from="428759039" to="293605248" name="6007" priority="19" type="railway.light_rail" spreadType="center" length="240.97" shape="3406.49,6185.62 3407.09,6216.30 3407.39,6232.11 3408.00,6263.15 3408.07,6266.77 3408.23,6275.20 3409.09,6319.66 3409.11,6320.63 3409.42,6336.75 3410.36,6384.95 3410.60,6397.62 3411.16,6426.53" bidi="742458420">
        <lane id="-294730183_0" index="0" allow="rail_urban" speed="22.22" length="240.97" shape="3406.49,6185.62 3407.09,6216.30 3407.39,6232.11 3408.00,6263.15 3408.07,6266.77 3408.23,6275.20 3409.09,6319.66 3409.11,6320.63 3409.42,6336.75 3410.36,6384.95 3410.60,6397.62 3411.03,6419.91">
            <param key="origId" value="294730183 742458419 742458420"/>
        </lane>
        <param key="railway:track_ref" value="2"/>
    </edge>
    <edge id="-295348086" from="2990609221" to="296021449" priority="19" type="railway.light_rail" spreadType="center" length="90.09" bidi="295348086">
        <lane id="-295348086_0" index="0" allow="rail_urban" speed="27.78" length="90.09" shape="3741.10,12274.49 3727.03,12219.33">
            <param key="origId" value="295348086"/>
        </lane>
    </edge>
    <edge id="-314928807#0" from="42132826" to="291831407" name="6520" priority="20" type="railway.rail" spreadType="center" length="209.96" shape="3598.39,6797.56 3598.91,6824.05 3598.97,6827.50 3599.39,6849.01 3600.98,6930.80" bidi="314928807#0" distance="57310.36">
        <lane id="-314928807#0_0" index="0" allow="rail" speed="13.89" length="209.96" shape="3598.40,6798.04 3598.91,6824.05 3598.97,6827.50 3599.39,6849.01 3600.98,6930.80">
            <param key="origId" value="314928807"/>
        </lane>
    </edge>
    <edge id="-314928808" from="291831407" to="42132803" name="6520" priority="20" type="railway.rail" spreadType="center" length="117.45" bidi="314928808">
        <lane id="-314928808_0" index="0" allow="rail" speed="5.56" length="117.45" shape="3600.98,6930.80 3602.11,6989.43">
            <param key="origId" value="314928808"/>
        </lane>
    </edge>
    <edge id="-326225735#0" from="10707835751" to="10707835741" name="6007" priority="19" type="railway.light_rail" spreadType="center" length="1053.19" shape="3282.48,7011.56 3283.13,7044.94 3283.27,7051.98 3283.63,7070.95 3283.84,7081.40 3284.02,7090.94 3284.30,7105.25 3284.43,7111.92 3284.73,7127.24 3286.10,7198.29 3286.30,7208.37 3286.58,7222.82 3286.67,7227.33 3286.73,7230.68 3286.99,7243.83 3287.27,7258.69 3287.41,7265.48 3287.44,7267.41 3287.63,7276.88 3287.87,7289.37 3288.46,7319.67 3292.59,7532.85 3302.89,8063.78" bidi="255228345#1">
        <lane id="-326225735#0_0" index="0" allow="rail_urban" speed="22.22" length="1053.19" shape="3282.48,7011.56 3283.13,7044.94 3283.27,7051.98 3283.63,7070.95 3283.84,7081.40 3284.02,7090.94 3284.30,7105.25 3284.43,7111.92 3284.73,7127.24 3286.10,7198.29 3286.30,7208.37 3286.58,7222.82 3286.67,7227.33 3286.73,7230.68 3286.99,7243.83 3287.27,7258.69 3287.41,7265.48 3287.44,7267.41 3287.63,7276.88 3287.87,7289.37 3288.46,7319.67 3292.59,7532.85 3302.89,8063.78">
            <param key="origId" value="326225735 326225725 255228345"/>
        </lane>
    </edge>
    <edge id="-326225735#1" from="1363480438" to="10707835751" name="6007" priority="19" type="railway.light_rail" spreadType="center" length="440.94" shape="3313.93,6569.93 3274.73,6611.64 3275.79,6666.49 3276.42,6698.93 3276.55,6705.46 3276.83,6720.08 3277.27,6742.95 3277.32,6745.61 3277.63,6761.57 3277.86,6773.35 3278.17,6789.19 3278.45,6803.77 3278.58,6810.19 3278.97,6830.25 3279.03,6833.71 3279.45,6855.22 3281.04,6937.00 3281.84,6978.41 3281.84,6978.64 3281.94,6983.44 3282.48,7011.56" bidi="326225735#1">
        <lane id="-326225735#1_0" index="0" allow="rail_urban" speed="22.22" length="440.94" shape="3310.21,6573.89 3274.73,6611.64 3275.79,6666.49 3276.42,6698.93 3276.55,6705.46 3276.83,6720.08 3277.27,6742.95 3277.32,6745.61 3277.63,6761.57 3277.86,6773.35 3278.17,6789.19 3278.45,6803.77 3278.58,6810.19 3278.97,6830.25 3279.03,6833.71 3279.45,6855.22 3281.04,6937.00 3281.84,6978.41 3281.84,6978.64 3281.94,6983.44 3282.48,7011.56">
            <param key="origId" value="326225735"/>
        </lane>
    </edge>
    <edge id="-33141915#0" from="10707518655" to="295049177" name="6142" priority="20" type="railway.rail" spreadType="center" length="238.02" shape="3415.19,5602.41 3413.96,5539.16 3413.34,5507.41 3412.33,5454.87 3410.99,5385.98 3410.58,5364.72" bidi="254033615#1">
        <lane id="-33141915#0_0" index="0" allow="rail rail_electric rail_fast" speed="44.44" length="238.02" shape="3415.19,5602.41 3413.96,5539.16 3413.34,5507.41 3412.33,5454.87 3410.99,5385.98 3410.69,5370.25">
            <param key="origId" value="33141915 121902856 254033615"/>
        </lane>
    </edge>
    <edge id="-33142145#0" from="4395254268" to="10707518655" name="6142" priority="20" type="railway.rail" spreadType="center" length="660.60" shape="3427.99,6262.76 3427.39,6231.72 3427.08,6215.91 3426.82,6202.53 3426.49,6185.23 3426.33,6176.97 3425.89,6154.31 3425.67,6143.15 3425.27,6122.65 3423.83,6048.24 3423.77,6045.27 3421.57,5931.41 3421.56,5931.22 3419.78,5839.37 3419.07,5802.83 3418.31,5763.67 3417.92,5743.28 3417.39,5716.13 3417.02,5696.74 3416.83,5686.94 3416.62,5676.32 3416.48,5669.18 3415.86,5637.00 3415.69,5628.35 3415.19,5602.41" bidi="33141915#1">
        <lane id="-33142145#0_0" index="0" allow="rail rail_electric rail_fast" speed="44.44" length="660.60" shape="3427.99,6262.55 3427.39,6231.72 3427.08,6215.91 3426.82,6202.53 3426.49,6185.23 3426.33,6176.97 3425.89,6154.31 3425.67,6143.15 3425.27,6122.65 3423.83,6048.24 3423.77,6045.27 3421.57,5931.41 3421.56,5931.22 3419.78,5839.37 3419.07,5802.83 3418.31,5763.67 3417.92,5743.28 3417.39,5716.13 3417.02,5696.74 3416.83,5686.94 3416.62,5676.32 3416.48,5669.18 3415.86,5637.00 3415.69,5628.35 3415.19,5602.41">
            <param key="origId" value="33142145 33141915"/>
        </lane>
        <param key="railway:track_ref" value="3"/>
    </edge>
    <edge id="-33142145#1" from="293605247" to="4395254268" name="6142" priority="20" type="railway.rail" spreadType="center" length="73.62" bidi="33142145#1">
        <lane id="-33142145#1_0" index="0" allow="rail rail_electric rail_fast" speed="44.44" length="73.62" shape="3447.49,6329.38 3428.05,6262.97">
            <param key="origId" value="33142145"/>
        </lane>
        <param key="railway:track_ref" value="3"/>
    </edge>
    <edge id="-334912225#0" from="10707518645" to="4395826741" name="6142" priority="20" type="railway.rail" spreadType="center" length="349.07" shape="3363.84,6049.40 3365.29,6123.81 3365.68,6144.31 3365.90,6155.47 3366.34,6178.13 3366.50,6186.39 3366.83,6203.69 3367.09,6217.08 3367.40,6232.88 3368.00,6263.92 3368.07,6267.55 3368.24,6275.98 3369.10,6320.43 3369.12,6321.41 3369.43,6337.53 3370.61,6398.39" bidi="742458418#1">
        <lane id="-334912225#0_0" index="0" allow="rail rail_electric rail_fast" speed="27.78" length="349.07" shape="3363.84,6049.40 3365.29,6123.81 3365.68,6144.31 3365.90,6155.47 3366.34,6178.13 3366.50,6186.39 3366.83,6203.69 3367.09,6217.08 3367.40,6232.88 3368.00,6263.92 3368.07,6267.55 3368.24,6275.98 3369.10,6320.43 3369.12,6321.41 3369.43,6337.53 3370.61,6398.39">
            <param key="origId" value="334912225 78766917 742458417 742458418"/>
        </lane>
    </edge>
    <edge id="-334912225#1" from="10707518656" to="10707518645" name="6142" priority="20" type="railway.rail" spreadType="center" length="426.80" shape="3355.57,5622.68 3356.49,5670.35 3356.63,5677.48 3356.84,5688.11 3357.03,5697.90 3357.40,5717.30 3357.93,5744.44 3358.32,5764.83 3359.08,5804.00 3359.79,5840.54 3361.57,5932.34 3361.58,5932.57 3363.84,6049.40" bidi="334912225#1">
        <lane id="-334912225#1_0" index="0" allow="rail rail_electric rail_fast" speed="27.78" length="426.80" shape="3355.57,5622.68 3356.49,5670.35 3356.63,5677.48 3356.84,5688.11 3357.03,5697.90 3357.40,5717.30 3357.93,5744.44 3358.32,5764.83 3359.08,5804.00 3359.79,5840.54 3361.57,5932.34 3361.58,5932.57 3363.84,6049.40">
            <param key="origId" value="334912225"/>
        </lane>
    </edge>
    <edge id="-334912225#2" from="2598612721" to="10707518656" name="6142" priority="20" type="railway.rail" spreadType="center" length="235.60" shape="3351.00,5387.14 3352.34,5456.04 3353.36,5508.58 3353.97,5540.32 3354.95,5591.03 3355.57,5622.68" bidi="334912225#2">
        <lane id="-334912225#2_0" index="0" allow="rail rail_electric rail_fast" speed="27.78" length="235.60" shape="3351.04,5389.27 3352.34,5456.04 3353.36,5508.58 3353.97,5540.32 3354.95,5591.03 3355.57,5622.68">
            <param key="origId" value="334912225"/>
        </lane>
    </edge>
    <edge id="-347977095" from="428647707" to="3542016595" priority="20" type="railway.rail" spreadType="center" length="190.85" shape="3584.24,7099.44 3604.67,7121.04 3606.04,7192.09 3606.24,7202.16 3606.67,7224.47" bidi="347977095">
        <lane id="-347977095_0" index="0" allow="rail" speed="44.44" length="190.85" shape="3588.11,7103.54 3604.67,7121.04 3606.04,7192.09 3606.24,7202.16 3606.67,7224.47">
            <param key="origId" value="347977095"/>
        </lane>
    </edge>
    <edge id="-36853643#0" from="10712435854" to="59143907" name="6007" priority="19" type="railway.light_rail" spreadType="center" length="38.23" bidi="36853643#0">
        <lane id="-36853643#0_0" index="0" allow="rail_urban" speed="27.78" length="38.23" shape="3717.17,11891.28 3717.84,11925.67">
            <param key="origId" value="36853643"/>
        </lane>
    </edge>
    <edge id="-36853643#1" from="296021288" to="10712435854" name="6007" priority="19" type="railway.light_rail" spreadType="center" length="298.89" bidi="36853643#1">
        <lane id="-36853643#1_0" index="0" allow="rail_urban" speed="27.78" length="298.89" shape="3712.83,11667.64 3717.17,11891.28">
            <param key="origId" value="36853643"/>
        </lane>
    </edge>
    <edge id="-36867992" from="428648323" to="428648322" priority="20" type="railway.rail" spreadType="center" length="35.91" bidi="36867992">
        <lane id="-36867992_0" index="0" allow="rail" speed="44.44" length="35.91" shape="3527.40,7262.75 3526.98,7241.43">
            <param key="origId" value="36867992"/>
        </lane>
    </edge>
    <edge id="-392159899#1" from="295049179" to="295049181" name="6142" priority="20" type="railway.rail" spreadType="center" length="38.66" bidi="392159899#1">
        <lane id="-392159899#1_0" index="0" allow="rail rail_electric rail_fast" speed="27.78" length="38.66" shape="3368.36,5250.36 3367.64,5213.71">
            <param key="origId" value="392159899"/>
        </lane>
    </edge>