<?xml version="1.0" encoding="UTF-8"?>

<!-- generated on 2023-03-27 16:27:58 by Eclipse SUMO netedit Version v1_16_0+1685-995fee9
-->

<routes xmlns:xsi="http://www.w3.org/2001/XMLSchema-instance" xsi:noNamespaceSchemaLocation="http://sumo.dlr.de/xsd/routes_file.xsd">
    <!-- Vehicles, persons and containers (sorted by depart) -->
    <vType id="tram" vClass="tram"/>
    <flow id="v" begin="0.00" period="3" number="1" departSpeed="max">
        <route edges="E0 E1 E4"/>
    </flow>
    <flow id="t" type="tram" begin="0.00" period="10" number="1" departSpeed="max">
        <route edges="-E2 -E1 -E0"/>
    </flow>
</routes>
