<?xml version="1.0" encoding="UTF-8"?>

<!-- generated on 2022-10-25 16:38:09 by Eclipse SUMO netedit Version v1_14_1+1940-4d5459b920b
-->

<routes xmlns:xsi="http://www.w3.org/2001/XMLSchema-instance" xsi:noNamespaceSchemaLocation="http://sumo.dlr.de/xsd/routes_file.xsd">
    <!-- Vehicles, persons and containers (sorted by depart) -->
    <trip id="trip" depart="0.00" from="gneE0" to="gneE1">
        <stop containerStop="containerStopA" duration="70.00" until="12.00" extension="10.00" triggered="join" parking="1" permitted="A B" tripId="tripA" line="lineA" onDemand="1" actType="walking"/>
        <stop containerStop="containerStopB" duration="60.00" until="20.00" extension="20.00" triggered="join" parking="1" permitted="C D" tripId="tripB" line="lineB" actType="singing"/>
    </trip>
</routes>
