<?xml version="1.0" encoding="UTF-8"?>

<!-- generated on 2021-08-30 13:42:59 by Eclipse SUMO netedit Version v1_10_0+0379-37f06a2396
-->

<additional xmlns:xsi="http://www.w3.org/2001/XMLSchema-instance" xsi:noNamespaceSchemaLocation="http://sumo.dlr.de/xsd/additional_file.xsd">
    <containerStop id="containerStop_01" name="containerStop" lane="gneE0_0" startPos="35.00" lines="line1 line2"/>
    <containerStop id="containerStop_06" name="containerStop" lane="gneE0_0" startPos="35.00" endPos="-5.00" lines="line1 line2"/>
</additional>
