<?xml version="1.0" encoding="UTF-8"?>

<!-- generated on 08.02.2019 16:02:30 by Eclipse SUMO netedit Version v1_1_0+0713-7b762ac814
<configuration xmlns:xsi="http://www.w3.org/2001/XMLSchema-instance" xsi:noNamespaceSchemaLocation="https://sumo.dlr.de/xsd/netconvertConfiguration.xsd">

    <input>
        <sumo-net-file value="C:/Users/SUMO-Test/.texttest/tmp/netedit.gui.1_from_08Feb153949.1392/netedit.gui/additionalElements/containerStop/load/endpos\input_net.net.xml"/>
    </input>

    <output>
        <output-file value="C:/Users/SUMO-Test/.texttest/tmp/netedit.gui.1_from_08Feb153949.1392/netedit.gui/additionalElements/containerStop/load/endpos\net.net.xml"/>
    </output>

    <processing>
        <geometry.max-grade.fix value="false"/>
        <offset.disable-normalization value="true"/>
        <lefthand value="false"/>
    </processing>

    <junctions>
        <no-turnarounds value="true"/>
        <junctions.corner-detail value="5"/>
        <junctions.limit-turn-speed value="5.5"/>
        <rectangular-lane-cut value="false"/>
    </junctions>

    <pedestrian>
        <walkingareas value="false"/>
    </pedestrian>

    <netedit>
        <additional-files value="C:/Users/SUMO-Test/.texttest/tmp/netedit.gui.1_from_08Feb153949.1392/netedit.gui/additionalElements/containerStop/load/endpos\input_additionals.add.xml"/>
        <additionals-output value="C:/Users/SUMO-Test/.texttest/tmp/netedit.gui.1_from_08Feb153949.1392/netedit.gui/additionalElements/containerStop/load/endpos\additionals.xml"/>
        <demandelements-output value="C:/Users/SUMO-Test/.texttest/tmp/netedit.gui.1_from_08Feb153949.1392/netedit.gui/additionalElements/containerStop/load/endpos\routes.xml"/>
    </netedit>

    <visualisation>
        <gui-settings-file value="C:/Users/SUMO-Test/.texttest/tmp/netedit.gui.1_from_08Feb153949.1392/netedit.gui/additionalElements/containerStop/load/endpos\gui-settings.xml"/>
        <window-size value="700,500"/>
        <window-pos value="50,50"/>
        <gui-testing value="true"/>
        <gui-testing-debug value="true"/>
        <gui-testing-debug-gl value="true"/>
    </visualisation>

    <report>
        <no-warnings value="true"/>
        <error-log value="C:/Users/SUMO-Test/.texttest/tmp/netedit.gui.1_from_08Feb153949.1392/netedit.gui/additionalElements/containerStop/load/endpos\log.txt"/>
    </report>

</configuration>
-->

<additional xmlns:xsi="http://www.w3.org/2001/XMLSchema-instance" xsi:noNamespaceSchemaLocation="https://sumo.dlr.de/xsd/additional_file.xsd">
    <containerStop id="containerStop_01" name="containerStop" lane="gneE0_0" lines="line1 line2" startPos="35"/>
    <containerStop id="containerStop_02" name="containerStop" lane="gneE0_0" lines="line1 line2" startPos="35"/>
    <containerStop id="containerStop_06" name="containerStop" lane="gneE0_0" lines="line1 line2" startPos="35" endPos="-5"/>
</additional>
