<?xml version="1.0" encoding="UTF-8"?>

<!-- generated on Mon Feb 17 15:31:05 2020 by Eclipse SUMO netconvert Version v1_5_0+0130-ceb0a01
This data file and the accompanying materials
are made available under the terms of the Eclipse Public License v2.0
which accompanies this distribution, and is available at
http://www.eclipse.org/legal/epl-v20.html
SPDX-License-Identifier: EPL-2.0
<configuration xmlns:xsi="http://www.w3.org/2001/XMLSchema-instance" xsi:noNamespaceSchemaLocation="http://sumo.dlr.de/xsd/netconvertConfiguration.xsd">

    <input>
        <node-files value="input_plain.nod.xml"/>
        <edge-files value="input_plain.edg.xml"/>
    </input>

    <output>
        <write-license value="true"/>
        <output-file value="net.net.xml"/>
    </output>

    <tls_building>
        <tls.guess value="true"/>
        <tls.guess.threshold value="50"/>
        <tls.guess.joining value="true"/>
        <tls.join-dist value="30"/>
    </tls_building>

    <junctions>
        <no-internal-links value="true"/>
    </junctions>

    <report>
        <xml-validation value="never"/>
        <aggregate-warnings value="5"/>
        <ignore-errors.edge-type value="true"/>
    </report>

</configuration>
-->

<net version="1.6" junctionCornerDetail="5" limitTurnSpeed="5.50" xmlns:xsi="http://www.w3.org/2001/XMLSchema-instance" xsi:noNamespaceSchemaLocation="http://sumo.dlr.de/xsd/net_file.xsd">

    <location netOffset="-301930.58,-4638222.78" convBoundary="0.00,0.00,724.39,753.81" origBoundary="-71.529558,41.857432,-71.368327,42.010159" projParameter="+proj=utm +zone=19 +ellps=WGS84 +datum=WGS84 +units=m +no_defs"/>

    <edge id="-132174699" from="3646961143" to="cluster_201484298_3646958907" priority="10" type="highway.tertiary" shape="159.45,251.33 159.74,260.52 160.69,269.96 162.04,280.06 163.66,289.68 180.70,376.62 182.97,388.84 184.59,400.32 186.15,411.51">
        <lane id="-132174699_0" index="0" disallow="tram rail_urban rail rail_electric ship" speed="7.77" length="166.39" shape="161.05,251.40 161.34,260.41 162.28,269.77 163.62,279.82 165.23,289.39 182.27,376.32 184.55,388.58 186.17,400.10 186.73,404.07"/>
    </edge>
    <edge id="-19354946" from="3649519965" to="201169348" priority="7" type="highway.primary_link">
        <lane id="-19354946_0" index="0" disallow="tram rail_urban rail rail_electric ship" speed="10.00" length="15.43" shape="498.02,273.18 492.46,271.28"/>
        <lane id="-19354946_1" index="1" disallow="tram rail_urban rail rail_electric ship" speed="10.00" length="15.43" shape="499.05,270.15 493.49,268.25"/>
    </edge>
    <edge id="-19390809" from="201648374" to="201583483" priority="3" type="highway.residential">
        <lane id="-19390809_0" index="0" disallow="tram rail_urban rail rail_electric ship" speed="5.55" length="34.02" shape="549.57,245.88 536.53,273.52"/>
    </edge>
    <edge id="-359891757" from="201579267" to="201484338" priority="12" type="highway.primary" shape="222.72,664.09 227.06,662.21 231.78,659.77 236.32,656.89 241.45,652.58 261.81,633.21 268.57,625.80">
        <lane id="-359891757_0" index="0" disallow="tram rail_urban rail rail_electric ship" speed="10.00" length="60.25" shape="227.25,656.71 229.39,655.60 233.48,653.01 238.25,649.00 257.87,630.33"/>
        <lane id="-359891757_1" index="1" disallow="tram rail_urban rail rail_electric ship" speed="10.00" length="60.25" shape="228.52,659.65 230.98,658.38 235.37,655.60 240.38,651.39 260.24,632.49"/>
    </edge>
    <edge id="-360431542" from="201158163" to="3649770499" priority="4" type="highway.unclassified" shape="538.00,551.38 539.91,549.24 541.88,546.71 543.56,543.45 550.47,524.29 552.65,517.22 558.74,494.52">
        <lane id="-360431542_0" index="0" disallow="tram rail_urban rail rail_electric ship" speed="5.55" length="60.98" shape="541.22,544.49 542.09,542.81 548.95,523.78 551.11,516.78 557.00,494.84"/>
    </edge>
    <edge id="-47795739" from="3645211939" to="201649895" priority="12" type="highway.primary">
        <lane id="-47795739_0" index="0" disallow="tram rail_urban rail rail_electric ship" speed="10.00" length="38.30" shape="284.57,596.44 306.43,566.39"/>
        <lane id="-47795739_1" index="1" disallow="tram rail_urban rail rail_electric ship" speed="10.00" length="38.30" shape="287.15,598.32 309.02,568.27"/>
    </edge>
    <edge id="-47795742" from="201579267" to="201579305" priority="11" type="highway.secondary" shape="222.72,664.09 220.13,659.09 216.97,653.32 138.98,533.98 114.67,497.04 106.26,484.63 99.89,476.47 94.96,470.21 90.32,464.99 84.70,459.34 79.90,455.34 75.59,452.40 70.17,450.04 64.39,448.42 58.56,447.70 52.96,447.29 46.39,447.47 39.44,448.03 0.00,452.06">
        <lane id="-47795742_0" index="0" disallow="tram rail_urban rail rail_electric ship" speed="8.88" length="335.32" shape="216.52,655.82 215.60,654.14 137.64,534.86 113.34,497.93 104.97,485.57 98.63,477.46 93.73,471.24 89.15,466.09 83.62,460.52 78.93,456.62 74.81,453.81 69.63,451.55 64.07,449.99 58.40,449.29 52.92,448.89 46.48,449.07 39.59,449.62 0.16,453.65"/>
    </edge>
    <edge id="-47795933#0" from="201314888" to="201364790" priority="12" type="highway.primary">
        <lane id="-47795933#0_0" index="0" disallow="tram rail_urban rail rail_electric ship" speed="10.00" length="81.75" shape="652.05,222.62 725.46,239.42"/>
        <lane id="-47795933#0_1" index="1" disallow="tram rail_urban rail rail_electric ship" speed="10.00" length="81.75" shape="651.34,225.74 724.75,242.54"/>
    </edge>
    <edge id="-47795933#1" from="201364781" to="201314888" priority="12" type="highway.primary">
        <lane id="-47795933#1_0" index="0" disallow="tram rail_urban rail rail_electric ship" speed="10.00" length="58.47" shape="589.06,208.14 639.53,219.75"/>
        <lane id="-47795933#1_1" index="1" disallow="tram rail_urban rail rail_electric ship" speed="10.00" length="58.47" shape="588.34,211.26 638.81,222.86"/>
    </edge>
    <edge id="-47795958" from="cluster_201220801_201589322_3645231524_3645231555_5819001482" to="201146870" priority="12" type="highway.primary" shape="446.79,600.98 499.03,626.66 507.10,631.04 514.85,635.53 521.75,639.92 527.68,644.55 532.44,649.57 536.85,655.41 601.18,753.81">
        <lane id="-47795958_0" index="0" disallow="tram rail_urban rail rail_electric ship" speed="10.00" length="237.61" shape="447.50,599.54 499.76,625.24 507.88,629.64 515.68,634.16 522.67,638.61 528.76,643.36 533.66,648.53 538.16,654.49 602.52,752.93"/>
    </edge>
    <edge id="-480176669" from="1802287943" to="3646961143" priority="10" type="highway.tertiary">
        <lane id="-480176669_0" index="0" disallow="tram rail_urban rail rail_electric ship" speed="7.77" length="51.46" shape="163.42,200.18 161.05,251.28"/>
    </edge>
    <edge id="-547275315" from="201484338" to="3645211939" priority="12" type="highway.primary" shape="268.57,625.80 274.53,618.75 288.36,599.38">
        <lane id="-547275315_0" index="0" disallow="tram rail_urban rail rail_electric ship" speed="10.00" length="33.03" shape="271.92,614.15 284.37,596.71"/>
        <lane id="-547275315_1" index="1" disallow="tram rail_urban rail rail_electric ship" speed="10.00" length="33.03" shape="274.37,616.22 286.97,598.57"/>
    </edge>
    <edge id="-547275318" from="201484338" to="2428450057" priority="11" type="highway.secondary" shape="268.57,625.80 275.49,632.43 279.33,636.74 282.67,641.41 298.82,674.59">
        <lane id="-547275318_0" index="0" disallow="tram rail_urban rail rail_electric ship" speed="8.88" length="58.00" shape="279.47,629.68 283.08,633.74 286.81,638.95 303.14,672.49"/>
        <lane id="-547275318_1" index="1" disallow="tram rail_urban rail rail_electric ship" speed="8.88" length="58.00" shape="277.25,632.00 280.58,635.74 284.05,640.59 300.26,673.89"/>
    </edge>
    <edge id="-615359718#0" from="5819001425" to="3649758013" priority="4" type="highway.unclassified">
        <lane id="-615359718#0_0" index="0" disallow="tram rail_urban rail rail_electric ship" speed="5.55" length="9.41" shape="360.68,426.27 361.15,427.88"/>
    </edge>
    <edge id="-615359718#1" from="5819001431" to="5819001425" priority="4" type="highway.unclassified">
        <lane id="-615359718#1_0" index="0" disallow="tram rail_urban rail rail_electric ship" speed="5.55" length="23.36" shape="354.09,403.49 356.67,412.40"/>
    </edge>
    <edge id="-615359718#2" from="5819001429" to="5819001431" priority="4" type="highway.unclassified">
        <lane id="-615359718#2_0" index="0" disallow="tram rail_urban rail rail_electric ship" speed="5.55" length="15.21" shape="349.85,388.85 350.09,389.66"/>
    </edge>
    <edge id="-615359718#3" from="5819001426" to="5819001429" priority="4" type="highway.unclassified">
        <lane id="-615359718#3_0" index="0" disallow="tram rail_urban rail rail_electric ship" speed="5.55" length="19.32" shape="344.49,370.31 345.85,375.02"/>
    </edge>
    <edge id="-615359718#4" from="5819001413" to="5819001426" priority="4" type="highway.unclassified">
        <lane id="-615359718#4_0" index="0" disallow="tram rail_urban rail rail_electric ship" speed="5.55" length="18.09" shape="339.44,352.87 340.48,356.47"/>
    </edge>
    <edge id="-615359718#5" from="5819001391" to="5819001413" priority="4" type="highway.unclassified" shape="319.59,318.81 325.80,323.37 330.17,328.90 331.85,332.41 335.92,346.44">
        <lane id="-615359718#5_0" index="0" disallow="tram rail_urban rail rail_electric ship" speed="5.55" length="32.93" shape="332.82,330.73 333.35,331.84 335.44,339.04"/>
    </edge>
    <edge id="-615359718#6" from="5819001407" to="5819001391" priority="4" type="highway.unclassified" shape="295.65,319.66 307.91,316.63 313.88,317.52 319.59,318.81">
        <lane id="-615359718#6_0" index="0" disallow="tram rail_urban rail rail_electric ship" speed="5.55" length="24.52" shape="303.29,316.12 307.83,315.00 314.17,315.95 315.39,316.22"/>
    </edge>
    <edge id="-615359718#7" from="5819001399" to="5819001407" priority="4" type="highway.unclassified">
        <lane id="-615359718#7_0" index="0" disallow="tram rail_urban rail rail_electric ship" speed="5.55" length="14.31" shape="288.19,319.85 289.05,319.64"/>
    </edge>
    <edge id="-615359718#8" from="5819001404" to="5819001399" priority="4" type="highway.unclassified" shape="268.42,327.15 270.70,325.80 281.75,323.08">
        <lane id="-615359718#8_0" index="0" disallow="tram rail_urban rail rail_electric ship" speed="5.55" length="13.95" shape="275.20,323.04 275.40,323.00"/>
    </edge>
    <edge id="-615359718#9" from="5819001398" to="5819001404" priority="4" type="highway.unclassified" shape="297.60,507.20 262.42,400.66 262.91,333.65 264.70,329.34 268.42,327.15">
        <lane id="-615359718#9_0" index="0" disallow="tram rail_urban rail rail_electric ship" speed="5.55" length="187.97" shape="296.08,507.70 260.82,400.91 261.31,333.33 263.06,329.11"/>
    </edge>
    <edge id="-615359720#0" from="5819001405" to="5819001399" priority="4" type="highway.unclassified" shape="269.07,302.90 269.44,291.22 279.62,291.55 279.95,317.22 281.75,323.08">
        <lane id="-615359720#0_0" index="0" disallow="tram rail_urban rail rail_electric ship" speed="5.55" length="53.63" shape="267.75,293.95 267.89,289.57 281.20,290.00 281.53,315.48"/>
    </edge>
    <edge id="-615359720#1" from="5819001404" to="5819001405" priority="4" type="highway.unclassified" shape="268.42,327.15 268.50,320.11 269.07,302.90">
        <lane id="-615359720#1_0" index="0" disallow="tram rail_urban rail rail_electric ship" speed="5.55" length="24.26" shape="266.96,318.21 267.27,308.89"/>
    </edge>
    <edge id="-615359721" from="5819001406" to="5819001405" priority="4" type="highway.unclassified">
        <lane id="-615359721_0" index="0" disallow="tram rail_urban rail rail_electric ship" speed="5.55" length="18.00" shape="253.73,293.35 261.74,297.40"/>
    </edge>
    <edge id="-615359723" from="5819001408" to="5819001407" priority="4" type="highway.unclassified">
        <lane id="-615359723_0" index="0" disallow="tram rail_urban rail rail_electric ship" speed="5.55" length="28.61" shape="298.41,291.13 297.58,311.47"/>
    </edge>
    <edge id="-615359724#0" from="5819001412" to="5819001391" priority="4" type="highway.unclassified" shape="365.59,337.43 361.76,325.22 359.08,324.09 337.09,324.18 319.59,318.81">
        <lane id="-615359724#0_0" index="0" disallow="tram rail_urban rail rail_electric ship" speed="5.55" length="56.00" shape="361.90,331.01 360.46,326.41 358.76,325.69 336.85,325.78 336.20,325.58"/>
    </edge>
    <edge id="-615359724#1" from="5819001413" to="5819001412" priority="4" type="highway.unclassified">
        <lane id="-615359724#1_0" index="0" disallow="tram rail_urban rail rail_electric ship" speed="5.55" length="31.01" shape="342.38,342.81 358.21,338.00"/>
    </edge>
    <edge id="-615359726#0" from="5819001427" to="5819001412" priority="4" type="highway.unclassified" shape="407.79,344.80 403.96,336.23 386.52,333.75 374.27,334.69 365.59,337.43">
        <lane id="-615359726#0_0" index="0" disallow="tram rail_urban rail rail_electric ship" speed="5.55" length="48.39" shape="403.20,338.45 402.86,337.69 386.47,335.36 374.58,336.27 372.94,336.79"/>
    </edge>
    <edge id="-615359726#1" from="5819001417" to="5819001427" priority="4" type="highway.unclassified">
        <lane id="-615359726#1_0" index="0" disallow="tram rail_urban rail rail_electric ship" speed="5.55" length="15.10" shape="409.89,353.41 409.15,351.75"/>
    </edge>
    <edge id="-615359726#2" from="cluster_5819001430_5819001435" to="5819001417" priority="4" type="highway.unclassified" shape="426.79,422.23 443.11,424.27 444.49,412.19 444.62,402.64 440.50,389.80 434.37,373.60 429.26,367.62 413.96,358.58">
        <lane id="-615359726#2_0" index="0" disallow="tram rail_urban rail rail_electric ship" speed="5.55" length="98.15" shape="434.27,421.55 441.70,422.48 442.89,412.09 443.02,402.88 438.99,390.33 432.97,374.43 428.22,368.86 417.84,362.73"/>
    </edge>
    <edge id="-615359726#4" from="5819001424" to="cluster_5819001430_5819001435" priority="4" type="highway.unclassified" shape="377.00,416.03 419.75,421.36">
        <lane id="-615359726#4_0" index="0" disallow="tram rail_urban rail rail_electric ship" speed="5.55" length="46.63" shape="396.75,416.88 410.86,418.64"/>
    </edge>
    <edge id="-615359726#5" from="5819001425" to="5819001424" priority="4" type="highway.unclassified">
        <lane id="-615359726#5_0" index="0" disallow="tram rail_urban rail rail_electric ship" speed="5.55" length="20.25" shape="364.25,416.58 372.32,415.20"/>
    </edge>
    <edge id="-615359727" from="5819001427" to="5819001426" priority="4" type="highway.unclassified">
        <lane id="-615359727_0" index="0" disallow="tram rail_urban rail rail_electric ship" speed="5.55" length="69.50" shape="400.83,348.44 348.32,363.38"/>
    </edge>
    <edge id="-615359729#0" from="5819001428" to="5819001417" priority="4" type="highway.unclassified">
        <lane id="-615359729#0_0" index="0" disallow="tram rail_urban rail rail_electric ship" speed="5.55" length="15.62" shape="405.23,361.97 407.67,360.50"/>
    </edge>
    <edge id="-615359729#1" from="5819001429" to="5819001428" priority="4" type="highway.unclassified">
        <lane id="-615359729#1_0" index="0" disallow="tram rail_urban rail rail_electric ship" speed="5.55" length="56.50" shape="352.79,378.84 393.59,367.00"/>
    </edge>
    <edge id="-615359730#0" from="5819001432" to="5819001428" priority="4" type="highway.unclassified">
        <lane id="-615359730#0_0" index="0" disallow="tram rail_urban rail rail_electric ship" speed="5.55" length="15.81" shape="401.85,375.09 401.32,373.60"/>
    </edge>
    <edge id="-615359730#1" from="5819001672" to="5819001432" priority="4" type="highway.unclassified">
        <lane id="-615359730#1_0" index="0" disallow="tram rail_urban rail rail_electric ship" speed="5.55" length="25.28" shape="410.21,398.97 406.61,388.69"/>
    </edge>
    <edge id="-615359730#2" from="cluster_5819001430_5819001435" to="5819001672" priority="4" type="highway.unclassified" shape="419.75,421.36 414.17,405.42">
        <lane id="-615359730#2_0" index="0" disallow="tram rail_urban rail rail_electric ship" speed="5.55" length="18.92" shape="415.21,413.24 414.98,412.57"/>
    </edge>
    <edge id="-615359732" from="5819001432" to="5819001431" priority="4" type="highway.unclassified">
        <lane id="-615359732_0" index="0" disallow="tram rail_urban rail rail_electric ship" speed="5.55" length="57.38" shape="399.10,385.09 357.94,396.59"/>
    </edge>
    <edge id="-615359733" from="201221373" to="5819001427" priority="4" type="highway.unclassified" shape="419.23,337.36 416.28,338.60 411.59,342.62 407.79,344.80">
        <lane id="-615359733_0" index="0" disallow="tram rail_urban rail rail_electric ship" speed="5.55" length="13.65" shape="414.40,342.32 414.25,342.45"/>
    </edge>
    <edge id="-615359735#0" from="3649758010" to="cluster_5819001430_5819001435" priority="4" type="highway.unclassified" shape="425.52,437.73 426.79,422.23">
        <lane id="-615359735#0_0" index="0" disallow="tram rail_urban rail rail_electric ship" speed="5.55" length="16.50" shape="423.93,437.50 424.60,429.41"/>
    </edge>
    <edge id="-615359735#1" from="5819001436" to="3649758010" priority="4" type="highway.unclassified">
        <lane id="-615359735#1_0" index="0" disallow="tram rail_urban rail rail_electric ship" speed="5.55" length="18.15" shape="422.58,448.23 423.92,437.63"/>
    </edge>
    <edge id="-615359735#2" from="5819001453" to="5819001436" priority="4" type="highway.unclassified" shape="422.15,472.53 421.77,478.41 421.80,479.61 421.74,481.00 421.90,482.99 421.94,484.68 423.30,486.44 425.61,486.97 428.52,487.49 431.13,487.62 434.22,487.03 436.77,485.47 440.67,463.83 440.13,458.76 439.19,456.99 436.88,456.75 423.24,455.74">
        <lane id="-615359735#2_0" index="0" disallow="tram rail_urban rail rail_electric ship" speed="5.55" length="73.56" shape="423.40,479.61 423.34,480.97 423.50,482.90 423.53,484.12 424.22,485.01 425.93,485.40 428.70,485.90 431.02,486.01 433.63,485.51 435.32,484.48 439.05,463.77 438.57,459.24 438.18,458.49 436.74,458.34 430.47,457.88"/>
    </edge>
    <edge id="-615359735#3" from="5819001436" to="5819001453" priority="4" type="highway.unclassified">
        <lane id="-615359735#3_0" index="0" disallow="tram rail_urban rail rail_electric ship" speed="5.55" length="16.83" shape="424.37,463.07 424.23,465.23"/>
    </edge>
    <edge id="-615359735#4" from="5819001452" to="5819001436" priority="4" type="highway.unclassified">
        <lane id="-615359735#4_0" index="0" disallow="tram rail_urban rail rail_electric ship" speed="5.55" length="57.26" shape="374.89,450.08 416.26,453.55"/>
    </edge>
    <edge id="-615359735#5" from="3649758013" to="5819001452" priority="4" type="highway.unclassified">
        <lane id="-615359735#5_0" index="0" disallow="tram rail_urban rail rail_electric ship" speed="5.55" length="23.41" shape="361.23,428.17 365.99,444.55"/>
    </edge>
    <edge id="-615359737#0" from="5819001454" to="5819001453" priority="4" type="highway.unclassified">
        <lane id="-615359737#0_0" index="0" disallow="tram rail_urban rail rail_electric ship" speed="5.55" length="52.31" shape="379.21,465.24 415.00,469.97"/>
    </edge>
    <edge id="-615359737#1" from="5819001452" to="5819001454" priority="4" type="highway.unclassified">
        <lane id="-615359737#1_0" index="0" disallow="tram rail_urban rail rail_electric ship" speed="5.55" length="15.29" shape="370.03,458.81 370.19,459.36"/>
    </edge>
    <edge id="-615359738" from="5819001455" to="5819001454" priority="4" type="highway.unclassified">
        <lane id="-615359738_0" index="0" disallow="tram rail_urban rail rail_electric ship" speed="5.55" length="33.79" shape="375.54,491.48 371.02,474.59"/>
    </edge>
    <edge id="-615359739#0" from="cluster_5819001456_5819001459" to="3645200026" priority="4" type="highway.unclassified" shape="401.24,518.39 404.76,498.40">
        <lane id="-615359739#0_0" index="0" disallow="tram rail_urban rail rail_electric ship" speed="5.55" length="24.53" shape="400.94,510.85 402.33,502.97"/>
    </edge>
    <edge id="-615359739#1" from="5819001457" to="cluster_5819001456_5819001459" priority="4" type="highway.unclassified" shape="379.05,513.23 401.24,518.39">
        <lane id="-615359739#1_0" index="0" disallow="tram rail_urban rail rail_electric ship" speed="5.55" length="30.49" shape="379.41,511.67 394.42,515.16"/>
    </edge>
    <edge id="-615359741#1" from="5819001458" to="cluster_5819001456_5819001459" priority="4" type="highway.unclassified" shape="430.32,529.16 415.76,523.77">
        <lane id="-615359741#1_0" index="0" disallow="tram rail_urban rail rail_electric ship" speed="5.55" length="23.27" shape="429.76,530.66 422.21,527.86"/>
    </edge>
    <edge id="-615359742#0" from="5819001460" to="cluster_5819001456_5819001459" priority="4" type="highway.unclassified" shape="406.77,555.73 415.76,523.77">
        <lane id="-615359742#0_0" index="0" disallow="tram rail_urban rail rail_electric ship" speed="5.55" length="36.91" shape="407.25,548.11 412.20,530.53"/>
    </edge>
    <edge id="-615359742#1" from="5819001461" to="5819001460" priority="4" type="highway.unclassified">
        <lane id="-615359742#1_0" index="0" disallow="tram rail_urban rail rail_electric ship" speed="5.55" length="16.44" shape="390.86,551.31 400.26,552.96"/>
    </edge>
    <edge id="-615359744" from="5819001462" to="5819001460" priority="4" type="highway.unclassified">
        <lane id="-615359744_0" index="0" disallow="tram rail_urban rail rail_electric ship" speed="5.55" length="13.67" shape="419.87,559.95 413.78,558.75"/>
    </edge>
    <edge id="-615359745#0" from="5819001465" to="3649760625" priority="4" type="highway.unclassified" shape="505.98,410.46 500.61,457.33 482.39,454.75 483.74,444.88">
        <lane id="-615359745#0_0" index="0" disallow="tram rail_urban rail rail_electric ship" speed="5.55" length="75.54" shape="507.21,413.76 502.01,459.14 480.59,456.11 482.14,444.81"/>
    </edge>
    <edge id="-615359745#1" from="3649760625" to="5819001465" priority="4" type="highway.unclassified" shape="483.74,444.88 488.22,408.09 505.98,410.46">
        <lane id="-615359745#1_0" index="0" disallow="tram rail_urban rail rail_electric ship" speed="5.55" length="54.98" shape="482.17,444.54 486.83,406.29 503.08,408.46"/>
    </edge>
    <edge id="-615359747#0" from="5819001471" to="3645231518" priority="4" type="highway.unclassified" shape="537.67,472.85 534.93,474.83 531.32,482.57 524.36,508.19 517.94,518.43 508.29,527.66">
        <lane id="-615359747#0_0" index="0" disallow="tram rail_urban rail rail_electric ship" speed="5.55" length="63.72" shape="534.96,478.55 532.83,483.12 525.84,508.84 519.19,519.45 514.93,523.52"/>
    </edge>
    <edge id="-615359747#1" from="3649770499" to="5819001471" priority="4" type="highway.unclassified" shape="558.74,494.52 557.23,487.23 554.80,481.14 552.88,478.07 545.44,473.59 541.05,472.32 537.67,472.85">
        <lane id="-615359747#1_0" index="0" disallow="tram rail_urban rail rail_electric ship" speed="5.55" length="34.13" shape="557.02,494.10 555.69,487.69 553.37,481.87 551.73,479.24 544.79,475.07 544.63,475.02"/>
    </edge>
    <edge id="-615359749#0" from="5819001481" to="5819001471" priority="4" type="highway.unclassified">
        <lane id="-615359749#0_0" index="0" disallow="tram rail_urban rail rail_electric ship" speed="5.55" length="8.24" shape="538.38,467.95 538.41,468.14"/>
    </edge>
    <edge id="-615359749#1" from="5819001479" to="5819001481" priority="4" type="highway.unclassified" shape="525.76,438.25 528.70,444.09 535.52,461.39 536.15,464.75">
        <lane id="-615359749#1_0" index="0" disallow="tram rail_urban rail rail_electric ship" speed="5.55" length="28.50" shape="531.88,447.81 535.00,455.71"/>
    </edge>
    <edge id="-615359749#2" from="5819001481" to="5819001479" priority="4" type="highway.unclassified" shape="536.15,464.75 522.98,461.47 525.76,438.25">
        <lane id="-615359749#2_0" index="0" disallow="tram rail_urban rail rail_electric ship" speed="5.55" length="36.96" shape="526.62,464.03 521.22,462.68 522.81,449.40"/>
    </edge>
    <edge id="-615359751#0" from="5819001490" to="cluster_201220801_201589322_3645231524_3645231555_5819001482" priority="4" type="highway.unclassified" shape="460.65,542.20 450.83,567.20 453.03,568.00 457.25,569.45 460.63,571.78 462.95,574.06 464.00,577.33 464.06,582.68">
        <lane id="-615359751#0_0" index="0" disallow="tram rail_urban rail rail_electric ship" speed="5.55" length="64.62" shape="459.67,549.06 452.92,566.26 453.56,566.49 457.98,568.01 461.65,570.54 464.17,573.01"/>
    </edge>
    <edge id="-615359751#1" from="5819001489" to="5819001490" priority="4" type="highway.unclassified">
        <lane id="-615359751#1_0" index="0" disallow="tram rail_urban rail rail_electric ship" speed="5.55" length="15.18" shape="467.70,528.66 464.97,535.59"/>
    </edge>
    <edge id="-615359752#0" from="5819001491" to="5819001490" priority="4" type="highway.unclassified">
        <lane id="-615359752#0_0" index="0" disallow="tram rail_urban rail rail_electric ship" speed="5.55" length="11.26" shape="465.96,545.03 465.77,544.98"/>
    </edge>
    <edge id="-615359752#1" from="5819001492" to="5819001491" priority="4" type="highway.unclassified">
        <lane id="-615359752#1_0" index="0" disallow="tram rail_urban rail rail_electric ship" speed="5.55" length="7.80" shape="467.83,550.71 467.89,550.52"/>
    </edge>
    <edge id="-615359754" from="5819001493" to="5819001491" priority="4" type="highway.unclassified">
        <lane id="-615359754_0" index="0" disallow="tram rail_urban rail rail_electric ship" speed="5.55" length="16.87" shape="479.48,529.64 475.65,539.05"/>
    </edge>
    <edge id="-615359755" from="5819001497" to="5819001494" priority="4" type="highway.unclassified" shape="573.42,661.56 569.20,653.71 569.85,644.72 569.75,587.73">
        <lane id="-615359755_0" index="0" disallow="tram rail_urban rail rail_electric ship" speed="5.55" length="74.92" shape="572.01,662.32 567.57,654.06 568.25,644.66 568.16,595.41"/>
    </edge>
    <edge id="-615359761" from="5819001672" to="5819001424" priority="4" type="highway.unclassified">
        <lane id="-615359761_0" index="0" disallow="tram rail_urban rail rail_electric ship" speed="5.55" length="38.65" shape="407.50,408.99 396.38,412.16"/>
    </edge>
    <edge id="-635791722#0" from="201229452" to="cluster_201221409_3645240254_5996484329" priority="11" type="highway.secondary" shape="321.99,172.27 330.89,173.19 393.05,182.17">
        <lane id="-635791722#0_0" index="0" disallow="tram rail_urban rail rail_electric ship" speed="8.88" length="103.03" shape="322.63,167.51 331.48,168.43 393.74,177.42"/>
        <lane id="-635791722#0_1" index="1" disallow="tram rail_urban rail rail_electric ship" speed="8.88" length="103.03" shape="322.30,170.69 331.09,171.60 393.28,180.59"/>
    </edge>
    <edge id="-635791722#1" from="201364925" to="201229452" priority="11" type="highway.secondary">
        <lane id="-635791722#1_0" index="0" disallow="tram rail_urban rail rail_electric ship" speed="8.88" length="61.63" shape="261.00,162.21 322.26,167.48"/>
        <lane id="-635791722#1_1" index="1" disallow="tram rail_urban rail rail_electric ship" speed="8.88" length="61.63" shape="260.73,165.40 321.99,170.66"/>
    </edge>
    <edge id="-94669148#0" from="cluster_201484298_3646958907" to="201484338" priority="11" type="highway.secondary" shape="187.06,419.16 200.21,514.57 201.85,523.45 204.48,533.17 207.73,541.63 211.66,549.75 216.66,557.85 258.84,615.34 263.71,620.80 268.57,625.80">
        <lane id="-94669148#0_0" index="0" disallow="tram rail_urban rail rail_electric ship" speed="8.88" length="232.46" shape="192.78,425.49 204.95,513.81 206.53,522.39 209.05,531.68 212.14,539.72 215.87,547.44 220.64,555.17 262.57,612.32 264.43,614.40"/>
        <lane id="-94669148#0_1" index="1" disallow="tram rail_urban rail rail_electric ship" speed="8.88" length="232.46" shape="189.61,425.92 201.79,514.32 203.41,523.10 206.00,532.67 209.20,540.99 213.06,548.98 217.99,556.96 260.08,614.33 262.14,616.63"/>
    </edge>
    <edge id="-94669168#0" from="3649579543" to="201314878" priority="11" type="highway.secondary">
        <lane id="-94669168#0_0" index="0" disallow="tram rail_urban rail rail_electric ship" speed="8.88" length="10.06" shape="606.34,366.71 602.69,366.63"/>
        <lane id="-94669168#0_1" index="1" disallow="tram rail_urban rail rail_electric ship" speed="8.88" length="10.06" shape="606.41,363.51 602.76,363.43"/>
    </edge>
    <edge id="-94669168#1" from="201725091" to="3649579543" priority="11" type="highway.secondary">
        <lane id="-94669168#1_0" index="0" disallow="tram rail_urban rail rail_electric ship" speed="8.88" length="7.80" shape="613.91,367.28 606.43,366.71"/>
        <lane id="-94669168#1_1" index="1" disallow="tram rail_urban rail rail_electric ship" speed="8.88" length="7.80" shape="614.15,364.09 606.67,363.52"/>
    </edge>
    <edge id="-94669168#2" from="201374185" to="201725091" priority="11" type="highway.secondary" shape="677.79,373.31 621.64,363.37 614.40,362.50">
        <lane id="-94669168#2_0" index="0" disallow="tram rail_urban rail rail_electric ship" speed="8.88" length="64.32" shape="676.95,378.04 620.93,368.12 613.95,367.28"/>
        <lane id="-94669168#2_1" index="1" disallow="tram rail_urban rail rail_electric ship" speed="8.88" length="64.32" shape="677.51,374.89 621.40,364.95 614.34,364.10"/>
    </edge>
    <edge id="121787445" from="2846367222" to="201374158" priority="12" type="highway.primary" spreadType="center" shape="600.98,585.69 620.54,590.23 626.15,591.94 632.30,594.38 639.35,598.38">