<?xml version="1.0" encoding="UTF-8"?>

<!-- generated on 02.10.2019 14:27:43 by Eclipse SUMO netedit Version v1_3_1+0535-f8c85d5067
<configuration xmlns:xsi="http://www.w3.org/2001/XMLSchema-instance" xsi:noNamespaceSchemaLocation="http://sumo.dlr.de/xsd/netconvertConfiguration.xsd">

    <input>
        <sumo-net-file value="C:\Projects\sumo\tests\netedit\volatileRecomputing\sidewalks.guess\input_net.net.xml"/>
    </input>

    <output>
        <output-file value="C:\Projects\sumo\tests\netedit\volatileRecomputing\sidewalks.guess\input_net.net.xml"/>
        <plain-output-prefix value="C:\Projects\sumo\tests\netedit\volatileRecomputing\sidewalks.guess\input_net"/>
    </output>

    <processing>
        <geometry.max-grade.fix value="false"/>
        <offset.disable-normalization value="true"/>
        <lefthand value="false"/>
    </processing>

    <junctions>
        <no-turnarounds value="true"/>
        <junctions.corner-detail value="5"/>
        <junctions.limit-turn-speed value="5.5"/>
        <rectangular-lane-cut value="false"/>
    </junctions>

    <pedestrian>
        <walkingareas value="false"/>
    </pedestrian>

</configuration>
-->

<tlLogics version="1.3" xmlns:xsi="http://www.w3.org/2001/XMLSchema-instance" xsi:noNamespaceSchemaLocation="http://sumo.dlr.de/xsd/tllogic_file.xsd">
</tlLogics>
