<?xml version="1.0" encoding="UTF-8"?>

<!-- generated on 2022-06-01 14:17:57 by Eclipse SUMO netedit Version 1.13.0
-->

<routes xmlns:xsi="http://www.w3.org/2001/XMLSchema-instance" xsi:noNamespaceSchemaLocation="http://sumo.dlr.de/xsd/routes_file.xsd">
    <!-- Vehicles, persons and containers (sorted by depart) -->
    <flow id="a" begin="0.00" number="500" period="2" arrivalLane="0">
        <route edges="E0 E1 E2"/>
    </flow>
</routes>
