<?xml version="1.0" encoding="UTF-8"?>

<!-- generated on 2022-06-01 14:17:32 by Eclipse SUMO netedit Version 1.13.0
<configuration xmlns:xsi="http://www.w3.org/2001/XMLSchema-instance" xsi:noNamespaceSchemaLocation="http://sumo.dlr.de/xsd/netconvertConfiguration.xsd">

    <input>
        <sumo-net-file value="net2.net.xml"/>
    </input>

    <output>
        <output-file value="net2.net.xml"/>
    </output>

    <processing>
        <geometry.min-radius.fix.railways value="false"/>
        <geometry.max-grade.fix value="false"/>
        <offset.disable-normalization value="true"/>
        <lefthand value="false"/>
    </processing>

    <junctions>
        <no-turnarounds value="true"/>
        <junctions.corner-detail value="5"/>
        <junctions.limit-turn-speed value="5.5"/>
        <rectangular-lane-cut value="false"/>
    </junctions>

    <pedestrian>
        <walkingareas value="false"/>
    </pedestrian>

    <report>
        <aggregate-warnings value="5"/>
    </report>

</configuration>
-->

<net version="1.9" junctionCornerDetail="5" limitTurnSpeed="5.50" xmlns:xsi="http://www.w3.org/2001/XMLSchema-instance" xsi:noNamespaceSchemaLocation="http://sumo.dlr.de/xsd/net_file.xsd">

    <location netOffset="0.00,0.00" convBoundary="0.00,-100.00,210.00,100.00" origBoundary="-10000000000.00,-10000000000.00,10000000000.00,10000000000.00" projParameter="!"/>

    <edge id=":J1_0" function="internal">
        <lane id=":J1_0_0" index="0" speed="7.33" length="11.73" shape="98.40,4.00 98.75,0.15 99.80,-2.60 101.55,-4.25 104.00,-4.80"/>
        <lane id=":J1_0_1" index="1" speed="6.51" length="9.03" shape="98.40,4.00 98.75,1.55 99.80,-0.20 101.55,-1.25 104.00,-1.60"/>
    </edge>
    <edge id=":J1_2" function="internal">
        <lane id=":J1_2_0" index="0" speed="13.89" length="11.20" shape="92.80,-8.00 104.00,-8.00"/>
        <lane id=":J1_2_1" index="1" speed="13.89" length="11.20" shape="92.80,-4.80 104.00,-4.80"/>
        <lane id=":J1_2_2" index="2" speed="13.89" length="11.20" shape="92.80,-1.60 104.00,-1.60"/>
    </edge>
    <edge id=":J2_0" function="internal">
        <lane id=":J2_0_0" index="0" speed="6.51" length="9.03" shape="111.60,-13.60 111.95,-11.15 113.00,-9.40 114.75,-8.35 117.20,-8.00"/>
    </edge>
    <edge id=":J2_1" function="internal">
        <lane id=":J2_1_0" index="0" speed="13.89" length="11.20" shape="106.00,-8.00 117.20,-8.00"/>
        <lane id=":J2_1_1" index="1" speed="13.89" length="11.20" shape="106.00,-4.80 117.20,-4.80"/>
        <lane id=":J2_1_2" index="2" speed="13.89" length="11.20" shape="106.00,-1.60 117.20,-1.60"/>
    </edge>

    <edge id="E0" from="J0" to="J1" priority="-1">
        <lane id="E0_0" index="0" speed="13.89" length="92.80" shape="0.00,-8.00 92.80,-8.00"/>
        <lane id="E0_1" index="1" speed="13.89" length="92.80" shape="0.00,-4.80 92.80,-4.80"/>
        <lane id="E0_2" index="2" speed="13.89" length="92.80" shape="0.00,-1.60 92.80,-1.60"/>
    </edge>
    <edge id="E1" from="J1" to="J2" priority="-1">
        <lane id="E1_0" index="0" speed="13.89" length="2.00" shape="104.00,-8.00 106.00,-8.00"/>
        <lane id="E1_1" index="1" speed="13.89" length="2.00" shape="104.00,-4.80 106.00,-4.80"/>
        <lane id="E1_2" index="2" speed="13.89" length="2.00" shape="104.00,-1.60 106.00,-1.60"/>
    </edge>
    <edge id="E2" from="J2" to="J3" priority="-1">
        <lane id="E2_0" index="0" speed="13.89" length="92.80" shape="117.20,-8.00 210.00,-8.00"/>
        <lane id="E2_1" index="1" speed="13.89" length="92.80" shape="117.20,-4.80 210.00,-4.80"/>
        <lane id="E2_2" index="2" speed="13.89" length="92.80" shape="117.20,-1.60 210.00,-1.60"/>
    </edge>
    <edge id="E3" from="J4" to="J1" priority="-1">
        <lane id="E3_0" index="0" speed="13.89" length="96.00" shape="98.40,100.00 98.40,4.00"/>
    </edge>
    <edge id="E4" from="J5" to="J2" priority="-1">
        <lane id="E4_0" index="0" speed="13.89" length="86.40" shape="111.60,-100.00 111.60,-13.60"/>
    </edge>

    <tlLogic id="T0" type="actuated" programID="0" offset="0">
        <phase duration="27" state="rrrrrGrrr" minDur="5" maxDur="50"/>
        <phase duration="3"  state="rrrrryrrr"/>
        <phase duration="27" state="rrGGGrGGG" minDur="5" maxDur="50"/>
        <phase duration="3"  state="rryyyryyy"/>
        <phase duration="27" state="GGrrrrGGG" minDur="5" maxDur="50"/>
        <phase duration="3"  state="yyrrrryyy"/>
    </tlLogic>

    <junction id="J0" type="dead_end" x="0.00" y="0.00" incLanes="" intLanes="" shape="0.00,0.00 0.00,-9.60"/>
    <junction id="J1" type="traffic_light" x="100.00" y="0.00" incLanes="E3_0 E0_0 E0_1 E0_2" intLanes=":J1_0_0 :J1_0_1 :J1_2_0 :J1_2_1 :J1_2_2" shape="96.80,4.00 100.00,4.00 100.44,1.78 101.00,1.00 101.78,0.44 102.78,0.11 104.00,0.00 104.00,-9.60 92.80,-9.60 92.80,0.00 95.02,0.44 95.80,1.00 96.36,1.78 96.69,2.78">
        <request index="0" response="11100" foes="11100" cont="0"/>
        <request index="1" response="11100" foes="11100" cont="0"/>
        <request index="2" response="00000" foes="00011" cont="0"/>
        <request index="3" response="00000" foes="00011" cont="0"/>
        <request index="4" response="00000" foes="00011" cont="0"/>
    </junction>
    <junction id="J2" type="traffic_light" x="110.00" y="0.00" incLanes="E4_0 E1_0 E1_1 E1_2" intLanes=":J2_0_0 :J2_1_0 :J2_1_1 :J2_1_2" shape="117.20,0.00 117.20,-9.60 114.98,-10.04 114.20,-10.60 113.64,-11.38 113.31,-12.38 113.20,-13.60 110.00,-13.60 109.56,-11.38 109.00,-10.60 108.22,-10.04 107.22,-9.71 106.00,-9.60 106.00,0.00">
        <request index="0" response="1110" foes="1110" cont="0"/>
        <request index="1" response="0000" foes="0001" cont="0"/>
        <request index="2" response="0000" foes="0001" cont="0"/>
        <request index="3" response="0000" foes="0001" cont="0"/>
    </junction>
    <junction id="J3" type="dead_end" x="210.00" y="0.00" incLanes="E2_0 E2_1 E2_2" intLanes="" shape="210.00,-9.60 210.00,0.00"/>
    <junction id="J4" type="dead_end" x="100.00" y="100.00" incLanes="" intLanes="" shape="100.00,100.00 96.80,100.00"/>
    <junction id="J5" type="dead_end" x="110.00" y="-100.00" incLanes="" intLanes="" shape="110.00,-100.00 113.20,-100.00"/>

    <connection from="E0" to="E1" fromLane="0" toLane="0" via=":J1_2_0" tl="T0" linkIndex="2" dir="s" state="O"/>
    <connection from="E0" to="E1" fromLane="1" toLane="1" via=":J1_2_1" tl="T0" linkIndex="3" dir="s" state="O"/>
    <connection from="E0" to="E1" fromLane="2" toLane="2" via=":J1_2_2" tl="T0" linkIndex="4" dir="s" state="O"/>
    <connection from="E1" to="E2" fromLane="0" toLane="0" via=":J2_1_0" tl="T0" linkIndex="6" dir="s" state="O"/>
    <connection from="E1" to="E2" fromLane="1" toLane="1" via=":J2_1_1" tl="T0" linkIndex="7" dir="s" state="O"/>
    <connection from="E1" to="E2" fromLane="2" toLane="2" via=":J2_1_2" tl="T0" linkIndex="8" dir="s" state="O"/>
    <connection from="E3" to="E1" fromLane="0" toLane="1" via=":J1_0_0" tl="T0" linkIndex="0" dir="l" state="o"/>
    <connection from="E3" to="E1" fromLane="0" toLane="2" via=":J1_0_1" tl="T0" linkIndex="1" dir="l" state="o"/>
    <connection from="E4" to="E2" fromLane="0" toLane="0" via=":J2_0_0" tl="T0" linkIndex="5" dir="r" state="o"/>

    <connection from=":J1_0" to="E1" fromLane="0" toLane="1" dir="l" state="M"/>
    <connection from=":J1_0" to="E1" fromLane="1" toLane="2" dir="l" state="M"/>
    <connection from=":J1_2" to="E1" fromLane="0" toLane="0" dir="s" state="M"/>
    <connection from=":J1_2" to="E1" fromLane="1" toLane="1" dir="s" state="M"/>
    <connection from=":J1_2" to="E1" fromLane="2" toLane="2" dir="s" state="M"/>
    <connection from=":J2_0" to="E2" fromLane="0" toLane="0" dir="r" state="M"/>
    <connection from=":J2_1" to="E2" fromLane="0" toLane="0" dir="s" state="M"/>
    <connection from=":J2_1" to="E2" fromLane="1" toLane="1" dir="s" state="M"/>
    <connection from=":J2_1" to="E2" fromLane="2" toLane="2" dir="s" state="M"/>

</net>
