<?xml version="1.0" encoding="UTF-8"?>

<!-- generated on Thu Dec 12 07:35:29 2013 by SUMO netgenerate Version dev-SVN-r15319
<?xml version="1.0" encoding="UTF-8"?>

<configuration xmlns:xsi="http://www.w3.org/2001/XMLSchema-instance" xsi:noNamespaceSchemaLocation="http://sumo-sim.org/xsd/netgenerateConfiguration.xsd">

    <random_network>
        <rand value="true"/>
        <rand.iterations value="200"/>
    </random_network>

    <output>
        <output-file value="net.net.xml"/>
    </output>

    <report>
        <verbose value="true"/>
    </report>

</configuration>
-->

<net version="0.13" xmlns:xsi="http://www.w3.org/2001/XMLSchema-instance" xsi:noNamespaceSchemaLocation="http://sumo-sim.org/xsd/net_file.xsd">

    <location netOffset="1263.68,1880.98" convBoundary="0.00,0.00,2463.28,3477.43" origBoundary="-1263.68,-1880.98,1199.60,1596.45" projParameter="!"/>

    <edge id=":1_0" function="internal">
        <lane id=":1_0_0" index="0" speed="13.90" length="5.38" shape="1262.12,1886.84 1261.88,1885.32 1261.21,1884.38 1260.11,1884.04 1258.59,1884.28"/>
    </edge>
    <edge id=":1_1" function="internal">
        <lane id=":1_1_0" index="0" speed="13.90" length="9.96" shape="1262.12,1886.84 1261.01,1876.94"/>
    </edge>
    <edge id=":1_2" function="internal">
        <lane id=":1_2_0" index="0" speed="13.90" length="7.57" shape="1262.12,1886.84 1262.49,1883.54 1263.70,1881.22 1265.07,1880.33"/>
    </edge>
    <edge id=":1_3" function="internal">
        <lane id=":1_3_0" index="0" speed="13.90" length="2.41" shape="1262.12,1886.84 1262.93,1885.59 1263.75,1885.16"/>
    </edge>
    <edge id=":1_16" function="internal">
        <lane id=":1_16_0" index="0" speed="13.90" length="3.76" shape="1265.07,1880.33 1265.76,1879.88 1268.67,1879.51"/>
    </edge>
    <edge id=":1_17" function="internal">
        <lane id=":1_17_0" index="0" speed="13.90" length="2.41" shape="1263.75,1885.16 1264.58,1885.56 1265.42,1886.79"/>
    </edge>
    <edge id=":1_4" function="internal">
        <lane id=":1_4_0" index="0" speed="13.90" length="5.81" shape="1268.54,1882.81 1267.15,1883.01 1266.17,1883.74 1265.59,1885.00 1265.42,1886.79"/>
    </edge>
    <edge id=":1_5" function="internal">
        <lane id=":1_5_0" index="0" speed="13.90" length="10.15" shape="1268.54,1882.81 1265.55,1882.75 1263.48,1882.92 1261.46,1883.40 1258.59,1884.28"/>
    </edge>
    <edge id=":1_6" function="internal">
        <lane id=":1_6_0" index="0" speed="13.90" length="10.35" shape="1268.54,1882.81 1265.76,1882.36 1263.57,1881.23 1261.99,1879.42 1261.01,1876.94"/>
    </edge>
    <edge id=":1_7" function="internal">
        <lane id=":1_7_0" index="0" speed="13.90" length="4.82" shape="1268.54,1882.81 1267.34,1881.94 1266.96,1881.10 1267.40,1880.29 1268.67,1879.51"/>
    </edge>
    <edge id=":1_8" function="internal">
        <lane id=":1_8_0" index="0" speed="13.90" length="6.03" shape="1264.22,1876.17 1264.79,1877.58 1265.72,1878.61 1267.01,1879.25 1268.67,1879.51"/>
    </edge>
    <edge id=":1_9" function="internal">
        <lane id=":1_9_0" index="0" speed="13.90" length="10.72" shape="1264.22,1876.17 1264.89,1879.18 1265.23,1881.43 1265.37,1883.70 1265.42,1886.79"/>
    </edge>
    <edge id=":1_10" function="internal">
        <lane id=":1_10_0" index="0" speed="13.90" length="7.68" shape="1264.22,1876.17 1264.40,1878.90 1263.53,1881.16 1261.68,1882.87"/>
    </edge>
    <edge id=":1_11" function="internal">
        <lane id=":1_11_0" index="0" speed="13.90" length="2.41" shape="1264.22,1876.17 1263.71,1877.57 1263.00,1878.16"/>
    </edge>
    <edge id=":1_18" function="internal">
        <lane id=":1_18_0" index="0" speed="13.90" length="3.40" shape="1261.68,1882.87 1261.59,1882.95 1258.59,1884.28"/>
    </edge>
    <edge id=":1_19" function="internal">
        <lane id=":1_19_0" index="0" speed="13.90" length="2.41" shape="1263.00,1878.16 1262.11,1877.95 1261.01,1876.94"/>
    </edge>
    <edge id=":1_12" function="internal">
        <lane id=":1_12_0" index="0" speed="13.90" length="6.02" shape="1257.61,1881.13 1259.36,1880.39 1260.51,1879.45 1261.06,1878.30 1261.01,1876.94"/>
    </edge>
    <edge id=":1_13" function="internal">
        <lane id=":1_13_0" index="0" speed="13.90" length="11.25" shape="1257.61,1881.13 1260.65,1880.23 1263.06,1879.69 1265.50,1879.48 1268.67,1879.51"/>
    </edge>
    <edge id=":1_14" function="internal">
        <lane id=":1_14_0" index="0" speed="13.90" length="11.91" shape="1257.61,1881.13 1260.98,1880.59 1263.41,1881.35 1264.89,1883.42 1265.42,1886.79"/>
    </edge>
    <edge id=":1_15" function="internal">
        <lane id=":1_15_0" index="0" speed="13.90" length="4.82" shape="1257.61,1881.13 1259.04,1881.55 1259.68,1882.22 1259.53,1883.13 1258.59,1884.28"/>
    </edge>
    <edge id=":10_0" function="internal">
        <lane id=":10_0_0" index="0" speed="13.90" length="5.98" shape="1102.20,1939.04 1101.41,1937.39 1100.45,1936.72 1099.32,1937.03 1098.02,1938.31"/>
    </edge>
    <edge id=":10_1" function="internal">
        <lane id=":10_1_0" index="0" speed="13.90" length="11.10" shape="1102.20,1939.04 1101.22,1936.01 1100.32,1933.75 1098.99,1931.78 1096.72,1929.65"/>
    </edge>
    <edge id=":10_2" function="internal">
        <lane id=":10_2_0" index="0" speed="13.90" length="8.41" shape="1102.20,1939.04 1101.31,1935.08 1101.57,1931.97 1102.22,1930.92"/>
    </edge>
    <edge id=":10_3" function="internal">
        <lane id=":10_3_0" index="0" speed="13.90" length="2.41" shape="1102.20,1939.04 1102.59,1937.60 1103.25,1936.95"/>
    </edge>
    <edge id=":10_16" function="internal">
        <lane id=":10_16_0" index="0" speed="13.90" length="4.29" shape="1102.22,1930.92 1102.96,1929.72 1105.49,1928.33"/>
    </edge>
    <edge id=":10_17" function="internal">
        <lane id=":10_17_0" index="0" speed="13.90" length="2.41" shape="1103.25,1936.95 1104.16,1937.08 1105.33,1938.00"/>
    </edge>
    <edge id=":10_4" function="internal">
        <lane id=":10_4_0" index="0" speed="13.90" length="7.37" shape="1106.47,1931.49 1105.28,1932.24 1104.69,1933.58 1104.71,1935.50 1105.33,1938.00"/>
    </edge>
    <edge id=":10_5" function="internal">
        <lane id=":10_5_0" index="0" speed="13.90" length="11.13" shape="1106.47,1931.49 1103.57,1932.62 1101.61,1933.98 1099.97,1935.79 1098.02,1938.31"/>
    </edge>
    <edge id=":10_6" function="internal">
        <lane id=":10_6_0" index="0" speed="13.90" length="10.36" shape="1106.47,1931.49 1103.82,1932.00 1101.31,1931.87 1098.94,1931.09 1096.72,1929.65"/>
    </edge>
    <edge id=":10_7" function="internal">
        <lane id=":10_7_0" index="0" speed="13.90" length="4.82" shape="1106.47,1931.49 1105.05,1931.07 1104.41,1930.40 1104.56,1929.49 1105.49,1928.33"/>
    </edge>
    <edge id=":10_8" function="internal">
        <lane id=":10_8_0" index="0" speed="13.90" length="7.10" shape="1098.80,1927.09 1100.33,1928.07 1101.95,1928.61 1103.67,1928.69 1105.49,1928.33"/>
    </edge>
    <edge id=":10_9" function="internal">
        <lane id=":10_9_0" index="0" speed="13.90" length="12.92" shape="1098.80,1927.09 1101.24,1929.46 1102.93,1931.95 1104.19,1934.74 1105.33,1938.00"/>
    </edge>
    <edge id=":10_10" function="internal">
        <lane id=":10_10_0" index="0" speed="13.90" length="7.71" shape="1098.80,1927.09 1100.59,1929.29 1101.05,1931.89 1100.44,1934.04"/>
    </edge>
    <edge id=":10_11" function="internal">
        <lane id=":10_11_0" index="0" speed="13.90" length="2.41" shape="1098.80,1927.09 1099.24,1928.52 1099.04,1929.42"/>
    </edge>
    <edge id=":10_18" function="internal">
        <lane id=":10_18_0" index="0" speed="13.90" length="4.93" shape="1100.44,1934.04 1100.19,1934.90 1098.02,1938.31"/>
    </edge>
    <edge id=":10_19" function="internal">
        <lane id=":10_19_0" index="0" speed="13.90" length="2.41" shape="1099.04,1929.42 1098.20,1929.79 1096.72,1929.65"/>
    </edge>
    <edge id=":10_12" function="internal">
        <lane id=":10_12_0" index="0" speed="13.90" length="7.45" shape="1095.42,1936.27 1096.88,1934.10 1097.58,1932.28 1097.53,1930.79 1096.72,1929.65"/>
    </edge>
    <edge id=":10_13" function="internal">
        <lane id=":10_13_0" index="0" speed="13.90" length="13.06" shape="1095.42,1936.27 1097.63,1933.58 1099.83,1931.38 1102.34,1929.65 1105.49,1928.33"/>
    </edge>
    <edge id=":10_14" function="internal">
        <lane id=":10_14_0" index="0" speed="13.90" length="14.19" shape="1095.42,1936.27 1098.51,1933.24 1101.18,1932.52 1103.46,1934.10 1105.33,1938.00"/>
    </edge>
    <edge id=":10_15" function="internal">
        <lane id=":10_15_0" index="0" speed="13.90" length="4.82" shape="1095.42,1936.27 1096.84,1935.81 1097.74,1935.99 1098.14,1936.82 1098.02,1938.31"/>
    </edge>
    <edge id=":1004_0" function="internal">
        <lane id=":1004_0_0" index="0" speed="13.90" length="4.66" shape="1124.80,2182.33 1123.59,2182.12 1122.51,2182.29 1121.56,2182.84 1120.74,2183.76"/>
    </edge>
    <edge id=":1004_1" function="internal">
        <lane id=":1004_1_0" index="0" speed="13.90" length="8.28" shape="1124.80,2182.33 1118.08,2177.49"/>
    </edge>
    <edge id=":1004_2" function="internal">
        <lane id=":1004_2_0" index="0" speed="13.90" length="2.41" shape="1124.80,2182.33 1123.86,2181.18 1123.70,2180.27"/>
    </edge>
    <edge id=":1004_9" function="internal">
        <lane id=":1004_9_0" index="0" speed="13.90" length="2.41" shape="1123.70,2180.27 1124.34,2179.60 1125.76,2179.17"/>
    </edge>
    <edge id=":1004_3" function="internal">
        <lane id=":1004_3_0" index="0" speed="13.90" length="6.11" shape="1120.80,2175.61 1125.76,2179.17"/>
    </edge>
    <edge id=":1004_4" function="internal">
        <lane id=":1004_4_0" index="0" speed="13.90" length="5.02" shape="1120.80,2175.61 1121.83,2177.62 1122.16,2179.65 1122.04,2180.34"/>
    </edge>
    <edge id=":1004_5" function="internal">
        <lane id=":1004_5_0" index="0" speed="13.90" length="2.41" shape="1120.80,2175.61 1120.82,2177.10 1120.38,2177.91"/>
    </edge>
    <edge id=":1004_10" function="internal">
        <lane id=":1004_10_0" index="0" speed="13.90" length="3.70" shape="1122.04,2180.34 1121.80,2181.69 1120.74,2183.76"/>
    </edge>
    <edge id=":1004_11" function="internal">
        <lane id=":1004_11_0" index="0" speed="13.90" length="2.41" shape="1120.38,2177.91 1119.46,2178.04 1118.08,2177.49"/>
    </edge>
    <edge id=":1004_6" function="internal">
        <lane id=":1004_6_0" index="0" speed="13.90" length="4.72" shape="1118.01,2181.90 1118.59,2180.77 1118.80,2179.66 1118.63,2178.56 1118.08,2177.49"/>
    </edge>
    <edge id=":1004_7" function="internal">
        <lane id=":1004_7_0" index="0" speed="13.90" length="8.88" shape="1118.01,2181.90 1119.57,2180.15 1121.38,2179.11 1123.45,2178.78 1125.76,2179.17"/>
    </edge>
    <edge id=":1004_8" function="internal">
        <lane id=":1004_8_0" index="0" speed="13.90" length="4.82" shape="1118.01,2181.90 1119.39,2181.35 1120.30,2181.47 1120.75,2182.27 1120.74,2183.76"/>
    </edge>
    <edge id=":1010_0" function="internal">
        <lane id=":1010_0_0" index="0" speed="13.90" length="14.71" shape="1153.17,2439.79 1151.33,2442.68 1148.74,2444.91 1145.41,2446.50 1141.34,2447.45"/>
    </edge>
    <edge id=":1010_1" function="internal">
        <lane id=":1010_1_0" index="0" speed="13.90" length="9.55" shape="1153.17,2439.79 1151.15,2442.72 1148.66,2443.76 1145.68,2442.92 1145.53,2442.80"/>
    </edge>
    <edge id=":1010_2" function="internal">
        <lane id=":1010_2_0" index="0" speed="13.90" length="2.41" shape="1153.17,2439.79 1151.90,2440.57 1150.98,2440.60"/>
    </edge>
    <edge id=":1010_9" function="internal">
        <lane id=":1010_9_0" index="0" speed="13.90" length="4.22" shape="1145.53,2442.80 1142.21,2440.19"/>
    </edge>
    <edge id=":1010_10" function="internal">
        <lane id=":1010_10_0" index="0" speed="13.90" length="2.41" shape="1150.98,2440.60 1150.40,2439.88 1150.17,2438.42"/>
    </edge>
    <edge id=":1010_3" function="internal">
        <lane id=":1010_3_0" index="0" speed="13.90" length="6.97" shape="1144.54,2437.85 1146.41,2439.39 1147.97,2440.00 1149.22,2439.67 1150.17,2438.42"/>
    </edge>
    <edge id=":1010_4" function="internal">
        <lane id=":1010_4_0" index="0" speed="13.90" length="14.85" shape="1144.54,2437.85 1147.37,2441.46 1147.79,2444.26 1145.78,2446.26 1141.34,2447.45"/>
    </edge>
    <edge id=":1010_5" function="internal">
        <lane id=":1010_5_0" index="0" speed="13.90" length="4.82" shape="1144.54,2437.85 1144.83,2439.31 1144.55,2440.18 1143.67,2440.48 1142.21,2440.19"/>
    </edge>
    <edge id=":1010_6" function="internal">
        <lane id=":1010_6_0" index="0" speed="13.90" length="6.16" shape="1140.89,2444.18 1142.73,2443.68 1143.56,2442.86 1143.39,2441.69 1142.21,2440.19"/>
    </edge>
    <edge id=":1010_7" function="internal">
        <lane id=":1010_7_0" index="0" speed="13.90" length="11.40" shape="1140.89,2444.18 1144.13,2443.45 1146.75,2442.24 1148.77,2440.57 1150.17,2438.42"/>
    </edge>
    <edge id=":1010_8" function="internal">
        <lane id=":1010_8_0" index="0" speed="13.90" length="2.41" shape="1140.89,2444.18 1142.23,2444.82 1142.75,2445.58"/>
    </edge>
    <edge id=":1010_11" function="internal">
        <lane id=":1010_11_0" index="0" speed="13.90" length="2.41" shape="1142.75,2445.58 1142.46,2446.46 1141.34,2447.45"/>
    </edge>
    <edge id=":1026_0" function="internal">
        <lane id=":1026_0_0" index="0" speed="13.90" length="4.98" shape="974.13,2078.82 973.75,2077.52 973.04,2076.64 972.00,2076.20 970.64,2076.18"/>
    </edge>
    <edge id=":1026_1" function="internal">
        <lane id=":1026_1_0" index="0" speed="13.90" length="9.15" shape="974.13,2078.82 973.74,2069.68"/>
    </edge>
    <edge id=":1026_2" function="internal">
        <lane id=":1026_2_0" index="0" speed="13.90" length="2.41" shape="974.13,2078.82 974.77,2077.48 975.52,2076.95"/>
    </edge>
    <edge id=":1026_9" function="internal">
        <lane id=":1026_9_0" index="0" speed="13.90" length="2.41" shape="975.52,2076.95 976.40,2077.24 977.40,2078.34"/>
    </edge>
    <edge id=":1026_3" function="internal">
        <lane id=":1026_3_0" index="0" speed="13.90" length="8.43" shape="977.03,2069.92 977.40,2078.34"/>
    </edge>
    <edge id=":1026_4" function="internal">
        <lane id=":1026_4_0" index="0" speed="13.90" length="6.26" shape="977.03,2069.92 976.48,2072.37 975.23,2074.23 973.97,2075.05"/>
    </edge>
    <edge id=":1026_5" function="internal">
        <lane id=":1026_5_0" index="0" speed="13.90" length="2.41" shape="977.03,2069.92 976.11,2071.09 975.26,2071.44"/>
    </edge>
    <edge id=":1026_10" function="internal">
        <lane id=":1026_10_0" index="0" speed="13.90" length="3.55" shape="973.97,2075.05 973.28,2075.50 970.64,2076.18"/>
    </edge>
    <edge id=":1026_11" function="internal">
        <lane id=":1026_11_0" index="0" speed="13.90" length="2.41" shape="975.26,2071.44 974.47,2070.97 973.74,2069.68"/>
    </edge>
    <edge id=":1026_6" function="internal">
        <lane id=":1026_6_0" index="0" speed="13.90" length="5.22" shape="970.22,2072.90 971.68,2072.54 972.76,2071.88 973.44,2070.93 973.74,2069.68"/>
    </edge>
    <edge id=":1026_7" function="internal">
        <lane id=":1026_7_0" index="0" speed="13.90" length="10.22" shape="970.22,2072.90 973.02,2072.94 975.14,2073.86 976.60,2075.66 977.40,2078.34"/>
    </edge>
    <edge id=":1026_8" function="internal">
        <lane id=":1026_8_0" index="0" speed="13.90" length="4.82" shape="970.22,2072.90 971.55,2073.56 972.07,2074.33 971.76,2075.20 970.64,2076.18"/>
    </edge>
    <edge id=":1056_0" function="internal">
        <lane id=":1056_0_0" index="0" speed="13.90" length="8.76" shape="1846.34,1429.15 1845.50,1431.45 1844.14,1432.82 1842.26,1433.25 1839.86,1432.74"/>
    </edge>
    <edge id=":1056_1" function="internal">
        <lane id=":1056_1_0" index="0" speed="13.90" length="2.41" shape="1846.34,1429.15 1845.28,1430.19 1844.39,1430.42"/>
    </edge>
    <edge id=":1056_4" function="internal">
        <lane id=":1056_4_0" index="0" speed="13.90" length="2.41" shape="1844.39,1430.42 1843.66,1429.85 1843.11,1428.47"/>
    </edge>
    <edge id=":1056_2" function="internal">
        <lane id=":1056_2_0" index="0" speed="13.90" length="2.86" shape="1840.99,1429.64 1841.78,1429.81 1842.39,1429.67 1842.83,1429.22 1843.11,1428.47"/>
    </edge>
    <edge id=":1056_3" function="internal">
        <lane id=":1056_3_0" index="0" speed="13.90" length="2.41" shape="1840.99,1429.64 1841.87,1430.84 1841.97,1431.76"/>
    </edge>
    <edge id=":1056_5" function="internal">
        <lane id=":1056_5_0" index="0" speed="13.90" length="2.41" shape="1841.97,1431.76 1841.30,1432.39 1839.86,1432.74"/>
    </edge>
    <edge id=":1092_0" function="internal">
        <lane id=":1092_0_0" index="0" speed="13.90" length="13.72" shape="1026.75,2325.81 1024.56,2323.08 1023.11,2320.13 1022.11,2316.94 1021.26,2313.45"/>
    </edge>
    <edge id=":1092_1" function="internal">
        <lane id=":1092_1_0" index="0" speed="13.90" length="7.70" shape="1026.75,2325.81 1025.38,2323.56 1025.22,2320.75 1025.89,2318.61"/>
    </edge>
    <edge id=":1092_2" function="internal">
        <lane id=":1092_2_0" index="0" speed="13.90" length="2.41" shape="1026.75,2325.81 1026.46,2324.35 1026.74,2323.48"/>
    </edge>
    <edge id=":1092_9" function="internal">
        <lane id=":1092_9_0" index="0" speed="13.90" length="5.84" shape="1025.89,2318.61 1026.28,2317.37 1028.55,2313.43"/>
    </edge>
    <edge id=":1092_10" function="internal">
        <lane id=":1092_10_0" index="0" speed="13.90" length="2.41" shape="1026.74,2323.48 1027.62,2323.18 1029.08,2323.46"/>
    </edge>
    <edge id=":1092_3" function="internal">
        <lane id=":1092_3_0" index="0" speed="13.90" length="8.99" shape="1031.27,2315.29 1029.56,2318.12 1028.62,2320.42 1028.46,2322.21 1029.08,2323.46"/>
    </edge>
    <edge id=":1092_4" function="internal">
        <lane id=":1092_4_0" index="0" speed="13.90" length="15.87" shape="1031.27,2315.29 1027.99,2319.07 1025.23,2320.03 1022.99,2318.16 1021.26,2313.45"/>
    </edge>
    <edge id=":1092_5" function="internal">
        <lane id=":1092_5_0" index="0" speed="13.90" length="4.82" shape="1031.27,2315.29 1029.90,2315.84 1028.98,2315.72 1028.53,2314.92 1028.55,2313.43"/>
    </edge>
    <edge id=":1092_6" function="internal">
        <lane id=":1092_6_0" index="0" speed="13.90" length="6.46" shape="1024.47,2312.68 1025.18,2314.60 1026.09,2315.36 1027.21,2314.97 1028.55,2313.43"/>
    </edge>
    <edge id=":1092_7" function="internal">
        <lane id=":1092_7_0" index="0" speed="13.90" length="11.94" shape="1024.47,2312.68 1025.18,2315.92 1025.88,2318.58 1027.02,2320.98 1029.08,2323.46"/>
    </edge>
    <edge id=":1092_8" function="internal">
        <lane id=":1092_8_0" index="0" speed="13.90" length="2.41" shape="1024.47,2312.68 1023.96,2314.08 1023.25,2314.67"/>
    </edge>
    <edge id=":1092_11" function="internal">
        <lane id=":1092_11_0" index="0" speed="13.90" length="2.41" shape="1023.25,2314.67 1022.36,2314.46 1021.26,2313.45"/>
    </edge>
    <edge id=":115_0" function="internal">
        <lane id=":115_0_0" index="0" speed="13.90" length="5.82" shape="1434.67,1571.58 1433.69,1570.13 1432.65,1569.61 1431.56,1570.00 1430.40,1571.31"/>
    </edge>
    <edge id=":115_1" function="internal">
        <lane id=":115_1_0" index="0" speed="13.90" length="11.00" shape="1434.67,1571.58 1433.10,1569.03 1431.22,1567.05 1429.03,1565.62 1426.52,1564.75"/>
    </edge>
    <edge id=":115_2" function="internal">
        <lane id=":115_2_0" index="0" speed="13.90" length="2.41" shape="1434.67,1571.58 1434.85,1570.10 1435.41,1569.37"/>
    </edge>
    <edge id=":115_9" function="internal">
        <lane id=":115_9_0" index="0" speed="13.90" length="2.41" shape="1435.41,1569.37 1436.33,1569.37 1437.62,1570.11"/>
    </edge>
    <edge id=":115_3" function="internal">
        <lane id=":115_3_0" index="0" speed="13.90" length="13.94" shape="1427.23,1561.52 1430.46,1562.63 1433.26,1564.43 1435.65,1566.92 1437.62,1570.11"/>
    </edge>
    <edge id=":115_4" function="internal">
        <lane id=":115_4_0" index="0" speed="13.90" length="9.33" shape="1427.23,1561.52 1430.60,1562.84 1432.25,1564.91 1432.19,1567.73 1432.08,1567.95"/>
    </edge>
    <edge id=":115_5" function="internal">
        <lane id=":115_5_0" index="0" speed="13.90" length="2.41" shape="1427.23,1561.52 1428.26,1562.60 1428.49,1563.49"/>
    </edge>
    <edge id=":115_10" function="internal">
        <lane id=":115_10_0" index="0" speed="13.90" length="3.75" shape="1432.08,1567.95 1430.40,1571.31"/>
    </edge>
    <edge id=":115_11" function="internal">
        <lane id=":115_11_0" index="0" speed="13.90" length="2.41" shape="1428.49,1563.49 1427.90,1564.21 1426.52,1564.75"/>
    </edge>
    <edge id=":115_6" function="internal">
        <lane id=":115_6_0" index="0" speed="13.90" length="6.16" shape="1427.66,1569.48 1428.56,1567.72 1428.68,1566.34 1427.99,1565.35 1426.52,1564.75"/>
    </edge>
    <edge id=":115_7" function="internal">
        <lane id=":115_7_0" index="0" speed="13.90" length="13.59" shape="1427.66,1569.48 1430.35,1566.42 1432.91,1565.50 1435.33,1566.73 1437.62,1570.11"/>
    </edge>
    <edge id=":115_8" function="internal">
        <lane id=":115_8_0" index="0" speed="13.90" length="4.82" shape="1427.66,1569.48 1429.03,1568.91 1429.95,1569.02 1430.40,1569.82 1430.40,1571.31"/>
    </edge>
    <edge id=":118_0" function="internal">
        <lane id=":118_0_0" index="0" speed="13.90" length="12.40" shape="1037.38,1558.94 1034.18,1559.83 1031.35,1560.16 1028.48,1560.11 1025.13,1559.89"/>
    </edge>
    <edge id=":118_1" function="internal">
        <lane id=":118_1_0" index="0" speed="13.90" length="7.40" shape="1037.38,1558.94 1034.82,1559.25 1032.33,1558.36 1030.68,1556.95"/>
    </edge>
    <edge id=":118_2" function="internal">
        <lane id=":118_2_0" index="0" speed="13.90" length="2.41" shape="1037.38,1558.94 1035.94,1558.57 1035.28,1557.93"/>
    </edge>
    <edge id=":118_9" function="internal">
        <lane id=":118_9_0" index="0" speed="13.90" length="5.07" shape="1030.68,1556.95 1029.91,1556.28 1027.56,1552.99"/>
    </edge>
    <edge id=":118_10" function="internal">
        <lane id=":118_10_0" index="0" speed="13.90" length="2.41" shape="1035.28,1557.93 1035.40,1557.02 1036.29,1555.83"/>
    </edge>
    <edge id=":118_3" function="internal">
        <lane id=":118_3_0" index="0" speed="13.90" length="7.95" shape="1030.39,1551.30 1031.98,1553.63 1033.49,1555.16 1034.93,1555.89 1036.29,1555.83"/>
    </edge>
    <edge id=":118_4" function="internal">
        <lane id=":118_4_0" index="0" speed="13.90" length="14.37" shape="1030.39,1551.30 1032.14,1555.33 1031.85,1558.10 1029.51,1559.62 1025.13,1559.89"/>
    </edge>
    <edge id=":118_5" function="internal">
        <lane id=":118_5_0" index="0" speed="13.90" length="4.82" shape="1030.39,1551.30 1030.32,1552.79 1029.82,1553.56 1028.90,1553.63 1027.56,1552.99"/>
    </edge>
    <edge id=":118_6" function="internal">
        <lane id=":118_6_0" index="0" speed="13.90" length="6.03" shape="1025.35,1556.60 1027.19,1556.48 1028.17,1555.85 1028.29,1554.68 1027.56,1552.99"/>
    </edge>
    <edge id=":118_7" function="internal">
        <lane id=":118_7_0" index="0" speed="13.90" length="11.09" shape="1025.35,1556.60 1028.50,1556.85 1030.92,1556.96 1033.29,1556.69 1036.29,1555.83"/>
    </edge>
    <edge id=":118_8" function="internal">
        <lane id=":118_8_0" index="0" speed="13.90" length="2.41" shape="1025.35,1556.60 1026.53,1557.50 1026.88,1558.35"/>
    </edge>
    <edge id=":118_11" function="internal">
        <lane id=":118_11_0" index="0" speed="13.90" length="2.41" shape="1026.88,1558.35 1026.42,1559.15 1025.13,1559.89"/>
    </edge>
    <edge id=":1198_0" function="internal">
        <lane id=":1198_0_0" index="0" speed="13.90" length="0.43" shape="988.69,2177.32 988.61,2176.90"/>
    </edge>
    <edge id=":1198_1" function="internal">
        <lane id=":1198_1_0" index="0" speed="13.90" length="2.41" shape="988.69,2177.32 989.21,2175.93 989.91,2175.33"/>
    </edge>
    <edge id=":1198_4" function="internal">
        <lane id=":1198_4_0" index="0" speed="13.90" length="2.41" shape="989.91,2175.33 990.81,2175.54 991.90,2176.55"/>
    </edge>
    <edge id=":1198_2" function="internal">
        <lane id=":1198_2_0" index="0" speed="13.90" length="0.14" shape="991.87,2176.41 991.90,2176.55"/>
    </edge>
    <edge id=":1198_3" function="internal">
        <lane id=":1198_3_0" index="0" speed="13.90" length="2.41" shape="991.87,2176.41 991.24,2177.76 990.48,2178.29"/>
    </edge>
    <edge id=":1198_5" function="internal">
        <lane id=":1198_5_0" index="0" speed="13.90" length="2.41" shape="990.48,2178.29 989.61,2178.00 988.61,2176.90"/>
    </edge>
    <edge id=":12_0" function="internal">
        <lane id=":12_0_0" index="0" speed="13.90" length="14.55" shape="1341.72,1711.96 1339.29,1709.23 1336.49,1706.99 1333.38,1705.16 1330.01,1703.65"/>
    </edge>
    <edge id=":12_1" function="internal">
        <lane id=":12_1_0" index="0" speed="13.90" length="16.21" shape="1341.72,1711.96 1339.54,1708.69 1337.50,1705.06 1335.69,1701.31 1334.17,1697.67"/>
    </edge>
    <edge id=":12_2" function="internal">
        <lane id=":12_2_0" index="0" speed="13.90" length="9.79" shape="1341.72,1711.96 1339.96,1708.60 1339.49,1705.01 1339.99,1702.69"/>
    </edge>
    <edge id=":12_3" function="internal">
        <lane id=":12_3_0" index="0" speed="13.90" length="7.92" shape="1341.72,1711.96 1339.91,1708.45 1340.25,1705.70 1341.19,1704.96"/>
    </edge>
    <edge id=":12_4" function="internal">
        <lane id=":12_4_0" index="0" speed="13.90" length="2.41" shape="1341.72,1711.96 1341.65,1710.48 1342.06,1709.65"/>
    </edge>
    <edge id=":12_25" function="internal">
        <lane id=":12_25_0" index="0" speed="13.90" length="6.09" shape="1339.99,1702.69 1340.31,1701.20 1342.43,1697.17"/>
    </edge>
    <edge id=":12_26" function="internal">
        <lane id=":12_26_0" index="0" speed="13.90" length="6.79" shape="1341.19,1704.96 1342.74,1703.72 1347.39,1702.50"/>
    </edge>
    <edge id=":12_27" function="internal">
        <lane id=":12_27_0" index="0" speed="13.90" length="2.41" shape="1342.06,1709.65 1342.97,1709.49 1344.37,1710.00"/>
    </edge>
    <edge id=":12_5" function="internal">
        <lane id=":12_5_0" index="0" speed="13.90" length="7.14" shape="1347.87,1705.76 1345.41,1706.36 1344.00,1707.26 1343.66,1708.47 1344.37,1710.00"/>
    </edge>
    <edge id=":12_6" function="internal">
        <lane id=":12_6_0" index="0" speed="13.90" length="18.12" shape="1347.87,1705.76 1343.64,1706.00 1338.83,1705.67 1334.06,1704.86 1330.01,1703.65"/>
    </edge>
    <edge id=":12_7" function="internal">
        <lane id=":12_7_0" index="0" speed="13.90" length="17.39" shape="1347.87,1705.76 1343.25,1705.81 1339.43,1704.48 1336.40,1701.76 1334.17,1697.67"/>
    </edge>
    <edge id=":12_8" function="internal">
        <lane id=":12_8_0" index="0" speed="13.90" length="15.81" shape="1347.87,1705.76 1342.88,1705.91 1340.31,1704.52 1340.16,1701.61 1342.43,1697.17"/>
    </edge>
    <edge id=":12_9" function="internal">
        <lane id=":12_9_0" index="0" speed="13.90" length="4.82" shape="1347.87,1705.76 1346.52,1705.13 1346.00,1704.37 1346.28,1703.50 1347.39,1702.50"/>
    </edge>
    <edge id=":12_10" function="internal">
        <lane id=":12_10_0" index="0" speed="13.90" length="6.44" shape="1345.18,1699.00 1344.25,1700.81 1344.31,1701.99 1345.36,1702.56 1347.39,1702.50"/>
    </edge>
    <edge id=":12_11" function="internal">
        <lane id=":12_11_0" index="0" speed="13.90" length="11.80" shape="1345.18,1699.00 1343.53,1702.07 1342.85,1704.93 1343.13,1707.57 1344.37,1710.00"/>
    </edge>
    <edge id=":12_12" function="internal">
        <lane id=":12_12_0" index="0" speed="13.90" length="17.37" shape="1345.18,1699.00 1342.12,1702.45 1338.57,1704.38 1334.53,1704.78 1330.01,1703.65"/>
    </edge>
    <edge id=":12_13" function="internal">
        <lane id=":12_13_0" index="0" speed="13.90" length="15.91" shape="1345.18,1699.00 1341.99,1702.66 1339.09,1703.66 1336.49,1701.99 1334.17,1697.67"/>
    </edge>
    <edge id=":12_14" function="internal">
        <lane id=":12_14_0" index="0" speed="13.90" length="4.82" shape="1345.18,1699.00 1343.80,1699.57 1342.89,1699.45 1342.43,1698.65 1342.43,1697.17"/>
    </edge>
    <edge id=":12_15" function="internal">
        <lane id=":12_15_0" index="0" speed="13.90" length="7.50" shape="1337.25,1696.49 1338.35,1698.54 1339.57,1699.34 1340.94,1698.88 1342.43,1697.17"/>
    </edge>
    <edge id=":12_16" function="internal">
        <lane id=":12_16_0" index="0" speed="13.90" length="12.88" shape="1337.25,1696.49 1338.91,1699.53 1341.15,1701.54 1343.98,1702.53 1347.39,1702.50"/>
    </edge>
    <edge id=":12_17" function="internal">
        <lane id=":12_17_0" index="0" speed="13.90" length="15.31" shape="1337.25,1696.49 1338.70,1700.00 1340.37,1703.49 1342.25,1706.85 1344.37,1710.00"/>
    </edge>
    <edge id=":12_18" function="internal">
        <lane id=":12_18_0" index="0" speed="13.90" length="8.56" shape="1337.25,1696.49 1338.51,1701.38 1337.72,1704.20 1337.16,1704.35"/>
    </edge>
    <edge id=":12_19" function="internal">
        <lane id=":12_19_0" index="0" speed="13.90" length="2.41" shape="1337.25,1696.49 1336.92,1697.94 1336.30,1698.62"/>
    </edge>
    <edge id=":12_28" function="internal">
        <lane id=":12_28_0" index="0" speed="13.90" length="7.40" shape="1337.16,1704.35 1334.88,1704.96 1330.01,1703.65"/>
    </edge>
    <edge id=":12_29" function="internal">
        <lane id=":12_29_0" index="0" speed="13.90" length="2.41" shape="1336.30,1698.62 1335.38,1698.53 1334.17,1697.67"/>
    </edge>