<?xml version="1.0" encoding="UTF-8"?>

<!-- generated on 2025-10-30T14:21:39.326490+01:00 by Eclipse SUMO netedit v1_24_0+1684-66088a8c42f
This data file and the accompanying materials
are made available under the terms of the Eclipse Public License v2.0
which accompanies this distribution, and is available at
http://www.eclipse.org/legal/epl-v20.html
This file may also be made available under the following Secondary
Licenses when the conditions for such availability set forth in the Eclipse
Public License 2.0 are satisfied: GNU General Public License, version 2
or later which is available at
https://www.gnu.org/licenses/old-licenses/gpl-2.0-standalone.html
SPDX-License-Identifier: EPL-2.0 OR GPL-2.0-or-later
-->

<routes xmlns:xsi="http://www.w3.org/2001/XMLSchema-instance" xsi:noNamespaceSchemaLocation="http://sumo.dlr.de/xsd/routes_file.xsd">
    <!-- Routes -->
    <route id="r_0" edges="Edge0 Edge1 Edge2 EdgeBike0 EdgeCenter0 EdgeCenter1 EdgeBike1 Edge3 Edge4 Edge5" color="orange" repeat="13" cycleTime="10.12" probability="56.12">
        <param key="keyA" value="valueA"/>
        <param key="keyB" value="valueB"/>
        <param key="keyC" value="valueC"/>
    </route>
    <route id="r_1" edges="Edge0 Edge1 Edge2 EdgeBike0 EdgeCenter0 EdgeCenter1 EdgeBike1 Edge3 Edge4 Edge5" color="orange" repeat="6" cycleTime="8.00" probability="56.12">
        <param key="keyD" value="valueD"/>
        <param key="keyE" value="valueE"/>
        <param key="keyF" value="valueF"/>
    </route>
</routes>
