<?xml version="1.0" encoding="UTF-8"?>

<!-- generated on 2022-12-01 17:14:15 by Eclipse SUMO sumo Version v1_15_0+0700-6823524
This data file and the accompanying materials
are made available under the terms of the Eclipse Public License v2.0
which accompanies this distribution, and is available at
http://www.eclipse.org/legal/epl-v20.html
This file may also be made available under the following Secondary
Licenses when the conditions for such availability set forth in the Eclipse
Public License 2.0 are satisfied: GNU General Public License, version 2
or later which is available at
https://www.gnu.org/licenses/old-licenses/gpl-2.0-standalone.html
SPDX-License-Identifier: EPL-2.0 OR GPL-2.0-or-later
<configuration xmlns:xsi="http://www.w3.org/2001/XMLSchema-instance" xsi:noNamespaceSchemaLocation="http://sumo.dlr.de/xsd/sumoConfiguration.xsd">

    <input>
        <net-file value="net.net.xml"/>
        <route-files value="input_routes.rou.xml"/>
    </input>

    <output>
        <write-license value="true"/>
        <lanechange-output value="lanechanges.xml"/>
    </output>

    <processing>
        <lateral-resolution value="0.4"/>
        <default.speeddev value="0"/>
    </processing>

    <report>
        <xml-validation value="never"/>
        <duration-log.statistics value="true"/>
        <no-step-log value="true"/>
    </report>

</configuration>
-->

<lanechanges>
    <change id="ramp.0" type="passenger" time="2.00" from="merge_0" to="merge_1" dir="1" speed="24.20" pos="37.53" reason="strategic|urgent" leaderGap="11.62" leaderSecureGap="0.00" leaderSpeed="32.50" followerGap="None" followerSecureGap="None" followerSpeed="None" origLeaderGap="None" origLeaderSecureGap="None" origLeaderSpeed="None" latGap="None"/>
    <change id="ramp.1" type="passenger" time="8.00" from="merge_0" to="merge_1" dir="1" speed="12.42" pos="90.70" reason="strategic|urgent" leaderGap="44.02" leaderSecureGap="0.00" leaderSpeed="34.86" followerGap="13.28" followerSecureGap="12.09" followerSpeed="12.31" origLeaderGap="None" origLeaderSecureGap="None" origLeaderSpeed="None" latGap="None"/>
    <change id="ramp.2" type="passenger" time="8.00" from="merge_0" to="merge_1" dir="1" speed="12.31" pos="72.42" reason="strategic|urgent" leaderGap="13.28" leaderSecureGap="12.09" leaderSpeed="12.42" followerGap="13.29" followerSecureGap="21.96" followerSpeed="15.02" origLeaderGap="None" origLeaderSecureGap="None" origLeaderSpeed="None" latGap="None"/>
    <change id="ramp.3" type="passenger_pushy" time="8.00" from="merge_0" to="merge_1" dir="1" speed="15.02" pos="54.13" reason="strategic|urgent" leaderGap="13.29" leaderSecureGap="21.96" leaderSpeed="12.31" followerGap="22.72" followerSecureGap="18.07" followerSpeed="16.54" origLeaderGap="None" origLeaderSecureGap="None" origLeaderSpeed="None" latGap="None"/>
    <change id="main.5" type="passenger" time="9.00" from="merge_1" to="merge_2" dir="1" speed="9.18" pos="34.43" reason="speedGain" leaderGap="8.15" leaderSecureGap="0.00" leaderSpeed="30.01" followerGap="None" followerSecureGap="None" followerSpeed="None" origLeaderGap="26.50" origLeaderSecureGap="3.93" origLeaderSpeed="11.80" latGap="None"/>
    <change id="ramp.4" type="motorcycle" time="11.00" from="merge_0" to="merge_1" dir="1" speed="14.53" pos="60.02" reason="strategic|urgent" leaderGap="22.93" leaderSecureGap="17.77" leaderSpeed="11.29" followerGap="66.02" followerSecureGap="56.70" followerSpeed="21.25" origLeaderGap="None" origLeaderSecureGap="None" origLeaderSpeed="None" latGap="None"/>
    <change id="ramp.5" type="motorcycle" time="14.00" from="merge_0" to="merge_1" dir="1" speed="11.55" pos="78.93" reason="strategic|urgent" leaderGap="None" leaderSecureGap="None" leaderSpeed="None" followerGap="38.02" followerSecureGap="29.82" followerSpeed="14.59" origLeaderGap="None" origLeaderSecureGap="None" origLeaderSpeed="None" latGap="None"/>
    <change id="main.14" type="passenger_pushy" time="18.00" from="beg_0" to="beg_1" dir="1" speed="23.53" pos="266.78" reason="cooperative|urgent" leaderGap="47.90" leaderSecureGap="0.00" leaderSpeed="29.04" followerGap="78.50" followerSecureGap="98.58" followerSpeed="34.34" origLeaderGap="35.41" origLeaderSecureGap="71.95" origLeaderSpeed="6.25" latGap="None"/>
    <change id="ramp.6" type="motorcycle" time="18.00" from="merge_0" to="merge_1" dir="1" speed="11.87" pos="100.17" reason="strategic|urgent" leaderGap="66.12" leaderSecureGap="0.00" leaderSpeed="25.66" followerGap="28.53" followerSecureGap="24.78" followerSpeed="13.38" origLeaderGap="None" origLeaderSecureGap="None" origLeaderSpeed="None" latGap="None"/>
    <change id="ramp.9" type="passenger_pushy" time="18.00" from="merge_0" to="merge_1" dir="1" speed="6.25" pos="14.23" reason="strategic|urgent" leaderGap="11.28" leaderSecureGap="0.00" leaderSpeed="13.98" followerGap="67.94" followerSecureGap="49.96" followerSpeed="26.65" origLeaderGap="11.35" origLeaderSecureGap="3.91" origLeaderSpeed="8.59" latGap="None"/>
    <change id="ramp.10" type="passenger_pushy" time="19.00" from="merge_0" to="merge_1" dir="1" speed="3.02" pos="6.94" reason="strategic|urgent" leaderGap="8.75" leaderSecureGap="1.05" leaderSpeed="6.47" followerGap="40.60" followerSecureGap="30.16" followerSpeed="20.05" origLeaderGap="27.93" origLeaderSecureGap="0.00" origLeaderSpeed="9.30" latGap="None"/>
    <change id="ramp.7" type="passenger" time="22.00" from="merge_0" to="merge_1" dir="1" speed="6.15" pos="77.80" reason="strategic|urgent" leaderGap="12.91" leaderSecureGap="0.00" leaderSpeed="14.49" followerGap="14.52" followerSecureGap="4.35" followerSpeed="5.25" origLeaderGap="None" origLeaderSecureGap="None" origLeaderSpeed="None" latGap="None"/>
    <change id="ramp.8" type="passenger" time="23.00" from="merge_0" to="merge_1" dir="1" speed="3.31" pos="51.53" reason="strategic|urgent" leaderGap="9.60" leaderSecureGap="0.00" leaderSpeed="7.85" followerGap="8.62" followerSecureGap="2.63" followerSpeed="2.63" origLeaderGap="None" origLeaderSecureGap="None" origLeaderSpeed="None" latGap="None"/>
    <change id="ramp.11" type="passenger_pushy" time="23.00" from="merge_0" to="merge_1" dir="1" speed="4.50" pos="16.08" reason="strategic|urgent" leaderGap="16.83" leaderSecureGap="4.50" leaderSpeed="2.63" followerGap="74.02" followerSecureGap="53.03" followerSpeed="19.61" origLeaderGap="None" origLeaderSecureGap="None" origLeaderSpeed="None" latGap="0.40"/>
    <change id="ramp.12" type="motorcycle" time="24.00" from="merge_0" to="merge_1" dir="1" speed="4.50" pos="8.58" reason="strategic|urgent" leaderGap="2.61" leaderSecureGap="4.50" leaderSpeed="0.11" followerGap="51.29" followerSecureGap="45.15" followerSpeed="18.03" origLeaderGap="None" origLeaderSecureGap="None" origLeaderSpeed="None" latGap="None"/>
    <change id="main.24" type="motorcycle" time="27.00" from="beg_0" to="beg_1" dir="1" speed="20.10" pos="236.49" reason="speedGain" leaderGap="None" leaderSecureGap="None" leaderSpeed="None" followerGap="None" followerSecureGap="None" followerSpeed="None" origLeaderGap="22.09" origLeaderSecureGap="23.19" origLeaderSpeed="17.12" latGap="None"/>
    <change id="ramp.13" type="passenger_pushy" time="32.00" from="merge_0" to="merge_1" dir="1" speed="7.92" pos="28.85" reason="strategic|urgent" leaderGap="18.32" leaderSecureGap="9.48" leaderSpeed="11.86" followerGap="8.00" followerSecureGap="0.00" followerSpeed="0.00" origLeaderGap="None" origLeaderSecureGap="None" origLeaderSpeed="None" latGap="None"/>
    <change id="ramp.15" type="passenger_pushy" time="36.00" from="merge_0" to="merge_1" dir="1" speed="0.38" pos="4.57" reason="strategic|urgent" leaderGap="12.88" leaderSecureGap="0.00" leaderSpeed="7.80" followerGap="6.59" followerSecureGap="2.86" followerSpeed="2.86" origLeaderGap="None" origLeaderSecureGap="None" origLeaderSpeed="None" latGap="1.20"/>
    <change id="ramp.14" type="motorcycle" time="37.00" from="merge_0" to="merge_1" dir="1" speed="6.00" pos="15.27" reason="strategic|urgent" leaderGap="12.58" leaderSecureGap="5.60" leaderSpeed="10.40" followerGap="8.50" followerSecureGap="0.00" followerSpeed="0.00" origLeaderGap="None" origLeaderSecureGap="None" origLeaderSpeed="None" latGap="None"/>
    <change id="ramp.16" type="passenger_pushy" time="40.00" from="merge_0" to="merge_1" dir="1" speed="2.60" pos="2.65" reason="strategic|urgent" leaderGap="12.52" leaderSecureGap="0.00" leaderSpeed="7.80" followerGap="28.67" followerSecureGap="0.00" followerSpeed="0.00" origLeaderGap="None" origLeaderSecureGap="None" origLeaderSpeed="None" latGap="None"/>
    <change id="ramp.17" type="motorcycle" time="45.00" from="merge_0" to="merge_1" dir="1" speed="11.68" pos="31.20" reason="strategic|urgent" leaderGap="18.45" leaderSecureGap="7.77" leaderSpeed="15.60" followerGap="19.85" followerSecureGap="1.86" followerSpeed="3.55" origLeaderGap="None" origLeaderSecureGap="None" origLeaderSpeed="None" latGap="None"/>
    <change id="main.25" type="motorcycle" time="45.00" from="end_0" to="end_1" dir="1" speed="26.59" pos="53.85" reason="sublane" leaderGap="15.05" leaderSecureGap="12.20" leaderSpeed="32.53" followerGap="67.38" followerSecureGap="42.47" followerSpeed="31.41" origLeaderGap="32.60" origLeaderSecureGap="23.21" origLeaderSpeed="28.28" latGap="None"/>
    <change id="main.45" type="passenger" time="46.00" from="beg_0" to="beg_1" dir="1" speed="18.88" pos="184.92" reason="speedGain" leaderGap="32.45" leaderSecureGap="12.21" leaderSpeed="32.39" followerGap="57.54" followerSecureGap="85.05" followerSpeed="30.01" origLeaderGap="15.90" origLeaderSecureGap="29.67" origLeaderSpeed="15.57" latGap="None"/>
    <change id="ramp.18" type="passenger" time="48.00" from="merge_0" to="merge_1" dir="1" speed="15.06" pos="48.51" reason="strategic|urgent" leaderGap="35.11" leaderSecureGap="21.32" leaderSpeed="20.97" followerGap="12.17" followerSecureGap="0.00" followerSpeed="9.69" origLeaderGap="None" origLeaderSecureGap="None" origLeaderSpeed="None" latGap="None"/>
    <change id="ramp.20" type="truck" time="51.00" from="merge_0" to="merge_1" dir="1" speed="9.02" pos="27.78" reason="strategic|urgent" leaderGap="26.78" leaderSecureGap="8.58" leaderSpeed="9.25" followerGap="23.61" followerSecureGap="1.06" followerSpeed="5.05" origLeaderGap="None" origLeaderSecureGap="None" origLeaderSpeed="None" latGap="None"/>
    <change id="ramp.19" type="passenger_pushy" time="52.00" from="merge_0" to="merge_1" dir="1" speed="4.75" pos="64.31" reason="strategic|urgent" leaderGap="25.27" leaderSecureGap="0.00" leaderSpeed="20.09" followerGap="19.90" followerSecureGap="21.12" followerSpeed="11.62" origLeaderGap="None" origLeaderSecureGap="None" origLeaderSpeed="None" latGap="0.80"/>
    <change id="ramp.21" type="passenger" time="55.00" from="merge_0" to="merge_1" dir="1" speed="10.00" pos="45.26" reason="strategic|urgent" leaderGap="19.59" leaderSecureGap="7.35" leaderSpeed="11.32" followerGap="22.59" followerSecureGap="0.00" followerSpeed="5.19" origLeaderGap="None" origLeaderSecureGap="None" origLeaderSpeed="None" latGap="None"/>
    <change id="ramp.22" type="passenger" time="59.00" from="merge_0" to="merge_1" dir="1" speed="14.22" pos="71.74" reason="strategic|urgent" leaderGap="28.35" leaderSecureGap="0.00" leaderSpeed="18.86" followerGap="37.59" followerSecureGap="0.00" followerSpeed="4.24" origLeaderGap="None" origLeaderSecureGap="None" origLeaderSpeed="None" latGap="None"/>
    <change id="ramp.23" type="passenger" time="60.00" from="merge_0" to="merge_1" dir="1" speed="5.70" pos="47.06" reason="strategic|urgent" leaderGap="34.83" leaderSecureGap="0.00" leaderSpeed="15.15" followerGap="7.94" followerSecureGap="4.29" followerSpeed="5.00" origLeaderGap="None" origLeaderSecureGap="None" origLeaderSpeed="None" latGap="None"/>
    <change id="ramp.24" type="passenger_pushy" time="62.00" from="merge_0" to="merge_1" dir="1" speed="8.17" pos="47.86" reason="strategic|urgent" leaderGap="13.40" leaderSecureGap="3.54" leaderSpeed="10.90" followerGap="7.23" followerSecureGap="0.00" followerSpeed="2.60" origLeaderGap="None" origLeaderSecureGap="None" origLeaderSpeed="None" latGap="None"/>
    <change id="ramp.25" type="passenger_pushy" time="62.00" from="merge_0" to="merge_1" dir="1" speed="6.48" pos="31.27" reason="strategic|urgent" leaderGap="11.59" leaderSecureGap="4.80" leaderSpeed="8.17" followerGap="8.21" followerSecureGap="5.61" followerSpeed="6.05" origLeaderGap="None" origLeaderSecureGap="None" origLeaderSpeed="None" latGap="0.40"/>
    <change id="ramp.26" type="passenger_pushy" time="62.00" from="merge_0" to="merge_1" dir="1" speed="6.05" pos="18.06" reason="strategic|urgent" leaderGap="8.21" leaderSecureGap="5.61" leaderSpeed="6.48" followerGap="38.33" followerSecureGap="3.75" followerSpeed="4.90" origLeaderGap="None" origLeaderSecureGap="None" origLeaderSpeed="None" latGap="0.90"/>
    <change id="ramp.27" type="passenger" time="67.00" from="merge_0" to="merge_1" dir="1" speed="6.73" pos="39.98" reason="strategic|urgent" leaderGap="18.14" leaderSecureGap="0.19" leaderSpeed="11.13" followerGap="15.46" followerSecureGap="0.37" followerSpeed="2.60" origLeaderGap="None" origLeaderSecureGap="None" origLeaderSpeed="None" latGap="None"/>
    <change id="ramp.28" type="passenger" time="70.00" from="merge_0" to="merge_1" dir="1" speed="10.45" pos="51.07" reason="strategic|urgent" leaderGap="40.57" leaderSecureGap="8.97" leaderSpeed="11.19" followerGap="16.92" followerSecureGap="0.00" followerSpeed="2.21" origLeaderGap="None" origLeaderSecureGap="None" origLeaderSpeed="None" latGap="None"/>
    <change id="ramp.29" type="passenger" time="72.00" from="merge_0" to="merge_1" dir="1" speed="11.41" pos="53.36" reason="strategic|urgent" leaderGap="21.41" leaderSecureGap="0.78" leaderSpeed="15.65" followerGap="6.98" followerSecureGap="1.01" followerSpeed="7.41" origLeaderGap="None" origLeaderSecureGap="None" origLeaderSpeed="None" latGap="None"/>
    <change id="ramp.30" type="truck" time="74.00" from="merge_0" to="merge_1" dir="1" speed="3.66" pos="26.28" reason="strategic|urgent" leaderGap="30.90" leaderSecureGap="0.00" leaderSpeed="11.70" followerGap="9.36" followerSecureGap="0.00" followerSpeed="0.00" origLeaderGap="None" origLeaderSecureGap="None" origLeaderSpeed="None" latGap="None"/>
    <change id="ramp.31" type="passenger" time="77.00" from="merge_0" to="merge_1" dir="1" speed="7.89" pos="30.46" reason="strategic|urgent" leaderGap="15.89" leaderSecureGap="1.87" leaderSpeed="11.46" followerGap="10.68" followerSecureGap="0.09" followerSpeed="3.48" origLeaderGap="None" origLeaderSecureGap="None" origLeaderSpeed="None" latGap="None"/>
    <change id="ramp.32" type="passenger" time="78.00" from="merge_0" to="merge_1" dir="1" speed="1.85" pos="7.97" reason="strategic|urgent" leaderGap="7.88" leaderSecureGap="0.27" leaderSpeed="6.08" followerGap="98.57" followerSecureGap="0.00" followerSpeed="0.00" origLeaderGap="None" origLeaderSecureGap="None" origLeaderSpeed="None" latGap="1.70"/>
    <change id="main.51" type="passenger_pushy" time="78.00" from="beg_0" to="beg_1" dir="1" speed="0.00" pos="265.88" reason="speedGain" leaderGap="2.50" leaderSecureGap="0.00" leaderSpeed="0.00" followerGap="2.50" followerSecureGap="0.00" followerSpeed="0.00" origLeaderGap="None" origLeaderSecureGap="None" origLeaderSpeed="None" latGap="None"/>
    <change id="main.52" type="passenger" time="81.00" from="beg_0" to="beg_1" dir="1" speed="0.00" pos="273.98" reason="speedGain" leaderGap="2.85" leaderSecureGap="0.00" leaderSpeed="0.35" followerGap="2.50" followerSecureGap="0.60" followerSpeed="0.60" origLeaderGap="16.20" origLeaderSecureGap="0.00" origLeaderSpeed="2.78" latGap="1.80"/>
    <change id="main.74" type="motorcycle" time="81.00" from="beg_0" to="beg_1" dir="1" speed="0.00" pos="185.17" reason="speedGain" leaderGap="2.50" leaderSecureGap="0.00" leaderSpeed="0.00" followerGap="34.92" followerSecureGap="45.90" followerSpeed="18.18" origLeaderGap="10.00" origLeaderSecureGap="0.00" origLeaderSpeed="0.00" latGap="1.00"/>
    <change id="ramp.33" type="truck" time="87.00" from="merge_0" to="merge_1" dir="1" speed="10.40" pos="27.87" reason="strategic|urgent" leaderGap="33.41" leaderSecureGap="0.00" leaderSpeed="17.18" followerGap="12.55" followerSecureGap="0.00" followerSpeed="2.42" origLeaderGap="None" origLeaderSecureGap="None" origLeaderSpeed="None" latGap="None"/>
    <change id="ramp.34" type="passenger" time="89.00" from="merge_0" to="merge_1" dir="1" speed="11.09" pos="29.96" reason="strategic|urgent" leaderGap="20.01" leaderSecureGap="0.00" leaderSpeed="15.60" followerGap="8.70" followerSecureGap="0.00" followerSpeed="5.02" origLeaderGap="None" origLeaderSecureGap="None" origLeaderSpeed="None" latGap="None"/>
    <change id="main.48" type="passenger" time="90.00" from="merge_1" to="merge_2" dir="1" speed="7.62" pos="23.88" reason="speedGain" leaderGap="None" leaderSecureGap="None" leaderSpeed="None" followerGap="10.32" followerSecureGap="2.22" followerSpeed="4.92" origLeaderGap="14.76" origLeaderSecureGap="0.00" origLeaderSpeed="13.69" latGap="None"/>
    <change id="ramp.35" type="motorcycle" time="90.00" from="merge_0" to="merge_1" dir="1" speed="0.00" pos="10.20" reason="strategic|urgent" leaderGap="28.45" leaderSecureGap="0.00" leaderSpeed="13.69" followerGap="19.13" followerSecureGap="6.63" followerSpeed="6.63" origLeaderGap="None" origLeaderSecureGap="None" origLeaderSpeed="None" latGap="None"/>
    <change id="ramp.36" type="passenger" time="94.00" from="merge_0" to="merge_1" dir="1" speed="18.18" pos="59.34" reason="strategic|urgent" leaderGap="None" leaderSecureGap="None" leaderSpeed="None" followerGap="32.64" followerSecureGap="2.22" followerSpeed="10.20" origLeaderGap="None" origLeaderSecureGap="None" origLeaderSpeed="None" latGap="None"/>
    <change id="ramp.37" type="passenger_pushy" time="95.00" from="merge_0" to="merge_1" dir="1" speed="18.18" pos="51.84" reason="strategic|urgent" leaderGap="23.28" leaderSecureGap="7.78" leaderSpeed="20.78" followerGap="12.33" followerSecureGap="7.42" followerSpeed="12.80" origLeaderGap="None" origLeaderSecureGap="None" origLeaderSpeed="None" latGap="None"/>
    <change id="main.90" type="passenger" time="95.00" from="beg_0" to="beg_1" dir="1" speed="0.60" pos="165.57" reason="speedGain" leaderGap="2.50" leaderSecureGap="0.60" leaderSpeed="0.00" followerGap="33.86" followerSecureGap="35.93" followerSpeed="21.98" origLeaderGap="45.60" origLeaderSecureGap="0.60" origLeaderSpeed="5.55" latGap="None"/>
    <change id="main.91" type="truck" time="95.00" from="beg_0" to="beg_1" dir="1" speed="0.30" pos="149.96" reason="speedGain" leaderGap="2.50" leaderSecureGap="0.30" leaderSpeed="0.00" followerGap="16.76" followerSecureGap="35.93" followerSpeed="21.98" origLeaderGap="61.21" origLeaderSecureGap="0.30" origLeaderSpeed="5.55" latGap="None"/>
    <change id="main.82" type="truck" time="96.00" from="beg_0" to="beg_1" dir="1" speed="2.95" pos="185.37" reason="speedGain" leaderGap="8.05" leaderSecureGap="1.90" leaderSpeed="5.55" followerGap="5.45" followerSecureGap="0.35" followerSpeed="0.35" origLeaderGap="26.85" origLeaderSecureGap="2.95" origLeaderSpeed="1.05" latGap="None"/>
    <change id="ramp.38" type="passenger_pushy" time="97.00" from="merge_0" to="merge_1" dir="1" speed="9.84" pos="40.22" reason="strategic|urgent" leaderGap="25.01" leaderSecureGap="6.78" leaderSpeed="19.24" followerGap="45.06" followerSecureGap="5.50" followerSpeed="8.09" origLeaderGap="None" origLeaderSecureGap="None" origLeaderSpeed="None" latGap="0.90"/>
    <change id="main.81" type="passenger_pushy" time="97.00" from="beg_0" to="beg_1" dir="1" speed="7.90" pos="206.32" reason="speedGain" leaderGap="8.32" leaderSecureGap="11.30" leaderSpeed="2.42" followerGap="10.40" followerSecureGap="3.20" followerSpeed="5.55" origLeaderGap="8.32" origLeaderSecureGap="11.30" origLeaderSpeed="2.42" latGap="None"/>
    <change id="main.86" type="passenger" time="97.00" from="beg_0" to="beg_1" dir="1" speed="2.95" pos="176.37" reason="speedGain" leaderGap="8.05" leaderSecureGap="1.90" leaderSpeed="5.55" followerGap="5.45" followerSecureGap="0.35" followerSpeed="0.35" origLeaderGap="38.28" origLeaderSecureGap="2.95" origLeaderSpeed="2.42" latGap="None"/>
    <change id="ramp.35" type="motorcycle" time="99.00" from="end_0" to="end_1" dir="1" speed="25.05" pos="24.54" reason="sublane" leaderGap="28.28" leaderSecureGap="18.51" leaderSpeed="28.32" followerGap="61.06" followerSecureGap="21.05" followerSpeed="17.04" origLeaderGap="None" origLeaderSecureGap="None" origLeaderSpeed="None" latGap="None"/>
    <change id="ramp.39" type="passenger" time="101.00" from="merge_0" to="merge_1" dir="1" speed="9.65" pos="64.10" reason="strategic|urgent" leaderGap="20.48" leaderSecureGap="0.00" leaderSpeed="14.54" followerGap="11.51" followerSecureGap="4.51" followerSpeed="7.41" origLeaderGap="None" origLeaderSecureGap="None" origLeaderSpeed="None" latGap="None"/>
    <change id="ramp.40" type="motorcycle" time="103.00" from="merge_0" to="merge_1" dir="1" speed="1.89" pos="52.99" reason="strategic|urgent" leaderGap="33.22" leaderSecureGap="0.00" leaderSpeed="14.85" followerGap="4.39" followerSecureGap="5.87" followerSpeed="5.87" origLeaderGap="None" origLeaderSecureGap="None" origLeaderSpeed="None" latGap="None"/>
    <change id="ramp.41" type="motorcycle" time="105.00" from="merge_0" to="merge_1" dir="1" speed="7.89" pos="56.18" reason="strategic|urgent" leaderGap="16.39" leaderSecureGap="4.00" leaderSpeed="13.89" followerGap="26.07" followerSecureGap="5.44" followerSpeed="4.97" origLeaderGap="None" origLeaderSecureGap="None" origLeaderSpeed="None" latGap="None"/>
    <change id="ramp.45" type="passenger_pushy" time="108.00" from="merge_0" to="merge_1" dir="1" speed="8.48" pos="12.21" reason="strategic|urgent" leaderGap="25.70" leaderSecureGap="12.47" leaderSpeed="4.07" followerGap="18.17" followerSecureGap="2.27" followerSpeed="2.27" origLeaderGap="5.61" origLeaderSecureGap="9.32" origLeaderSpeed="7.65" latGap="1.30"/>
    <change id="ramp.42" type="truck" time="109.00" from="merge_0" to="merge_1" dir="1" speed="10.25" pos="81.53" reason="strategic|urgent" leaderGap="None" leaderSecureGap="None" leaderSpeed="None" followerGap="16.82" followerSecureGap="0.00" followerSpeed="5.20" origLeaderGap="None" origLeaderSecureGap="None" origLeaderSpeed="None" latGap="None"/>
    <change id="ramp.43" type="passenger" time="111.00" from="merge_0" to="merge_1" dir="1" speed="2.60" pos="40.03" reason="strategic|urgent" leaderGap="9.58" leaderSecureGap="0.60" leaderSpeed="6.50" followerGap="12.06" followerSecureGap="0.00" followerSpeed="0.00" origLeaderGap="None" origLeaderSecureGap="None" origLeaderSpeed="None" latGap="None"/>
    <change id="main.67" type="passenger" time="112.00" from="merge_1" to="merge_2" dir="1" speed="0.00" pos="7.97" reason="cooperative|urgent" leaderGap="2.50" leaderSecureGap="0.00" leaderSpeed="0.00" followerGap="2.50" followerSecureGap="0.00" followerSpeed="0.00" origLeaderGap="7.86" origLeaderSecureGap="0.00" origLeaderSpeed="0.26" latGap="None"/>
    <change id="main.73" type="passenger_pushy" time="112.00" from="merge_1" to="merge_2" dir="1" speed="0.00" pos="0.47" reason="speedGain" leaderGap="2.50" leaderSecureGap="0.00" leaderSpeed="0.00" followerGap="2.50" followerSecureGap="1.28" followerSpeed="1.28" origLeaderGap="15.36" origLeaderSecureGap="0.00" origLeaderSpeed="0.26" latGap="None"/>
    <change id="main.89" type="passenger" time="112.00" from="beg_0" to="beg_1" dir="1" speed="1.73" pos="279.94" reason="speedGain" leaderGap="3.78" leaderSecureGap="1.73" leaderSpeed="1.28" followerGap="5.50" followerSecureGap="12.54" followerSpeed="11.27" origLeaderGap="11.28" origLeaderSecureGap="1.73" origLeaderSpeed="0.00" latGap="1.80"/>
    <change id="main.79" type="motorcycle" time="113.00" from=":gneJ0_1_0" to=":gneJ0_1_1" dir="1" speed="0.00" pos="3.72" reason="speedGain" leaderGap="2.50" leaderSecureGap="0.00" leaderSpeed="0.00" followerGap="2.50" followerSecureGap="1.28" followerSpeed="1.28" origLeaderGap="5.68" origLeaderSecureGap="0.00" origLeaderSpeed="0.38" latGap="None"/>
    <change id="main.61" type="passenger" time="113.00" from="merge_1" to="merge_2" dir="1" speed="0.00" pos="25.57" reason="cooperative|urgent" leaderGap="10.64" leaderSecureGap="0.00" leaderSpeed="24.46" followerGap="5.10" followerSecureGap="0.00" followerSpeed="0.00" origLeaderGap="5.22" origLeaderSecureGap="0.00" origLeaderSpeed="4.76" latGap="None"/>
    <change id="ramp.44" type="truck" time="114.00" from="merge_0" to="merge_1" dir="1" speed="6.76" pos="44.05" reason="strategic|urgent" leaderGap="14.38" leaderSecureGap="1.72" leaderSpeed="10.40" followerGap="9.39" followerSecureGap="3.02" followerSpeed="4.89" origLeaderGap="None" origLeaderSecureGap="None" origLeaderSpeed="None" latGap="None"/>
    <change id="main.62" type="passenger" time="114.00" from="merge_1" to="merge_2" dir="1" speed="0.00" pos="15.47" reason="cooperative|urgent" leaderGap="7.70" leaderSecureGap="0.00" leaderSpeed="2.60" followerGap="2.50" followerSecureGap="0.00" followerSpeed="0.00" origLeaderGap="7.69" origLeaderSecureGap="0.00" origLeaderSpeed="4.89" latGap="None"/>
    <change id="ramp.47" type="passenger" time="115.00" from="merge_0" to="merge_1" dir="1" speed="2.79" pos="16.12" reason="strategic|urgent" leaderGap="13.87" leaderSecureGap="0.46" leaderSpeed="6.83" followerGap="10.27" followerSecureGap="0.00" followerSpeed="0.00" origLeaderGap="None" origLeaderSecureGap="None" origLeaderSpeed="None" latGap="None"/>
    <change id="ramp.46" type="motorcycle" time="116.00" from="merge_0" to="merge_1" dir="1" speed="6.00" pos="28.04" reason="strategic|urgent" leaderGap="11.33" leaderSecureGap="6.00" leaderSpeed="9.38" followerGap="9.11" followerSecureGap="0.61" followerSpeed="0.61" origLeaderGap="None" origLeaderSecureGap="None" origLeaderSpeed="None" latGap="None"/>
    <change id="ramp.48" type="passenger" time="117.00" from="merge_0" to="merge_1" dir="1" speed="0.00" pos="6.70" reason="strategic|urgent" leaderGap="8.23" leaderSecureGap="0.00" leaderSpeed="3.21" followerGap="11.86" followerSecureGap="7.18" followerSpeed="5.84" origLeaderGap="None" origLeaderSecureGap="None" origLeaderSpeed="None" latGap="None"/>
    <change id="main.100" type="passenger_pushy" time="117.00" from="beg_0" to="beg_1" dir="1" speed="2.50" pos="250.58" reason="speedGain" leaderGap="7.23" leaderSecureGap="0.59" leaderSpeed="6.41" followerGap="7.25" followerSecureGap="12.72" followerSpeed="8.61" origLeaderGap="3.14" origLeaderSecureGap="2.50" origLeaderSpeed="0.64" latGap="None"/>
    <change id="main.108" type="motorcycle" time="119.00" from="beg_0" to="beg_1" dir="1" speed="4.62" pos="235.45" reason="speedGain" leaderGap="14.01" leaderSecureGap="4.62" leaderSpeed="3.24" followerGap="37.17" followerSecureGap="48.80" followerSpeed="18.76" origLeaderGap="3.27" origLeaderSecureGap="4.62" origLeaderSpeed="0.76" latGap="None"/>
    <change id="main.100" type="passenger_pushy" time="120.00" from="beg_1" to="beg_0" dir="-1" speed="2.76" pos="257.22" reason="speedGain" leaderGap="8.01" leaderSecureGap="2.76" leaderSpeed="2.43" followerGap="5.26" followerSecureGap="3.24" followerSpeed="3.24" origLeaderGap="None" origLeaderSecureGap="None" origLeaderSpeed="None" latGap="None"/>
    <change id="main.79" type="motorcycle" time="121.00" from="merge_2" to="merge_1" dir="-1" speed="9.57" pos="15.64" reason="sublane" leaderGap="12.07" leaderSecureGap="9.17" leaderSpeed="10.40" followerGap="12.47" followerSecureGap="3.13" followerSpeed="3.13" origLeaderGap="14.67" origLeaderSecureGap="7.40" origLeaderSpeed="12.17" latGap="None"/>
    <change id="ramp.49" type="passenger" time="121.00" from="merge_0" to="merge_1" dir="1" speed="6.32" pos="13.33" reason="strategic|urgent" leaderGap="14.38" leaderSecureGap="0.84" leaderSpeed="10.40" followerGap="7.36" followerSecureGap="1.31" followerSpeed="3.13" origLeaderGap="None" origLeaderSecureGap="None" origLeaderSpeed="None" latGap="1.70"/>
    <change id="ramp.50" type="passenger" time="125.00" from="merge_0" to="merge_1" dir="1" speed="8.00" pos="29.72" reason="strategic|urgent" leaderGap="13.81" leaderSecureGap="5.33" leaderSpeed="9.83" followerGap="10.50" followerSecureGap="5.96" followerSpeed="6.98" origLeaderGap="None" origLeaderSecureGap="None" origLeaderSpeed="None" latGap="None"/>
    <change id="ramp.51" type="passenger_pushy" time="125.00" from="merge_0" to="merge_1" dir="1" speed="6.98" pos="14.22" reason="strategic|urgent" leaderGap="10.50" leaderSecureGap="5.96" leaderSpeed="8.00" followerGap="10.20" followerSecureGap="1.51" followerSpeed="3.99" origLeaderGap="None" origLeaderSecureGap="None" origLeaderSpeed="None" latGap="None"/>
    <change id="main.96" type="passenger" time="127.00" from="merge_1" to="merge_2" dir="1" speed="6.23" pos="17.42" reason="speedGain" leaderGap="30.71" leaderSecureGap="0.00" leaderSpeed="16.68" followerGap="9.41" followerSecureGap="1.22" followerSpeed="2.95" origLeaderGap="10.13" origLeaderSecureGap="0.81" origLeaderSpeed="10.33" latGap="None"/>
    <change id="ramp.52" type="passenger" time="128.00" from="merge_0" to="merge_1" dir="1" speed="8.33" pos="20.78" reason="strategic|urgent" leaderGap="19.53" leaderSecureGap="0.14" leaderSpeed="12.76" followerGap="9.42" followerSecureGap="0.00" followerSpeed="3.35" origLeaderGap="None" origLeaderSecureGap="None" origLeaderSpeed="None" latGap="2.10"/>
    <change id="main.101" type="passenger_pushy" time="131.00" from="beg_0" to="beg_1" dir="1" speed="3.70" pos="276.82" reason="speedGain" leaderGap="11.25" leaderSecureGap="3.70" leaderSpeed="5.95" followerGap="23.08" followerSecureGap="2.95" followerSpeed="2.95" origLeaderGap="8.45" origLeaderSecureGap="2.25" origLeaderSpeed="5.95" latGap="None"/>