<?xml version="1.0" encoding="UTF-8"?>

<!-- generated on 2025-12-09T10:56:51.636833+01:00 by Eclipse SUMO sumo v1_25_0+0281-f03d6951573
This data file and the accompanying materials
are made available under the terms of the Eclipse Public License v2.0
which accompanies this distribution, and is available at
http://www.eclipse.org/legal/epl-v20.html
This file may also be made available under the following Secondary
Licenses when the conditions for such availability set forth in the Eclipse
Public License 2.0 are satisfied: GNU General Public License, version 2
or later which is available at
https://www.gnu.org/licenses/old-licenses/gpl-2.0-standalone.html
SPDX-License-Identifier: EPL-2.0 OR GPL-2.0-or-later
<sumoConfiguration xmlns:xsi="http://www.w3.org/2001/XMLSchema-instance" xsi:noNamespaceSchemaLocation="http://sumo.dlr.de/xsd/sumoConfiguration.xsd">

    <input>
        <net-file value="net.net.xml"/>
        <route-files value="input_routes.rou.xml"/>
    </input>

    <output>
        <write-license value="true"/>
        <lanechange-output value="lanechanges.xml"/>
    </output>

    <processing>
        <lateral-resolution value="0.4"/>
        <default.speeddev value="0"/>
    </processing>

    <report>
        <xml-validation value="never"/>
        <duration-log.statistics value="true"/>
        <no-step-log value="true"/>
    </report>

</sumoConfiguration>
-->

<lanechanges>
    <change id="ramp.0" type="passenger" time="2.00" from="merge_0" to="merge_1" dir="1" speed="24.35" pos="37.68" reason="strategic|urgent" leaderGap="11.47" leaderSecureGap="0.00" leaderSpeed="32.50" followerGap="None" followerSecureGap="None" followerSpeed="None" origLeaderGap="None" origLeaderSecureGap="None" origLeaderSpeed="None" latGap="None"/>
    <change id="ramp.3" type="passenger_pushy" time="7.00" from="merge_0" to="merge_1" dir="1" speed="12.42" pos="39.11" reason="strategic|urgent" leaderGap="16.01" leaderSecureGap="0.00" leaderSpeed="16.32" followerGap="21.94" followerSecureGap="15.78" followerSpeed="18.03" origLeaderGap="16.01" origLeaderSecureGap="0.00" origLeaderSpeed="16.32" latGap="None"/>
    <change id="ramp.1" type="passenger" time="8.00" from="merge_0" to="merge_1" dir="1" speed="11.47" pos="92.60" reason="strategic|urgent" leaderGap="43.03" leaderSecureGap="0.00" leaderSpeed="34.86" followerGap="14.51" followerSecureGap="9.43" followerSpeed="12.97" origLeaderGap="None" origLeaderSecureGap="None" origLeaderSpeed="None" latGap="None"/>
    <change id="ramp.2" type="passenger" time="8.00" from="merge_0" to="merge_1" dir="1" speed="12.97" pos="73.09" reason="strategic|urgent" leaderGap="14.51" leaderSecureGap="9.43" leaderSpeed="11.47" followerGap="13.96" followerSecureGap="20.62" followerSpeed="15.02" origLeaderGap="None" origLeaderSecureGap="None" origLeaderSpeed="None" latGap="None"/>
    <change id="ramp.4" type="motorcycle" time="11.00" from="merge_0" to="merge_1" dir="1" speed="11.51" pos="54.17" reason="strategic|urgent" leaderGap="29.00" leaderSecureGap="11.83" leaderSpeed="11.18" followerGap="60.17" followerSecureGap="38.48" followerSpeed="21.25" origLeaderGap="None" origLeaderSecureGap="None" origLeaderSpeed="None" latGap="None"/>
    <change id="main.9" type="passenger_pushy" time="15.00" from="merge_1" to="merge_2" dir="1" speed="20.51" pos="17.95" reason="cooperative|urgent" leaderGap="17.02" leaderSecureGap="0.00" leaderSpeed="29.79" followerGap="20.86" followerSecureGap="17.82" followerSpeed="19.97" origLeaderGap="17.35" origLeaderSecureGap="25.00" origLeaderSpeed="19.38" latGap="None"/>
    <change id="ramp.6" type="motorcycle" time="16.00" from="merge_0" to="merge_1" dir="1" speed="10.09" pos="54.59" reason="strategic|urgent" leaderGap="None" leaderSecureGap="None" leaderSpeed="None" followerGap="128.01" followerSecureGap="75.82" followerSpeed="28.40" origLeaderGap="None" origLeaderSecureGap="None" origLeaderSpeed="None" latGap="2.30"/>
    <change id="main.8" type="truck" time="17.00" from="merge_1" to="merge_2" dir="1" speed="19.38" pos="80.57" reason="cooperative|urgent" leaderGap="13.99" leaderSecureGap="0.00" leaderSpeed="29.79" followerGap="18.98" followerSecureGap="15.76" followerSpeed="18.66" origLeaderGap="40.56" origLeaderSecureGap="0.00" origLeaderSpeed="25.08" latGap="None"/>
    <change id="main.14" type="passenger_pushy" time="18.00" from="beg_0" to="beg_1" dir="1" speed="23.90" pos="265.14" reason="speedGain" leaderGap="16.40" leaderSecureGap="0.00" leaderSpeed="29.69" followerGap="39.22" followerSecureGap="39.29" followerSpeed="26.47" origLeaderGap="91.88" origLeaderSecureGap="75.91" origLeaderSpeed="8.84" latGap="None"/>
    <change id="ramp.5" type="motorcycle" time="18.00" from="merge_0" to="merge_1" dir="1" speed="8.50" pos="85.04" reason="strategic|urgent" leaderGap="None" leaderSecureGap="None" leaderSpeed="None" followerGap="16.58" followerSecureGap="8.84" followerSpeed="8.84" origLeaderGap="None" origLeaderSecureGap="None" origLeaderSpeed="None" latGap="None"/>
    <change id="ramp.9" type="passenger_pushy" time="19.00" from="merge_0" to="merge_1" dir="1" speed="10.17" pos="22.53" reason="strategic|urgent" leaderGap="29.73" leaderSecureGap="6.12" leaderSpeed="7.07" followerGap="53.84" followerSecureGap="43.03" followerSpeed="24.40" origLeaderGap="12.89" origLeaderSecureGap="4.55" origLeaderSpeed="8.64" latGap="None"/>
    <change id="ramp.7" type="passenger" time="20.00" from="merge_0" to="merge_1" dir="1" speed="8.31" pos="65.57" reason="strategic|urgent" leaderGap="None" leaderSecureGap="None" leaderSpeed="None" followerGap="32.38" followerSecureGap="0.00" followerSpeed="5.67" origLeaderGap="None" origLeaderSecureGap="None" origLeaderSpeed="None" latGap="None"/>
    <change id="ramp.10" type="passenger_pushy" time="20.00" from="merge_0" to="merge_1" dir="1" speed="9.02" pos="17.34" reason="strategic|urgent" leaderGap="5.86" leaderSecureGap="6.10" leaderSpeed="5.67" followerGap="30.86" followerSecureGap="15.78" followerSpeed="17.79" origLeaderGap="22.23" origLeaderSecureGap="7.28" origLeaderSpeed="4.14" latGap="None"/>
    <change id="ramp.8" type="passenger" time="25.00" from="merge_0" to="merge_1" dir="1" speed="4.44" pos="58.00" reason="strategic|urgent" leaderGap="14.35" leaderSecureGap="0.00" leaderSpeed="13.47" followerGap="10.52" followerSecureGap="3.82" followerSpeed="4.02" origLeaderGap="None" origLeaderSecureGap="None" origLeaderSpeed="None" latGap="1.70"/>
    <change id="ramp.11" type="passenger_pushy" time="25.00" from="merge_0" to="merge_1" dir="1" speed="3.14" pos="29.39" reason="strategic|urgent" leaderGap="8.09" leaderSecureGap="3.03" leaderSpeed="4.02" followerGap="31.56" followerSecureGap="14.66" followerSpeed="13.89" origLeaderGap="None" origLeaderSecureGap="None" origLeaderSpeed="None" latGap="None"/>
    <change id="ramp.12" type="motorcycle" time="25.00" from="merge_0" to="merge_1" dir="1" speed="4.22" pos="18.75" reason="strategic|urgent" leaderGap="5.64" leaderSecureGap="2.60" leaderSpeed="3.14" followerGap="23.73" followerSecureGap="14.66" followerSpeed="13.89" origLeaderGap="None" origLeaderSecureGap="None" origLeaderSpeed="None" latGap="None"/>
    <change id="ramp.14" type="motorcycle" time="29.00" from="merge_0" to="merge_1" dir="1" speed="13.88" pos="24.20" reason="strategic|urgent" leaderGap="21.62" leaderSecureGap="11.03" leaderSpeed="16.72" followerGap="16.07" followerSecureGap="3.52" followerSpeed="5.95" origLeaderGap="None" origLeaderSecureGap="None" origLeaderSpeed="None" latGap="2.15"/>
    <change id="ramp.13" type="passenger_pushy" time="30.00" from="merge_0" to="merge_1" dir="1" speed="12.22" pos="63.03" reason="strategic|urgent" leaderGap="27.37" leaderSecureGap="4.44" leaderSpeed="16.49" followerGap="15.92" followerSecureGap="23.61" followerSpeed="17.92" origLeaderGap="None" origLeaderSecureGap="None" origLeaderSpeed="None" latGap="0.40"/>
    <change id="main.17" type="passenger_pushy" time="30.00" from="merge_1" to="merge_2" dir="1" speed="2.99" pos="27.17" reason="speedGain" leaderGap="4.98" leaderSecureGap="0.00" leaderSpeed="33.26" followerGap="88.46" followerSecureGap="116.04" followerSpeed="30.08" origLeaderGap="8.46" origLeaderSecureGap="0.00" origLeaderSpeed="5.96" latGap="None"/>
    <change id="ramp.15" type="passenger_pushy" time="35.00" from="merge_0" to="merge_1" dir="1" speed="6.42" pos="63.34" reason="strategic|urgent" leaderGap="9.30" leaderSecureGap="0.00" leaderSpeed="12.15" followerGap="10.06" followerSecureGap="7.56" followerSpeed="11.49" origLeaderGap="None" origLeaderSecureGap="None" origLeaderSpeed="None" latGap="None"/>
    <change id="ramp.16" type="passenger_pushy" time="36.00" from="merge_0" to="merge_1" dir="1" speed="6.99" pos="55.27" reason="strategic|urgent" leaderGap="9.79" leaderSecureGap="0.27" leaderSpeed="6.72" followerGap="29.32" followerSecureGap="1.19" followerSpeed="3.68" origLeaderGap="None" origLeaderSecureGap="None" origLeaderSpeed="None" latGap="None"/>
    <change id="ramp.17" type="motorcycle" time="36.00" from="merge_0" to="merge_1" dir="1" speed="10.28" pos="39.71" reason="strategic|urgent" leaderGap="10.56" leaderSecureGap="4.71" leaderSpeed="6.99" followerGap="16.56" followerSecureGap="3.41" followerSpeed="3.68" origLeaderGap="None" origLeaderSecureGap="None" origLeaderSpeed="None" latGap="None"/>
    <change id="ramp.18" type="passenger" time="39.00" from="merge_0" to="merge_1" dir="1" speed="6.26" pos="31.24" reason="strategic|urgent" leaderGap="29.18" leaderSecureGap="2.42" leaderSpeed="7.84" followerGap="11.51" followerSecureGap="8.78" followerSpeed="11.47" origLeaderGap="None" origLeaderSecureGap="None" origLeaderSpeed="None" latGap="None"/>
    <change id="ramp.19" type="passenger_pushy" time="39.00" from="merge_0" to="merge_1" dir="1" speed="11.47" pos="14.73" reason="strategic|urgent" leaderGap="11.51" leaderSecureGap="8.78" leaderSpeed="6.26" followerGap="57.35" followerSecureGap="17.07" followerSpeed="17.84" origLeaderGap="None" origLeaderSecureGap="None" origLeaderSpeed="None" latGap="0.90"/>
    <change id="main.22" type="motorcycle" time="42.00" from="merge_1" to="merge_2" dir="1" speed="0.38" pos="29.37" reason="cooperative|urgent" leaderGap="23.99" leaderSecureGap="0.00" leaderSpeed="19.90" followerGap="2.88" followerSecureGap="4.44" followerSpeed="4.44" origLeaderGap="None" origLeaderSecureGap="None" origLeaderSpeed="None" latGap="None"/>
    <change id="ramp.20" type="truck" time="46.00" from="merge_0" to="merge_1" dir="1" speed="2.60" pos="22.78" reason="strategic|urgent" leaderGap="11.36" leaderSecureGap="0.00" leaderSpeed="7.99" followerGap="7.02" followerSecureGap="0.69" followerSpeed="0.69" origLeaderGap="None" origLeaderSecureGap="None" origLeaderSpeed="None" latGap="None"/>
    <change id="ramp.21" type="passenger" time="50.00" from="merge_0" to="merge_1" dir="1" speed="9.78" pos="34.69" reason="strategic|urgent" leaderGap="17.99" leaderSecureGap="3.33" leaderSpeed="13.00" followerGap="10.94" followerSecureGap="0.00" followerSpeed="4.40" origLeaderGap="None" origLeaderSecureGap="None" origLeaderSpeed="None" latGap="None"/>
    <change id="ramp.22" type="passenger" time="52.00" from="merge_0" to="merge_1" dir="1" speed="1.83" pos="5.37" reason="strategic|urgent" leaderGap="7.88" leaderSecureGap="0.00" leaderSpeed="7.00" followerGap="5.44" followerSecureGap="0.50" followerSpeed="0.50" origLeaderGap="None" origLeaderSecureGap="None" origLeaderSpeed="None" latGap="None"/>
    <change id="ramp.23" type="passenger" time="57.00" from="merge_0" to="merge_1" dir="1" speed="10.88" pos="27.13" reason="strategic|urgent" leaderGap="21.39" leaderSecureGap="1.64" leaderSpeed="14.83" followerGap="26.16" followerSecureGap="0.00" followerSpeed="2.60" origLeaderGap="None" origLeaderSecureGap="None" origLeaderSpeed="None" latGap="None"/>
    <change id="ramp.24" type="passenger_pushy" time="58.00" from="merge_0" to="merge_1" dir="1" speed="9.44" pos="16.76" reason="strategic|urgent" leaderGap="18.84" leaderSecureGap="1.37" leaderSpeed="13.48" followerGap="14.54" followerSecureGap="0.00" followerSpeed="1.25" origLeaderGap="None" origLeaderSecureGap="None" origLeaderSpeed="None" latGap="1.30"/>
    <change id="ramp.26" type="passenger_pushy" time="61.00" from="merge_0" to="merge_1" dir="1" speed="7.30" pos="9.05" reason="strategic|urgent" leaderGap="18.07" leaderSecureGap="0.00" leaderSpeed="12.73" followerGap="2.88" followerSecureGap="0.00" followerSpeed="0.00" origLeaderGap="None" origLeaderSecureGap="None" origLeaderSpeed="None" latGap="None"/>
    <change id="ramp.25" type="passenger_pushy" time="63.00" from="merge_0" to="merge_1" dir="1" speed="17.93" pos="65.38" reason="strategic|urgent" leaderGap="32.59" leaderSecureGap="0.00" leaderSpeed="22.44" followerGap="29.91" followerSecureGap="0.00" followerSpeed="11.52" origLeaderGap="None" origLeaderSecureGap="None" origLeaderSpeed="None" latGap="None"/>
    <change id="ramp.27" type="passenger" time="68.00" from="merge_0" to="merge_1" dir="1" speed="7.61" pos="72.72" reason="strategic|urgent" leaderGap="15.99" leaderSecureGap="0.00" leaderSpeed="13.71" followerGap="12.14" followerSecureGap="9.18" followerSpeed="9.18" origLeaderGap="None" origLeaderSecureGap="None" origLeaderSpeed="None" latGap="None"/>
    <change id="ramp.28" type="passenger" time="69.00" from="merge_0" to="merge_1" dir="1" speed="3.97" pos="47.85" reason="strategic|urgent" leaderGap="15.17" leaderSecureGap="1.86" leaderSpeed="9.64" followerGap="8.88" followerSecureGap="5.21" followerSpeed="5.21" origLeaderGap="None" origLeaderSecureGap="None" origLeaderSpeed="None" latGap="None"/>
    <change id="ramp.29" type="passenger" time="72.00" from="merge_0" to="merge_1" dir="1" speed="4.49" pos="38.43" reason="strategic|urgent" leaderGap="15.45" leaderSecureGap="4.49" leaderSpeed="9.17" followerGap="8.51" followerSecureGap="2.15" followerSpeed="2.15" origLeaderGap="None" origLeaderSecureGap="None" origLeaderSpeed="None" latGap="None"/>
    <change id="ramp.30" type="truck" time="75.00" from="merge_0" to="merge_1" dir="1" speed="8.30" pos="44.91" reason="strategic|urgent" leaderGap="None" leaderSecureGap="None" leaderSpeed="None" followerGap="8.25" followerSecureGap="0.00" followerSpeed="3.50" origLeaderGap="None" origLeaderSecureGap="None" origLeaderSpeed="None" latGap="None"/>
    <change id="ramp.31" type="passenger" time="78.00" from="merge_0" to="merge_1" dir="1" speed="2.60" pos="21.41" reason="strategic|urgent" leaderGap="11.04" leaderSecureGap="0.00" leaderSpeed="8.70" followerGap="6.27" followerSecureGap="0.08" followerSpeed="0.08" origLeaderGap="None" origLeaderSecureGap="None" origLeaderSpeed="None" latGap="None"/>
    <change id="ramp.32" type="passenger" time="82.00" from="merge_0" to="merge_1" dir="1" speed="9.63" pos="34.25" reason="strategic|urgent" leaderGap="18.57" leaderSecureGap="2.90" leaderSpeed="13.00" followerGap="10.51" followerSecureGap="0.00" followerSpeed="4.26" origLeaderGap="None" origLeaderSecureGap="None" origLeaderSpeed="None" latGap="None"/>
    <change id="ramp.33" type="truck" time="89.00" from="merge_0" to="merge_1" dir="1" speed="13.00" pos="44.20" reason="strategic|urgent" leaderGap="42.18" leaderSecureGap="0.00" leaderSpeed="19.86" followerGap="23.12" followerSecureGap="0.00" followerSpeed="5.02" origLeaderGap="None" origLeaderSecureGap="None" origLeaderSpeed="None" latGap="None"/>
    <change id="ramp.34" type="passenger" time="91.00" from="merge_0" to="merge_1" dir="1" speed="12.60" pos="44.80" reason="strategic|urgent" leaderGap="26.70" leaderSecureGap="0.00" leaderSpeed="18.20" followerGap="10.96" followerSecureGap="0.00" followerSpeed="6.91" origLeaderGap="None" origLeaderSecureGap="None" origLeaderSpeed="None" latGap="None"/>
    <change id="ramp.35" type="motorcycle" time="92.00" from="merge_0" to="merge_1" dir="1" speed="7.28" pos="21.34" reason="strategic|urgent" leaderGap="12.01" leaderSecureGap="7.28" leaderSpeed="9.51" followerGap="15.25" followerSecureGap="0.00" followerSpeed="0.00" origLeaderGap="None" origLeaderSecureGap="None" origLeaderSpeed="None" latGap="1.75"/>
    <change id="ramp.37" type="passenger_pushy" time="95.00" from="merge_0" to="merge_1" dir="1" speed="0.00" pos="4.41" reason="strategic|urgent" leaderGap="9.94" leaderSecureGap="0.00" leaderSpeed="8.22" followerGap="94.57" followerSecureGap="3.43" followerSpeed="3.43" origLeaderGap="26.56" origLeaderSecureGap="0.00" origLeaderSpeed="11.06" latGap="1.20"/>
    <change id="ramp.36" type="passenger" time="97.00" from="merge_0" to="merge_1" dir="1" speed="15.58" pos="64.53" reason="strategic|urgent" leaderGap="25.36" leaderSecureGap="0.68" leaderSpeed="19.91" followerGap="17.12" followerSecureGap="0.00" followerSpeed="10.88" origLeaderGap="None" origLeaderSecureGap="None" origLeaderSpeed="None" latGap="None"/>
    <change id="ramp.38" type="passenger_pushy" time="99.00" from="merge_0" to="merge_1" dir="1" speed="7.80" pos="12.51" reason="strategic|urgent" leaderGap="12.90" leaderSecureGap="3.80" leaderSpeed="10.40" followerGap="54.60" followerSecureGap="6.89" followerSpeed="7.35" origLeaderGap="None" origLeaderSecureGap="None" origLeaderSpeed="None" latGap="0.90"/>
    <change id="ramp.40" type="motorcycle" time="103.00" from="merge_0" to="merge_1" dir="1" speed="7.53" pos="13.68" reason="strategic|urgent" leaderGap="10.12" leaderSecureGap="7.53" leaderSpeed="6.61" followerGap="63.22" followerSecureGap="0.00" followerSpeed="0.00" origLeaderGap="None" origLeaderSecureGap="None" origLeaderSpeed="None" latGap="1.75"/>
    <change id="ramp.39" type="passenger" time="104.00" from="merge_0" to="merge_1" dir="1" speed="6.40" pos="35.20" reason="strategic|urgent" leaderGap="15.34" leaderSecureGap="0.00" leaderSpeed="10.92" followerGap="16.52" followerSecureGap="0.00" followerSpeed="0.00" origLeaderGap="None" origLeaderSecureGap="None" origLeaderSpeed="None" latGap="None"/>
    <change id="ramp.41" type="motorcycle" time="106.00" from="merge_0" to="merge_1" dir="1" speed="9.42" pos="30.24" reason="strategic|urgent" leaderGap="20.57" leaderSecureGap="7.42" leaderSpeed="11.60" followerGap="8.50" followerSecureGap="5.86" followerSpeed="5.86" origLeaderGap="None" origLeaderSecureGap="None" origLeaderSpeed="None" latGap="1.75"/>
    <change id="main.71" type="truck" time="109.00" from="merge_1" to="merge_2" dir="1" speed="10.80" pos="31.65" reason="sublane" leaderGap="15.90" leaderSecureGap="5.60" leaderSpeed="13.40" followerGap="25.67" followerSecureGap="0.00" followerSpeed="2.19" origLeaderGap="None" origLeaderSecureGap="None" origLeaderSpeed="None" latGap="None"/>
    <change id="ramp.42" type="truck" time="109.00" from="merge_0" to="merge_1" dir="1" speed="4.05" pos="14.43" reason="strategic|urgent" leaderGap="14.91" leaderSecureGap="4.05" leaderSpeed="6.00" followerGap="18.15" followerSecureGap="3.35" followerSpeed="3.35" origLeaderGap="None" origLeaderSecureGap="None" origLeaderSpeed="None" latGap="None"/>
    <change id="main.71" type="truck" time="112.00" from="merge_2" to="merge_1" dir="-1" speed="18.60" pos="79.66" reason="sublane" leaderGap="23.70" leaderSecureGap="8.20" leaderSpeed="21.20" followerGap="30.98" followerSecureGap="0.00" followerSpeed="11.85" origLeaderGap="0.16" origLeaderSecureGap="0.00" origLeaderSpeed="31.41" latGap="None"/>
    <change id="ramp.43" type="passenger" time="113.00" from="merge_0" to="merge_1" dir="1" speed="10.37" pos="29.77" reason="strategic|urgent" leaderGap="17.96" leaderSecureGap="7.01" leaderSpeed="12.05" followerGap="24.80" followerSecureGap="0.00" followerSpeed="2.89" origLeaderGap="None" origLeaderSecureGap="None" origLeaderSpeed="None" latGap="None"/>
    <change id="ramp.45" type="passenger_pushy" time="115.00" from="merge_0" to="merge_1" dir="1" speed="10.50" pos="13.01" reason="strategic|urgent" leaderGap="12.79" leaderSecureGap="8.97" leaderSpeed="11.27" followerGap="23.04" followerSecureGap="0.00" followerSpeed="2.89" origLeaderGap="None" origLeaderSecureGap="None" origLeaderSpeed="None" latGap="1.30"/>
    <change id="ramp.44" type="truck" time="116.00" from="merge_0" to="merge_1" dir="1" speed="10.59" pos="42.88" reason="strategic|urgent" leaderGap="21.25" leaderSecureGap="2.39" leaderSpeed="14.29" followerGap="12.44" followerSecureGap="11.65" followerSpeed="10.94" origLeaderGap="None" origLeaderSecureGap="None" origLeaderSpeed="None" latGap="None"/>
    <change id="ramp.46" type="motorcycle" time="119.00" from="merge_0" to="merge_1" dir="1" speed="9.85" pos="40.58" reason="strategic|urgent" leaderGap="17.27" leaderSecureGap="4.28" leaderSpeed="15.57" followerGap="86.42" followerSecureGap="2.89" followerSpeed="2.89" origLeaderGap="None" origLeaderSecureGap="None" origLeaderSpeed="None" latGap="None"/>
    <change id="ramp.47" type="passenger" time="122.00" from="merge_0" to="merge_1" dir="1" speed="14.07" pos="52.31" reason="strategic|urgent" leaderGap="39.92" leaderSecureGap="17.86" leaderSpeed="20.70" followerGap="8.57" followerSecureGap="0.00" followerSpeed="8.69" origLeaderGap="None" origLeaderSecureGap="None" origLeaderSpeed="None" latGap="None"/>
    <change id="ramp.48" type="passenger" time="124.00" from="merge_0" to="merge_1" dir="1" speed="2.60" pos="23.09" reason="strategic|urgent" leaderGap="14.44" leaderSecureGap="0.00" leaderSpeed="11.29" followerGap="5.10" followerSecureGap="1.96" followerSpeed="1.96" origLeaderGap="None" origLeaderSecureGap="None" origLeaderSpeed="None" latGap="None"/>
    <change id="ramp.49" type="passenger" time="124.00" from="merge_0" to="merge_1" dir="1" speed="1.96" pos="12.99" reason="strategic|urgent" leaderGap="5.10" leaderSecureGap="1.96" leaderSpeed="2.60" followerGap="4.78" followerSecureGap="0.66" followerSpeed="0.66" origLeaderGap="None" origLeaderSecureGap="None" origLeaderSpeed="None" latGap="None"/>
    <change id="ramp.50" type="passenger" time="129.00" from="merge_0" to="merge_1" dir="1" speed="8.16" pos="24.88" reason="strategic|urgent" leaderGap="15.61" leaderSecureGap="1.91" leaderSpeed="11.70" followerGap="10.72" followerSecureGap="3.09" followerSpeed="5.62" origLeaderGap="None" origLeaderSecureGap="None" origLeaderSpeed="None" latGap="None"/>
    <change id="ramp.51" type="passenger_pushy" time="129.00" from="merge_0" to="merge_1" dir="1" speed="5.62" pos="9.16" reason="strategic|urgent" leaderGap="10.72" leaderSecureGap="3.09" leaderSpeed="8.16" followerGap="41.76" followerSecureGap="0.00" followerSpeed="0.35" origLeaderGap="None" origLeaderSecureGap="None" origLeaderSpeed="None" latGap="0.90"/>
    <change id="ramp.52" type="passenger" time="133.00" from="merge_0" to="merge_1" dir="1" speed="11.63" pos="30.54" reason="strategic|urgent" leaderGap="21.43" leaderSecureGap="0.98" leaderSpeed="15.80" followerGap="14.48" followerSecureGap="0.00" followerSpeed="1.30" origLeaderGap="None" origLeaderSecureGap="None" origLeaderSpeed="None" latGap="None"/>
    <change id="ramp.53" type="passenger" time="135.00" from="merge_0" to="merge_1" dir="1" speed="12.35" pos="35.21" reason="strategic|urgent" leaderGap="21.38" leaderSecureGap="0.05" leaderSpeed="16.83" followerGap="8.75" followerSecureGap="0.00" followerSpeed="6.50" origLeaderGap="None" origLeaderSecureGap="None" origLeaderSpeed="None" latGap="None"/>
    <change id="ramp.54" type="motorcycle" time="138.00" from="merge_0" to="merge_1" dir="1" speed="4.58" pos="39.52" reason="strategic|urgent" leaderGap="10.54" leaderSecureGap="0.00" leaderSpeed="14.30" followerGap="75.57" followerSecureGap="1.39" followerSpeed="1.39" origLeaderGap="4.81" origLeaderSecureGap="0.00" origLeaderSpeed="19.21" latGap="None"/>
    <change id="ramp.55" type="motorcycle" time="140.00" from="merge_0" to="merge_1" dir="1" speed="12.61" pos="68.75" reason="strategic|urgent" leaderGap="17.71" leaderSecureGap="5.73" leaderSpeed="19.50" followerGap="16.09" followerSecureGap="3.75" followerSpeed="6.36" origLeaderGap="None" origLeaderSecureGap="None" origLeaderSpeed="None" latGap="None"/>
    <change id="ramp.56" type="passenger_pushy" time="140.00" from="merge_0" to="merge_1" dir="1" speed="7.68" pos="29.34" reason="strategic|urgent" leaderGap="18.92" leaderSecureGap="10.87" leaderSpeed="6.36" followerGap="58.68" followerSecureGap="0.07" followerSpeed="3.25" origLeaderGap="None" origLeaderSecureGap="None" origLeaderSpeed="None" latGap="0.90"/>
    <change id="ramp.57" type="passenger" time="143.00" from="merge_0" to="merge_1" dir="1" speed="6.31" pos="36.26" reason="strategic|urgent" leaderGap="17.09" leaderSecureGap="0.00" leaderSpeed="10.82" followerGap="10.33" followerSecureGap="0.91" followerSpeed="2.72" origLeaderGap="None" origLeaderSecureGap="None" origLeaderSpeed="None" latGap="None"/>
    <change id="ramp.58" type="truck" time="147.00" from="merge_0" to="merge_1" dir="1" speed="12.63" pos="57.93" reason="strategic|urgent" leaderGap="24.58" leaderSecureGap="1.27" leaderSpeed="16.71" followerGap="11.39" followerSecureGap="0.00" followerSpeed="7.26" origLeaderGap="None" origLeaderSecureGap="None" origLeaderSpeed="None" latGap="None"/>
    <change id="main.148" type="passenger" time="148.00" from="beg_0" to="beg_1" dir="1" speed="20.49" pos="119.90" reason="speedGain" leaderGap="10.41" leaderSecureGap="0.00" leaderSpeed="36.02" followerGap="None" followerSecureGap="None" followerSpeed="None" origLeaderGap="70.99" origLeaderSecureGap="43.63" origLeaderSpeed="7.39" latGap="None"/>
    <change id="ramp.59" type="passenger" time="150.00" from="merge_0" to="merge_1" dir="1" speed="9.25" pos="54.10" reason="strategic|urgent" leaderGap="18.30" leaderSecureGap="0.00" leaderSpeed="15.06" followerGap="19.29" followerSecureGap="0.82" followerSpeed="5.16" origLeaderGap="None" origLeaderSecureGap="None" origLeaderSpeed="None" latGap="None"/>
    <change id="ramp.61" type="passenger_pushy" time="150.00" from="merge_0" to="merge_1" dir="1" speed="6.44" pos="21.42" reason="strategic|urgent" leaderGap="27.68" leaderSecureGap="3.37" leaderSpeed="9.25" followerGap="9.33" followerSecureGap="0.00" followerSpeed="0.00" origLeaderGap="10.92" origLeaderSecureGap="6.23" origLeaderSpeed="6.65" latGap="None"/>
    <change id="main.140" type="passenger_pushy" time="150.00" from="beg_0" to="beg_1" dir="1" speed="4.72" pos="192.31" reason="speedGain" leaderGap="3.94" leaderSecureGap="0.00" leaderSpeed="32.14" followerGap="33.39" followerSecureGap="44.73" followerSpeed="17.99" origLeaderGap="10.65" origLeaderSecureGap="4.94" origLeaderSpeed="5.13" latGap="None"/>
    <change id="main.122" type="passenger_pushy" time="151.00" from="beg_0" to="beg_1" dir="1" speed="4.30" pos="239.66" reason="speedGain" leaderGap="28.17" leaderSecureGap="1.15" leaderSpeed="2.72" followerGap="21.76" followerSecureGap="10.97" followerSpeed="7.73" origLeaderGap="7.16" origLeaderSecureGap="1.00" origLeaderSpeed="4.66" latGap="None"/>
    <change id="main.130" type="passenger_pushy" time="151.00" from="beg_0" to="beg_1" dir="1" speed="7.73" pos="212.90" reason="speedGain" leaderGap="14.26" leaderSecureGap="0.00" leaderSpeed="30.90" followerGap="10.34" followerSecureGap="2.75" followerSpeed="5.24" origLeaderGap="9.96" origLeaderSecureGap="8.01" origLeaderSpeed="7.45" latGap="None"/>
    <change id="ramp.60" type="passenger" time="152.00" from="merge_0" to="merge_1" dir="1" speed="10.37" pos="55.49" reason="strategic|urgent" leaderGap="19.91" leaderSecureGap="1.27" leaderSpeed="14.45" followerGap="13.32" followerSecureGap="4.68" followerSpeed="8.22" origLeaderGap="None" origLeaderSecureGap="None" origLeaderSpeed="None" latGap="None"/>
    <change id="ramp.62" type="passenger_pushy" time="152.00" from="merge_0" to="merge_1" dir="1" speed="7.70" pos="21.30" reason="strategic|urgent" leaderGap="10.88" leaderSecureGap="7.18" leaderSpeed="8.22" followerGap="6.65" followerSecureGap="0.00" followerSpeed="2.56" origLeaderGap="None" origLeaderSecureGap="None" origLeaderSpeed="None" latGap="None"/>
    <change id="main.102" type="motorcycle" time="152.00" from="merge_1" to="merge_2" dir="1" speed="2.56" pos="4.95" reason="speedGain" leaderGap="2.50" leaderSecureGap="2.56" leaderSpeed="0.00" followerGap="5.06" followerSecureGap="0.00" followerSpeed="0.00" origLeaderGap="None" origLeaderSecureGap="None" origLeaderSpeed="None" latGap="0.80"/>
    <change id="main.149" type="passenger" time="153.00" from="beg_0" to="beg_1" dir="1" speed="15.11" pos="151.70" reason="speedGain" leaderGap="35.11" leaderSecureGap="16.49" leaderSpeed="11.41" followerGap="6.23" followerSecureGap="12.05" followerSpeed="14.97" origLeaderGap="25.85" origLeaderSecureGap="25.07" origLeaderSpeed="5.24" latGap="None"/>
    <change id="main.151" type="passenger_pushy" time="153.00" from="beg_0" to="beg_1" dir="1" speed="14.97" pos="140.47" reason="speedGain" leaderGap="6.23" leaderSecureGap="12.05" leaderSpeed="15.11" followerGap="None" followerSecureGap="None" followerSpeed="None" origLeaderGap="37.08" origLeaderSecureGap="29.63" origLeaderSpeed="5.24" latGap="None"/>
    <change id="main.154" type="motorcycle" time="153.00" from="beg_0" to="beg_1" dir="1" speed="20.44" pos="115.04" reason="speedGain" leaderGap="20.42" leaderSecureGap="26.36" leaderSpeed="14.97" followerGap="None" followerSecureGap="None" followerSpeed="None" origLeaderGap="113.15" origLeaderSecureGap="31.29" origLeaderSpeed="10.04" latGap="None"/>
    <change id="main.118" type="motorcycle" time="154.00" from=":gneJ0_1_0" to=":gneJ0_1_1" dir="1" speed="2.56" pos="6.31" reason="speedGain" leaderGap="7.20" leaderSecureGap="2.56" leaderSpeed="0.00" followerGap="18.14" followerSecureGap="22.81" followerSpeed="12.10" origLeaderGap="0.10" origLeaderSecureGap="2.56" origLeaderSpeed="2.56" latGap="None"/>
    <change id="main.93" type="passenger" time="154.00" from="merge_1" to="merge_2" dir="1" speed="0.00" pos="17.15" reason="cooperative|urgent" leaderGap="4.43" leaderSecureGap="0.00" leaderSpeed="28.41" followerGap="2.50" followerSecureGap="0.00" followerSpeed="0.00" origLeaderGap="13.80" origLeaderSecureGap="0.00" origLeaderSpeed="6.35" latGap="None"/>