<?xml version="1.0" encoding="UTF-8"?>

<!-- generated on Wed Nov 18 21:46:25 2020 by Eclipse SUMO sumo Version v1_7_0+1112-e056a1a72e
This data file and the accompanying materials
are made available under the terms of the Eclipse Public License v2.0
which accompanies this distribution, and is available at
http://www.eclipse.org/legal/epl-v20.html
SPDX-License-Identifier: EPL-2.0
<configuration xmlns:xsi="http://www.w3.org/2001/XMLSchema-instance" xsi:noNamespaceSchemaLocation="http://sumo.dlr.de/xsd/sumoConfiguration.xsd">

    <input>
        <net-file value="net.net.xml"/>
        <route-files value="input_routes.rou.xml"/>
    </input>

    <output>
        <write-license value="true"/>
        <lanechange-output value="lanechanges.xml"/>
    </output>

    <processing>
        <lateral-resolution value="0.4"/>
        <default.speeddev value="0"/>
    </processing>

    <report>
        <verbose value="true"/>
        <xml-validation value="never"/>
        <xml-validation.routes value="never"/>
        <duration-log.statistics value="true"/>
        <no-step-log value="true"/>
    </report>

</configuration>
-->

<lanechanges>
    <change id="ramp.0" type="passenger" time="2.00" from="merge_0" to="merge_1" dir="1" speed="24.20" pos="37.53" reason="strategic|urgent" leaderGap="11.62" leaderSecureGap="0.00" leaderSpeed="32.50" followerGap="None" followerSecureGap="None" followerSpeed="None" origLeaderGap="None" origLeaderSecureGap="None" origLeaderSpeed="None" latGap="None"/>
    <change id="ramp.1" type="passenger" time="8.00" from="merge_0" to="merge_1" dir="1" speed="12.42" pos="90.70" reason="strategic|urgent" leaderGap="44.02" leaderSecureGap="0.00" leaderSpeed="34.86" followerGap="13.28" followerSecureGap="12.09" followerSpeed="12.31" origLeaderGap="None" origLeaderSecureGap="None" origLeaderSpeed="None" latGap="None"/>
    <change id="ramp.2" type="passenger" time="8.00" from="merge_0" to="merge_1" dir="1" speed="12.31" pos="72.42" reason="strategic|urgent" leaderGap="13.28" leaderSecureGap="12.09" leaderSpeed="12.42" followerGap="13.30" followerSecureGap="21.95" followerSpeed="15.02" origLeaderGap="None" origLeaderSecureGap="None" origLeaderSpeed="None" latGap="None"/>
    <change id="ramp.3" type="passenger_pushy" time="8.00" from="merge_0" to="merge_1" dir="1" speed="15.02" pos="54.13" reason="strategic|urgent" leaderGap="13.30" leaderSecureGap="21.95" leaderSpeed="12.31" followerGap="22.72" followerSecureGap="18.06" followerSpeed="16.54" origLeaderGap="None" origLeaderSecureGap="None" origLeaderSpeed="None" latGap="None"/>
    <change id="main.5" type="passenger" time="9.00" from="merge_1" to="merge_2" dir="1" speed="9.18" pos="34.43" reason="speedGain" leaderGap="8.15" leaderSecureGap="0.00" leaderSpeed="30.01" followerGap="None" followerSecureGap="None" followerSpeed="None" origLeaderGap="26.50" origLeaderSecureGap="3.94" origLeaderSpeed="11.80" latGap="None"/>
    <change id="ramp.4" type="motorcycle" time="11.00" from="merge_0" to="merge_1" dir="1" speed="14.53" pos="60.02" reason="strategic|urgent" leaderGap="22.93" leaderSecureGap="17.77" leaderSpeed="11.29" followerGap="66.02" followerSecureGap="56.70" followerSpeed="21.25" origLeaderGap="None" origLeaderSecureGap="None" origLeaderSpeed="None" latGap="None"/>
    <change id="ramp.5" type="motorcycle" time="14.00" from="merge_0" to="merge_1" dir="1" speed="11.55" pos="78.94" reason="strategic|urgent" leaderGap="None" leaderSecureGap="None" leaderSpeed="None" followerGap="38.02" followerSecureGap="29.83" followerSpeed="14.59" origLeaderGap="None" origLeaderSecureGap="None" origLeaderSpeed="None" latGap="None"/>
    <change id="main.14" type="passenger_pushy" time="18.00" from="beg_0" to="beg_1" dir="1" speed="23.53" pos="266.78" reason="cooperative|urgent" leaderGap="47.90" leaderSecureGap="0.00" leaderSpeed="29.04" followerGap="78.50" followerSecureGap="98.57" followerSpeed="34.34" origLeaderGap="35.41" origLeaderSecureGap="71.95" origLeaderSpeed="6.25" latGap="None"/>
    <change id="ramp.6" type="motorcycle" time="18.00" from="merge_0" to="merge_1" dir="1" speed="11.87" pos="100.17" reason="strategic|urgent" leaderGap="66.12" leaderSecureGap="0.00" leaderSpeed="25.66" followerGap="28.52" followerSecureGap="24.78" followerSpeed="13.38" origLeaderGap="None" origLeaderSecureGap="None" origLeaderSpeed="None" latGap="None"/>
    <change id="ramp.9" type="passenger_pushy" time="18.00" from="merge_0" to="merge_1" dir="1" speed="6.25" pos="14.23" reason="strategic|urgent" leaderGap="11.29" leaderSecureGap="0.00" leaderSpeed="13.99" followerGap="67.94" followerSecureGap="49.96" followerSpeed="26.65" origLeaderGap="11.36" origLeaderSecureGap="3.92" origLeaderSpeed="8.59" latGap="None"/>
    <change id="ramp.10" type="passenger_pushy" time="19.00" from="merge_0" to="merge_1" dir="1" speed="3.02" pos="6.95" reason="strategic|urgent" leaderGap="8.76" leaderSecureGap="1.05" leaderSpeed="6.47" followerGap="40.60" followerSecureGap="30.15" followerSpeed="20.05" origLeaderGap="27.94" origLeaderSecureGap="0.00" origLeaderSpeed="9.29" latGap="None"/>
    <change id="ramp.7" type="passenger" time="22.00" from="merge_0" to="merge_1" dir="1" speed="6.16" pos="77.81" reason="strategic|urgent" leaderGap="12.90" leaderSecureGap="0.00" leaderSpeed="14.49" followerGap="14.52" followerSecureGap="4.35" followerSpeed="5.25" origLeaderGap="None" origLeaderSecureGap="None" origLeaderSpeed="None" latGap="None"/>
    <change id="ramp.8" type="passenger" time="23.00" from="merge_0" to="merge_1" dir="1" speed="3.31" pos="51.53" reason="strategic|urgent" leaderGap="9.60" leaderSecureGap="0.00" leaderSpeed="7.85" followerGap="8.62" followerSecureGap="2.63" followerSpeed="2.63" origLeaderGap="None" origLeaderSecureGap="None" origLeaderSpeed="None" latGap="None"/>
    <change id="ramp.11" type="passenger_pushy" time="23.00" from="merge_0" to="merge_1" dir="1" speed="4.50" pos="16.10" reason="strategic|urgent" leaderGap="16.82" leaderSecureGap="4.51" leaderSpeed="2.63" followerGap="74.03" followerSecureGap="53.04" followerSpeed="19.61" origLeaderGap="None" origLeaderSecureGap="None" origLeaderSpeed="None" latGap="0.40"/>
    <change id="ramp.12" type="motorcycle" time="24.00" from="merge_0" to="merge_1" dir="1" speed="4.50" pos="8.60" reason="strategic|urgent" leaderGap="2.61" leaderSecureGap="4.50" leaderSpeed="0.11" followerGap="51.29" followerSecureGap="45.16" followerSpeed="18.03" origLeaderGap="None" origLeaderSecureGap="None" origLeaderSpeed="None" latGap="None"/>
    <change id="main.24" type="motorcycle" time="27.00" from="beg_0" to="beg_1" dir="1" speed="20.10" pos="236.50" reason="speedGain" leaderGap="None" leaderSecureGap="None" leaderSpeed="None" followerGap="None" followerSecureGap="None" followerSpeed="None" origLeaderGap="22.09" origLeaderSecureGap="23.19" origLeaderSpeed="17.13" latGap="None"/>
    <change id="ramp.13" type="passenger_pushy" time="32.00" from="merge_0" to="merge_1" dir="1" speed="7.92" pos="28.83" reason="strategic|urgent" leaderGap="18.35" leaderSecureGap="9.47" leaderSpeed="11.86" followerGap="7.98" followerSecureGap="0.00" followerSpeed="0.00" origLeaderGap="None" origLeaderSecureGap="None" origLeaderSpeed="None" latGap="None"/>
    <change id="ramp.15" type="passenger_pushy" time="36.00" from="merge_0" to="merge_1" dir="1" speed="0.40" pos="4.58" reason="strategic|urgent" leaderGap="12.88" leaderSecureGap="0.00" leaderSpeed="7.80" followerGap="6.59" followerSecureGap="2.86" followerSpeed="2.86" origLeaderGap="None" origLeaderSecureGap="None" origLeaderSpeed="None" latGap="1.20"/>
    <change id="ramp.14" type="motorcycle" time="37.00" from="merge_0" to="merge_1" dir="1" speed="6.00" pos="15.28" reason="strategic|urgent" leaderGap="12.58" leaderSecureGap="5.60" leaderSpeed="10.40" followerGap="8.50" followerSecureGap="0.00" followerSpeed="0.00" origLeaderGap="None" origLeaderSecureGap="None" origLeaderSpeed="None" latGap="None"/>
    <change id="ramp.16" type="passenger_pushy" time="41.00" from="merge_0" to="merge_1" dir="1" speed="7.80" pos="12.68" reason="strategic|urgent" leaderGap="12.90" leaderSecureGap="3.80" leaderSpeed="10.40" followerGap="36.09" followerSecureGap="0.00" followerSpeed="2.60" origLeaderGap="None" origLeaderSecureGap="None" origLeaderSpeed="None" latGap="0.90"/>
    <change id="ramp.17" type="motorcycle" time="44.00" from="merge_0" to="merge_1" dir="1" speed="7.28" pos="25.11" reason="strategic|urgent" leaderGap="12.51" leaderSecureGap="7.28" leaderSpeed="9.50" followerGap="39.89" followerSecureGap="5.00" followerSpeed="4.75" origLeaderGap="None" origLeaderSecureGap="None" origLeaderSpeed="None" latGap="None"/>
    <change id="main.25" type="motorcycle" time="45.00" from="end_0" to="end_1" dir="1" speed="26.59" pos="53.86" reason="sublane" leaderGap="15.06" leaderSecureGap="12.19" leaderSpeed="32.53" followerGap="67.37" followerSecureGap="42.47" followerSpeed="31.41" origLeaderGap="32.60" origLeaderSecureGap="23.21" origLeaderSpeed="28.28" latGap="None"/>
    <change id="ramp.18" type="passenger" time="47.00" from="merge_0" to="merge_1" dir="1" speed="7.49" pos="27.92" reason="strategic|urgent" leaderGap="26.89" leaderSecureGap="8.15" leaderSpeed="12.33" followerGap="26.15" followerSecureGap="3.31" followerSpeed="5.40" origLeaderGap="None" origLeaderSecureGap="None" origLeaderSpeed="None" latGap="None"/>
    <change id="ramp.19" type="passenger_pushy" time="48.00" from="merge_0" to="merge_1" dir="1" speed="10.44" pos="16.04" reason="strategic|urgent" leaderGap="16.98" leaderSecureGap="11.13" leaderSpeed="10.09" followerGap="8.17" followerSecureGap="0.32" followerSpeed="6.10" origLeaderGap="None" origLeaderSecureGap="None" origLeaderSpeed="None" latGap="1.30"/>
    <change id="ramp.20" type="truck" time="51.00" from="merge_0" to="merge_1" dir="1" speed="6.35" pos="16.98" reason="strategic|urgent" leaderGap="35.02" leaderSecureGap="0.00" leaderSpeed="15.79" followerGap="10.75" followerSecureGap="2.38" followerSpeed="4.23" origLeaderGap="None" origLeaderSecureGap="None" origLeaderSpeed="None" latGap="None"/>
    <change id="ramp.21" type="passenger" time="53.00" from="merge_0" to="merge_1" dir="1" speed="7.47" pos="15.05" reason="strategic|urgent" leaderGap="15.93" leaderSecureGap="0.84" leaderSpeed="11.55" followerGap="7.72" followerSecureGap="0.00" followerSpeed="2.60" origLeaderGap="None" origLeaderSecureGap="None" origLeaderSpeed="None" latGap="None"/>
    <change id="ramp.22" type="passenger" time="57.00" from="merge_0" to="merge_1" dir="1" speed="5.72" pos="21.01" reason="strategic|urgent" leaderGap="12.72" leaderSecureGap="0.00" leaderSpeed="13.00" followerGap="12.03" followerSecureGap="1.27" followerSpeed="2.49" origLeaderGap="None" origLeaderSecureGap="None" origLeaderSpeed="None" latGap="None"/>
    <change id="ramp.23" type="passenger" time="59.00" from="merge_0" to="merge_1" dir="1" speed="6.84" pos="20.34" reason="strategic|urgent" leaderGap="14.90" leaderSecureGap="0.84" leaderSpeed="10.92" followerGap="15.06" followerSecureGap="0.00" followerSpeed="0.00" origLeaderGap="None" origLeaderSecureGap="None" origLeaderSpeed="None" latGap="None"/>
    <change id="ramp.24" type="passenger_pushy" time="59.00" from="merge_0" to="merge_1" dir="1" speed="0.00" pos="0.29" reason="strategic|urgent" leaderGap="15.06" leaderSecureGap="0.00" leaderSpeed="6.84" followerGap="16.31" followerSecureGap="1.80" followerSpeed="1.80" origLeaderGap="None" origLeaderSecureGap="None" origLeaderSpeed="None" latGap="1.30"/>
    <change id="ramp.25" type="passenger_pushy" time="64.00" from="merge_0" to="merge_1" dir="1" speed="4.33" pos="4.92" reason="strategic|urgent" leaderGap="16.37" leaderSecureGap="0.00" leaderSpeed="10.40" followerGap="10.65" followerSecureGap="5.90" followerSpeed="5.20" origLeaderGap="None" origLeaderSecureGap="None" origLeaderSpeed="None" latGap="0.90"/>
    <change id="ramp.26" type="passenger_pushy" time="68.00" from="merge_0" to="merge_1" dir="1" speed="7.46" pos="16.66" reason="strategic|urgent" leaderGap="12.94" leaderSecureGap="3.54" leaderSpeed="10.19" followerGap="15.43" followerSecureGap="0.00" followerSpeed="2.69" origLeaderGap="None" origLeaderSecureGap="None" origLeaderSpeed="None" latGap="0.90"/>
    <change id="main.66" type="passenger_pushy" time="69.00" from="beg_0" to="beg_1" dir="1" speed="14.43" pos="172.65" reason="speedGain" leaderGap="5.00" leaderSecureGap="15.12" leaderSpeed="14.19" followerGap="59.90" followerSecureGap="79.76" followerSpeed="27.22" origLeaderGap="30.58" origLeaderSecureGap="30.71" origLeaderSpeed="3.71" latGap="None"/>
    <change id="ramp.27" type="passenger" time="70.00" from="merge_0" to="merge_1" dir="1" speed="7.06" pos="16.22" reason="strategic|urgent" leaderGap="13.61" leaderSecureGap="6.00" leaderSpeed="8.11" followerGap="12.39" followerSecureGap="0.04" followerSpeed="2.60" origLeaderGap="None" origLeaderSecureGap="None" origLeaderSpeed="None" latGap="None"/>
    <change id="main.62" type="passenger" time="71.00" from="beg_0" to="beg_1" dir="1" speed="2.60" pos="219.82" reason="speedGain" leaderGap="22.30" leaderSecureGap="0.00" leaderSpeed="7.45" followerGap="15.63" followerSecureGap="7.55" followerSpeed="6.02" origLeaderGap="7.35" origLeaderSecureGap="2.25" origLeaderSpeed="4.85" latGap="None"/>
    <change id="main.50" type="motorcycle" time="72.00" from=":gneJ0_1_0" to=":gneJ0_1_1" dir="1" speed="4.68" pos="6.77" reason="speedGain" leaderGap="24.07" leaderSecureGap="0.00" leaderSpeed="31.64" followerGap="11.05" followerSecureGap="4.86" followerSpeed="4.68" origLeaderGap="2.68" origLeaderSecureGap="4.68" origLeaderSpeed="0.18" latGap="None"/>
    <change id="main.56" type="passenger" time="72.00" from="beg_0" to="beg_1" dir="1" speed="4.68" pos="275.72" reason="speedGain" leaderGap="11.05" leaderSecureGap="4.86" leaderSpeed="4.68" followerGap="7.18" followerSecureGap="3.11" followerSpeed="3.29" origLeaderGap="7.72" origLeaderSecureGap="4.14" origLeaderSpeed="5.22" latGap="None"/>
    <change id="main.60" type="passenger" time="72.00" from="beg_0" to="beg_1" dir="1" speed="3.29" pos="263.54" reason="speedGain" leaderGap="7.18" leaderSecureGap="3.11" leaderSpeed="4.68" followerGap="5.80" followerSecureGap="6.73" followerSpeed="5.62" origLeaderGap="None" origLeaderSecureGap="None" origLeaderSpeed="None" latGap="None"/>
    <change id="ramp.28" type="passenger" time="74.00" from="merge_0" to="merge_1" dir="1" speed="5.39" pos="26.19" reason="strategic|urgent" leaderGap="11.87" leaderSecureGap="4.06" leaderSpeed="6.73" followerGap="9.34" followerSecureGap="5.37" followerSpeed="5.38" origLeaderGap="None" origLeaderSecureGap="None" origLeaderSpeed="None" latGap="None"/>
    <change id="ramp.29" type="passenger" time="79.00" from="merge_0" to="merge_1" dir="1" speed="13.07" pos="56.05" reason="strategic|urgent" leaderGap="26.12" leaderSecureGap="1.80" leaderSpeed="16.97" followerGap="11.67" followerSecureGap="0.00" followerSpeed="7.69" origLeaderGap="None" origLeaderSecureGap="None" origLeaderSpeed="None" latGap="None"/>
    <change id="ramp.30" type="truck" time="81.00" from="merge_0" to="merge_1" dir="1" speed="7.22" pos="39.56" reason="strategic|urgent" leaderGap="18.00" leaderSecureGap="0.00" leaderSpeed="12.89" followerGap="13.27" followerSecureGap="0.00" followerSpeed="0.32" origLeaderGap="None" origLeaderSecureGap="None" origLeaderSpeed="None" latGap="None"/>
    <change id="ramp.31" type="passenger" time="83.00" from="merge_0" to="merge_1" dir="1" speed="8.63" pos="38.96" reason="strategic|urgent" leaderGap="16.34" leaderSecureGap="1.43" leaderSpeed="12.42" followerGap="8.59" followerSecureGap="0.00" followerSpeed="4.09" origLeaderGap="None" origLeaderSecureGap="None" origLeaderSpeed="None" latGap="None"/>
    <change id="ramp.32" type="passenger" time="86.00" from="merge_0" to="merge_1" dir="1" speed="5.98" pos="28.64" reason="strategic|urgent" leaderGap="19.58" leaderSecureGap="0.00" leaderSpeed="11.89" followerGap="8.76" followerSecureGap="1.12" followerSpeed="2.60" origLeaderGap="None" origLeaderSecureGap="None" origLeaderSpeed="None" latGap="None"/>
    <change id="ramp.33" type="truck" time="91.00" from="merge_0" to="merge_1" dir="1" speed="8.54" pos="30.33" reason="strategic|urgent" leaderGap="31.56" leaderSecureGap="0.00" leaderSpeed="15.60" followerGap="12.73" followerSecureGap="0.00" followerSpeed="3.16" origLeaderGap="None" origLeaderSecureGap="None" origLeaderSpeed="None" latGap="None"/>
    <change id="ramp.34" type="passenger" time="95.00" from="merge_0" to="merge_1" dir="1" speed="8.99" pos="23.16" reason="strategic|urgent" leaderGap="21.58" leaderSecureGap="0.00" leaderSpeed="13.56" followerGap="10.31" followerSecureGap="0.00" followerSpeed="3.61" origLeaderGap="None" origLeaderSecureGap="None" origLeaderSpeed="None" latGap="None"/>
    <change id="ramp.35" type="motorcycle" time="97.00" from="merge_0" to="merge_1" dir="1" speed="0.00" pos="6.66" reason="strategic|urgent" leaderGap="9.71" leaderSecureGap="0.00" leaderSpeed="8.81" followerGap="5.61" followerSecureGap="0.00" followerSpeed="0.00" origLeaderGap="None" origLeaderSecureGap="None" origLeaderSpeed="None" latGap="None"/>
    <change id="ramp.36" type="passenger" time="102.00" from="merge_0" to="merge_1" dir="1" speed="9.45" pos="24.17" reason="strategic|urgent" leaderGap="48.68" leaderSecureGap="5.57" leaderSpeed="19.29" followerGap="11.48" followerSecureGap="0.00" followerSpeed="4.07" origLeaderGap="None" origLeaderSecureGap="None" origLeaderSpeed="None" latGap="None"/>
    <change id="ramp.37" type="passenger_pushy" time="103.00" from="merge_0" to="merge_1" dir="1" speed="1.12" pos="1.49" reason="strategic|urgent" leaderGap="29.74" leaderSecureGap="0.00" leaderSpeed="12.05" followerGap="5.17" followerSecureGap="0.00" followerSpeed="0.00" origLeaderGap="None" origLeaderSecureGap="None" origLeaderSpeed="None" latGap="None"/>
    <change id="main.77" type="passenger_pushy" time="108.00" from="beg_0" to="beg_1" dir="1" speed="4.19" pos="279.85" reason="speedGain" leaderGap="2.50" leaderSecureGap="4.19" leaderSpeed="0.00" followerGap="6.69" followerSecureGap="1.59" followerSpeed="1.59" origLeaderGap="None" origLeaderSecureGap="None" origLeaderSpeed="None" latGap="None"/>
    <change id="ramp.38" type="passenger_pushy" time="109.00" from="merge_0" to="merge_1" dir="1" speed="3.55" pos="20.52" reason="strategic|urgent" leaderGap="15.87" leaderSecureGap="0.00" leaderSpeed="14.12" followerGap="69.11" followerSecureGap="1.47" followerSpeed="1.47" origLeaderGap="None" origLeaderSecureGap="None" origLeaderSpeed="None" latGap="None"/>
    <change id="main.75" type="passenger_pushy" time="110.00" from=":gneJ0_1_0" to=":gneJ0_1_1" dir="1" speed="2.60" pos="10.35" reason="speedGain" leaderGap="5.22" leaderSecureGap="2.60" leaderSpeed="2.72" followerGap="5.10" followerSecureGap="2.60" followerSpeed="2.60" origLeaderGap="5.22" origLeaderSecureGap="2.60" origLeaderSpeed="2.72" latGap="None"/>
    <change id="main.73" type="passenger_pushy" time="110.00" from="beg_0" to="beg_1" dir="1" speed="0.00" pos="272.35" reason="speedGain" leaderGap="5.10" leaderSecureGap="0.00" leaderSpeed="2.60" followerGap="20.48" followerSecureGap="0.00" followerSpeed="0.00" origLeaderGap="None" origLeaderSecureGap="None" origLeaderSpeed="None" latGap="None"/>
    <change id="main.68" type="passenger" time="111.00" from="merge_1" to="merge_2" dir="1" speed="0.00" pos="9.81" reason="cooperative|urgent" leaderGap="25.66" leaderSecureGap="0.00" leaderSpeed="30.55" followerGap="2.50" followerSecureGap="2.72" followerSpeed="2.72" origLeaderGap="3.44" origLeaderSecureGap="0.00" origLeaderSpeed="5.24" latGap="None"/>
    <change id="ramp.40" type="motorcycle" time="111.00" from="merge_0" to="merge_1" dir="1" speed="3.55" pos="5.51" reason="strategic|urgent" leaderGap="7.74" leaderSecureGap="3.55" leaderSpeed="5.24" followerGap="24.63" followerSecureGap="9.08" followerSpeed="6.79" origLeaderGap="None" origLeaderSecureGap="None" origLeaderSpeed="None" latGap="2.95"/>
    <change id="ramp.39" type="passenger" time="112.00" from="merge_0" to="merge_1" dir="1" speed="7.84" pos="26.09" reason="strategic|urgent" leaderGap="15.68" leaderSecureGap="1.97" leaderSpeed="11.35" followerGap="10.34" followerSecureGap="5.24" followerSpeed="5.24" origLeaderGap="None" origLeaderSecureGap="None" origLeaderSpeed="None" latGap="None"/>
    <change id="ramp.41" type="motorcycle" time="116.00" from="merge_0" to="merge_1" dir="1" speed="13.61" pos="59.72" reason="strategic|urgent" leaderGap="18.72" leaderSecureGap="8.99" leaderSpeed="18.24" followerGap="20.33" followerSecureGap="4.30" followerSpeed="7.92" origLeaderGap="None" origLeaderSecureGap="None" origLeaderSpeed="None" latGap="None"/>
    <change id="ramp.42" type="truck" time="118.00" from="merge_0" to="merge_1" dir="1" speed="7.93" pos="40.57" reason="strategic|urgent" leaderGap="27.06" leaderSecureGap="2.64" leaderSpeed="18.71" followerGap="14.10" followerSecureGap="0.00" followerSpeed="2.09" origLeaderGap="None" origLeaderSecureGap="None" origLeaderSpeed="None" latGap="None"/>
    <change id="ramp.43" type="passenger" time="121.00" from="merge_0" to="merge_1" dir="1" speed="11.82" pos="50.43" reason="strategic|urgent" leaderGap="23.02" leaderSecureGap="1.77" leaderSpeed="15.73" followerGap="35.57" followerSecureGap="0.00" followerSpeed="2.31" origLeaderGap="None" origLeaderSecureGap="None" origLeaderSpeed="None" latGap="None"/>
    <change id="main.76" type="passenger_pushy" time="121.00" from="merge_1" to="merge_2" dir="1" speed="7.29" pos="34.04" reason="cooperative|urgent" leaderGap="21.07" leaderSecureGap="0.00" leaderSpeed="18.20" followerGap="9.79" followerSecureGap="4.69" followerSpeed="4.69" origLeaderGap="11.39" origLeaderSecureGap="0.00" origLeaderSpeed="11.82" latGap="None"/>
    <change id="main.79" type="motorcycle" time="122.00" from="merge_1" to="merge_2" dir="1" speed="7.29" pos="26.54" reason="cooperative|urgent" leaderGap="12.39" leaderSecureGap="7.29" leaderSpeed="9.89" followerGap="9.89" followerSecureGap="4.69" followerSpeed="4.60" origLeaderGap="2.09" origLeaderSecureGap="6.15" origLeaderSpeed="11.14" latGap="None"/>
    <change id="ramp.45" type="passenger_pushy" time="122.00" from="merge_0" to="merge_1" dir="1" speed="6.45" pos="17.08" reason="strategic|urgent" leaderGap="11.55" leaderSecureGap="0.00" leaderSpeed="11.14" followerGap="19.54" followerSecureGap="0.00" followerSpeed="1.87" origLeaderGap="None" origLeaderSecureGap="None" origLeaderSpeed="None" latGap="None"/>
    <change id="ramp.44" type="truck" time="123.00" from="merge_0" to="merge_1" dir="1" speed="8.52" pos="43.65" reason="strategic|urgent" leaderGap="33.21" leaderSecureGap="0.00" leaderSpeed="17.02" followerGap="11.02" followerSecureGap="9.62" followerSpeed="9.05" origLeaderGap="None" origLeaderSecureGap="None" origLeaderSpeed="None" latGap="None"/>
    <change id="main.76" type="passenger_pushy" time="125.00" from="merge_2" to="merge_1" dir="-1" speed="17.69" pos="89.20" reason="sublane" leaderGap="29.49" leaderSecureGap="0.00" leaderSpeed="22.22" followerGap="18.09" followerSecureGap="0.00" followerSpeed="12.38" origLeaderGap="25.66" origLeaderSecureGap="0.00" origLeaderSpeed="26.59" latGap="None"/>
    <change id="ramp.46" type="motorcycle" time="128.00" from="merge_0" to="merge_1" dir="1" speed="7.88" pos="35.62" reason="strategic|urgent" leaderGap="18.68" leaderSecureGap="5.82" leaderSpeed="12.06" followerGap="56.56" followerSecureGap="4.53" followerSpeed="4.53" origLeaderGap="None" origLeaderSecureGap="None" origLeaderSpeed="None" latGap="None"/>
    <change id="ramp.47" type="passenger" time="131.00" from="merge_0" to="merge_1" dir="1" speed="2.60" pos="26.47" reason="strategic|urgent" leaderGap="11.81" leaderSecureGap="0.00" leaderSpeed="7.80" followerGap="8.17" followerSecureGap="0.00" followerSpeed="0.00" origLeaderGap="None" origLeaderSecureGap="None" origLeaderSpeed="None" latGap="None"/>
    <change id="ramp.48" type="passenger" time="134.00" from="merge_0" to="merge_1" dir="1" speed="6.76" pos="30.50" reason="strategic|urgent" leaderGap="14.38" leaderSecureGap="1.72" leaderSpeed="10.40" followerGap="9.59" followerSecureGap="0.34" followerSpeed="2.60" origLeaderGap="None" origLeaderSecureGap="None" origLeaderSpeed="None" latGap="None"/>
    <change id="ramp.49" type="passenger" time="138.00" from="merge_0" to="merge_1" dir="1" speed="2.60" pos="8.16" reason="strategic|urgent" leaderGap="17.15" leaderSecureGap="0.00" leaderSpeed="10.40" followerGap="6.35" followerSecureGap="0.00" followerSpeed="0.00" origLeaderGap="None" origLeaderSecureGap="None" origLeaderSpeed="None" latGap="None"/>
    <change id="ramp.50" type="passenger" time="142.00" from="merge_0" to="merge_1" dir="1" speed="9.36" pos="21.54" reason="strategic|urgent" leaderGap="18.02" leaderSecureGap="2.08" leaderSpeed="13.00" followerGap="10.57" followerSecureGap="0.00" followerSpeed="4.58" origLeaderGap="None" origLeaderSecureGap="None" origLeaderSpeed="None" latGap="None"/>
    <change id="ramp.51" type="passenger_pushy" time="143.00" from="merge_0" to="merge_1" dir="1" speed="9.36" pos="14.04" reason="strategic|urgent" leaderGap="14.46" leaderSecureGap="4.16" leaderSpeed="11.96" followerGap="16.23" followerSecureGap="0.00" followerSpeed="0.00" origLeaderGap="None" origLeaderSecureGap="None" origLeaderSpeed="None" latGap="0.90"/>
    <change id="ramp.52" type="passenger" time="146.00" from="merge_0" to="merge_1" dir="1" speed="4.52" pos="17.83" reason="strategic|urgent" leaderGap="14.67" leaderSecureGap="0.45" leaderSpeed="8.58" followerGap="8.50" followerSecureGap="5.52" followerSpeed="5.52" origLeaderGap="None" origLeaderSecureGap="None" origLeaderSpeed="None" latGap="None"/>
    <change id="ramp.53" type="passenger" time="150.00" from="merge_0" to="merge_1" dir="1" speed="10.92" pos="35.29" reason="strategic|urgent" leaderGap="21.61" leaderSecureGap="1.51" leaderSpeed="14.92" followerGap="19.54" followerSecureGap="2.02" followerSpeed="2.94" origLeaderGap="None" origLeaderSecureGap="None" origLeaderSpeed="None" latGap="None"/>
    <change id="ramp.54" type="motorcycle" time="153.00" from="merge_0" to="merge_1" dir="1" speed="7.61" pos="47.44" reason="strategic|urgent" leaderGap="7.51" leaderSecureGap="1.22" leaderSpeed="16.39" followerGap="21.22" followerSecureGap="6.42" followerSpeed="6.42" origLeaderGap="None" origLeaderSecureGap="None" origLeaderSpeed="None" latGap="None"/>
    <change id="ramp.56" type="passenger_pushy" time="153.00" from="merge_0" to="merge_1" dir="1" speed="3.71" pos="8.62" reason="strategic|urgent" leaderGap="13.20" leaderSecureGap="3.71" leaderSpeed="6.42" followerGap="4.45" followerSecureGap="0.00" followerSpeed="0.00" origLeaderGap="23.72" origLeaderSecureGap="0.53" origLeaderSpeed="13.18" latGap="1.20"/>
    <change id="main.144" type="passenger_pushy" time="154.00" from="beg_0" to="beg_1" dir="1" speed="0.00" pos="173.85" reason="speedGain" leaderGap="12.44" leaderSecureGap="0.00" leaderSpeed="1.98" followerGap="2.50" followerSecureGap="0.34" followerSpeed="0.34" origLeaderGap="2.95" origLeaderSecureGap="0.00" origLeaderSpeed="0.45" latGap="None"/>
    <change id="main.145" type="passenger_pushy" time="154.00" from="beg_0" to="beg_1" dir="1" speed="0.34" pos="166.35" reason="speedGain" leaderGap="2.50" leaderSecureGap="0.34" leaderSpeed="0.00" followerGap="None" followerSecureGap="None" followerSpeed="None" origLeaderGap="10.45" origLeaderSecureGap="0.34" origLeaderSpeed="0.45" latGap="None"/>
    <change id="main.137" type="passenger_pushy" time="155.00" from="beg_0" to="beg_1" dir="1" speed="2.15" pos="193.43" reason="speedGain" leaderGap="7.04" leaderSecureGap="2.15" leaderSpeed="4.54" followerGap="14.13" followerSecureGap="0.45" followerSpeed="0.45" origLeaderGap="17.61" origLeaderSecureGap="0.78" origLeaderSpeed="5.86" latGap="None"/>
    <change id="ramp.55" type="motorcycle" time="156.00" from="merge_0" to="merge_1" dir="1" speed="15.29" pos="70.36" reason="strategic|urgent" leaderGap="None" leaderSecureGap="None" leaderSpeed="None" followerGap="23.10" followerSecureGap="1.27" followerSpeed="6.56" origLeaderGap="None" origLeaderSecureGap="None" origLeaderSpeed="None" latGap="None"/>
    <change id="main.124" type="passenger" time="156.00" from="beg_0" to="beg_1" dir="1" speed="1.79" pos="235.70" reason="speedGain" leaderGap="3.90" leaderSecureGap="1.79" leaderSpeed="1.40" followerGap="22.16" followerSecureGap="5.86" followerSpeed="5.86" origLeaderGap="None" origLeaderSecureGap="None" origLeaderSpeed="None" latGap="1.80"/>
    <change id="main.134" type="motorcycle" time="156.00" from="beg_0" to="beg_1" dir="1" speed="5.86" pos="208.54" reason="speedGain" leaderGap="11.36" leaderSecureGap="5.86" leaderSpeed="0.00" followerGap="8.38" followerSecureGap="4.54" followerSpeed="4.52" origLeaderGap="11.36" origLeaderSecureGap="5.86" origLeaderSpeed="0.00" latGap="None"/>
    <change id="main.115" type="passenger" time="157.00" from="beg_0" to="beg_1" dir="1" speed="0.00" pos="272.27" reason="cooperative|urgent" leaderGap="5.10" leaderSecureGap="0.00" leaderSpeed="2.60" followerGap="2.50" followerSecureGap="0.00" followerSpeed="0.00" origLeaderGap="None" origLeaderSecureGap="None" origLeaderSpeed="None" latGap="None"/>
    <change id="main.120" type="passenger" time="157.00" from="beg_0" to="beg_1" dir="1" speed="0.00" pos="264.77" reason="speedGain" leaderGap="2.50" leaderSecureGap="0.00" leaderSpeed="0.00" followerGap="2.50" followerSecureGap="3.70" followerSpeed="3.70" origLeaderGap="None" origLeaderSecureGap="None" origLeaderSpeed="None" latGap="1.80"/>
    <change id="main.121" type="passenger" time="157.00" from="beg_0" to="beg_1" dir="1" speed="3.70" pos="257.27" reason="speedGain" leaderGap="2.50" leaderSecureGap="3.70" leaderSpeed="0.00" followerGap="6.20" followerSecureGap="1.47" followerSpeed="1.47" origLeaderGap="None" origLeaderSecureGap="None" origLeaderSpeed="None" latGap="None"/>