<?xml version="1.0" encoding="UTF-8"?>

<!-- generated on 2023-07-07 11:31:47 by Eclipse SUMO sumo Version v1_18_0+0183-909cae9
This data file and the accompanying materials
are made available under the terms of the Eclipse Public License v2.0
which accompanies this distribution, and is available at
http://www.eclipse.org/legal/epl-v20.html
This file may also be made available under the following Secondary
Licenses when the conditions for such availability set forth in the Eclipse
Public License 2.0 are satisfied: GNU General Public License, version 2
or later which is available at
https://www.gnu.org/licenses/old-licenses/gpl-2.0-standalone.html
SPDX-License-Identifier: EPL-2.0 OR GPL-2.0-or-later
<configuration xmlns:xsi="http://www.w3.org/2001/XMLSchema-instance" xsi:noNamespaceSchemaLocation="http://sumo.dlr.de/xsd/sumoConfiguration.xsd">

    <input>
        <net-file value="net.net.xml"/>
        <route-files value="input_routes.rou.xml"/>
    </input>

    <output>
        <write-license value="true"/>
        <lanechange-output value="lanechanges.xml"/>
    </output>

    <processing>
        <lateral-resolution value="0.4"/>
        <default.speeddev value="0"/>
    </processing>

    <report>
        <xml-validation value="never"/>
        <duration-log.statistics value="true"/>
        <no-step-log value="true"/>
    </report>

</configuration>
-->

<lanechanges>
    <change id="ramp.0" type="passenger" time="2.00" from="merge_0" to="merge_1" dir="1" speed="24.20" pos="37.53" reason="strategic|urgent" leaderGap="11.62" leaderSecureGap="0.00" leaderSpeed="32.50" followerGap="None" followerSecureGap="None" followerSpeed="None" origLeaderGap="None" origLeaderSecureGap="None" origLeaderSpeed="None" latGap="None"/>
    <change id="ramp.3" type="passenger_pushy" time="7.00" from="merge_0" to="merge_1" dir="1" speed="12.42" pos="39.11" reason="strategic|urgent" leaderGap="16.01" leaderSecureGap="0.00" leaderSpeed="16.32" followerGap="22.54" followerSecureGap="16.38" followerSpeed="18.18" origLeaderGap="16.01" origLeaderSecureGap="0.00" origLeaderSpeed="16.32" latGap="None"/>
    <change id="ramp.1" type="passenger" time="8.00" from="merge_0" to="merge_1" dir="1" speed="11.47" pos="92.60" reason="strategic|urgent" leaderGap="42.13" leaderSecureGap="0.00" leaderSpeed="34.86" followerGap="14.51" followerSecureGap="9.43" followerSpeed="12.97" origLeaderGap="None" origLeaderSecureGap="None" origLeaderSpeed="None" latGap="None"/>
    <change id="ramp.2" type="passenger" time="8.00" from="merge_0" to="merge_1" dir="1" speed="12.97" pos="73.09" reason="strategic|urgent" leaderGap="14.51" leaderSecureGap="9.43" leaderSpeed="11.47" followerGap="13.96" followerSecureGap="20.62" followerSpeed="15.02" origLeaderGap="None" origLeaderSecureGap="None" origLeaderSpeed="None" latGap="None"/>
    <change id="ramp.4" type="motorcycle" time="11.00" from="merge_0" to="merge_1" dir="1" speed="11.42" pos="54.00" reason="strategic|urgent" leaderGap="29.17" leaderSecureGap="11.65" leaderSpeed="11.18" followerGap="59.99" followerSecureGap="38.57" followerSpeed="21.25" origLeaderGap="None" origLeaderSecureGap="None" origLeaderSpeed="None" latGap="None"/>
    <change id="main.9" type="passenger_pushy" time="15.00" from="merge_1" to="merge_2" dir="1" speed="20.46" pos="17.84" reason="cooperative|urgent" leaderGap="17.13" leaderSecureGap="0.00" leaderSpeed="29.79" followerGap="20.80" followerSecureGap="17.77" followerSpeed="19.92" origLeaderGap="17.30" origLeaderSecureGap="24.95" origLeaderSpeed="19.33" latGap="None"/>
    <change id="ramp.6" type="motorcycle" time="16.00" from="merge_0" to="merge_1" dir="1" speed="10.02" pos="54.52" reason="strategic|urgent" leaderGap="None" leaderSecureGap="None" leaderSpeed="None" followerGap="127.94" followerSecureGap="75.89" followerSpeed="28.40" origLeaderGap="None" origLeaderSecureGap="None" origLeaderSpeed="None" latGap="2.30"/>
    <change id="main.8" type="truck" time="17.00" from="merge_1" to="merge_2" dir="1" speed="19.33" pos="80.31" reason="cooperative|urgent" leaderGap="14.25" leaderSecureGap="0.00" leaderSpeed="29.79" followerGap="18.93" followerSecureGap="15.71" followerSpeed="18.61" origLeaderGap="40.73" origLeaderSecureGap="0.00" origLeaderSpeed="25.10" latGap="None"/>
    <change id="main.14" type="passenger_pushy" time="18.00" from="beg_0" to="beg_1" dir="1" speed="23.90" pos="265.14" reason="speedGain" leaderGap="16.30" leaderSecureGap="0.00" leaderSpeed="29.64" followerGap="39.53" followerSecureGap="39.66" followerSpeed="26.53" origLeaderGap="91.77" origLeaderSecureGap="75.91" origLeaderSpeed="8.81" latGap="None"/>
    <change id="ramp.5" type="motorcycle" time="18.00" from="merge_0" to="merge_1" dir="1" speed="8.53" pos="84.98" reason="strategic|urgent" leaderGap="None" leaderSecureGap="None" leaderSpeed="None" followerGap="16.64" followerSecureGap="8.81" followerSpeed="8.81" origLeaderGap="None" origLeaderSecureGap="None" origLeaderSpeed="None" latGap="None"/>
    <change id="ramp.9" type="passenger_pushy" time="19.00" from="merge_0" to="merge_1" dir="1" speed="10.07" pos="22.42" reason="strategic|urgent" leaderGap="29.77" leaderSecureGap="5.66" leaderSpeed="7.00" followerGap="53.74" followerSecureGap="43.13" followerSpeed="24.40" origLeaderGap="12.92" origLeaderSecureGap="4.10" origLeaderSpeed="8.56" latGap="None"/>
    <change id="ramp.7" type="passenger" time="20.00" from="merge_0" to="merge_1" dir="1" speed="8.30" pos="65.49" reason="strategic|urgent" leaderGap="None" leaderSecureGap="None" leaderSpeed="None" followerGap="32.51" followerSecureGap="0.00" followerSpeed="5.57" origLeaderGap="None" origLeaderSecureGap="None" origLeaderSpeed="None" latGap="None"/>
    <change id="ramp.10" type="passenger_pushy" time="20.00" from="merge_0" to="merge_1" dir="1" speed="8.87" pos="17.18" reason="strategic|urgent" leaderGap="5.80" leaderSecureGap="5.46" leaderSpeed="5.57" followerGap="30.81" followerSecureGap="15.25" followerSpeed="17.69" origLeaderGap="22.21" origLeaderSecureGap="6.52" origLeaderSpeed="4.06" latGap="None"/>
    <change id="ramp.8" type="passenger" time="25.00" from="merge_0" to="merge_1" dir="1" speed="4.36" pos="57.41" reason="strategic|urgent" leaderGap="14.20" leaderSecureGap="0.00" leaderSpeed="13.37" followerGap="10.48" followerSecureGap="3.61" followerSpeed="3.95" origLeaderGap="None" origLeaderSecureGap="None" origLeaderSpeed="None" latGap="1.70"/>
    <change id="ramp.11" type="passenger_pushy" time="25.00" from="merge_0" to="merge_1" dir="1" speed="3.15" pos="28.97" reason="strategic|urgent" leaderGap="7.96" leaderSecureGap="3.15" leaderSpeed="3.95" followerGap="47.69" followerSecureGap="21.11" followerSpeed="16.04" origLeaderGap="None" origLeaderSecureGap="None" origLeaderSpeed="None" latGap="None"/>
    <change id="ramp.12" type="motorcycle" time="25.00" from="merge_0" to="merge_1" dir="1" speed="4.11" pos="18.33" reason="strategic|urgent" leaderGap="5.65" leaderSecureGap="2.39" leaderSpeed="3.15" followerGap="39.84" followerSecureGap="21.11" followerSpeed="16.04" origLeaderGap="None" origLeaderSecureGap="None" origLeaderSpeed="None" latGap="None"/>
    <change id="ramp.13" type="passenger_pushy" time="30.00" from="merge_0" to="merge_1" dir="1" speed="7.90" pos="43.50" reason="strategic|urgent" leaderGap="17.12" leaderSecureGap="3.81" leaderSpeed="10.50" followerGap="9.95" followerSecureGap="0.79" followerSpeed="0.79" origLeaderGap="None" origLeaderSecureGap="None" origLeaderSpeed="None" latGap="1.40"/>
    <change id="ramp.15" type="passenger_pushy" time="32.00" from="merge_0" to="merge_1" dir="1" speed="5.45" pos="10.43" reason="strategic|urgent" leaderGap="7.72" leaderSecureGap="1.20" leaderSpeed="0.79" followerGap="33.19" followerSecureGap="14.91" followerSpeed="14.29" origLeaderGap="3.45" origLeaderSecureGap="1.20" origLeaderSpeed="0.00" latGap="0.90"/>
    <change id="ramp.16" type="passenger_pushy" time="34.00" from="merge_0" to="merge_1" dir="1" speed="5.48" pos="7.17" reason="strategic|urgent" leaderGap="7.98" leaderSecureGap="6.10" leaderSpeed="4.86" followerGap="149.43" followerSecureGap="144.17" followerSpeed="33.89" origLeaderGap="10.57" origLeaderSecureGap="6.46" origLeaderSpeed="3.85" latGap="0.90"/>
    <change id="ramp.14" type="motorcycle" time="37.00" from="merge_0" to="merge_1" dir="1" speed="6.00" pos="27.84" reason="strategic|urgent" leaderGap="33.27" leaderSecureGap="2.21" leaderSpeed="13.79" followerGap="11.77" followerSecureGap="0.86" followerSpeed="0.86" origLeaderGap="None" origLeaderSecureGap="None" origLeaderSpeed="None" latGap="None"/>
    <change id="ramp.10" type="passenger_pushy" time="38.00" from="end_0" to="end_1" dir="1" speed="26.04" pos="85.00" reason="sublane" leaderGap="None" leaderSecureGap="None" leaderSpeed="None" followerGap="85.98" followerSecureGap="55.84" followerSpeed="30.43" origLeaderGap="None" origLeaderSecureGap="None" origLeaderSpeed="None" latGap="None"/>
    <change id="ramp.17" type="motorcycle" time="39.00" from="merge_0" to="merge_1" dir="1" speed="18.98" pos="67.68" reason="strategic|urgent" leaderGap="28.81" leaderSecureGap="18.98" leaderSpeed="18.99" followerGap="27.92" followerSecureGap="0.00" followerSpeed="0.00" origLeaderGap="None" origLeaderSecureGap="None" origLeaderSpeed="None" latGap="None"/>
    <change id="ramp.19" type="passenger_pushy" time="43.00" from="merge_0" to="merge_1" dir="1" speed="8.93" pos="45.10" reason="strategic|urgent" leaderGap="14.04" leaderSecureGap="8.11" leaderSpeed="10.70" followerGap="6.20" followerSecureGap="3.42" followerSpeed="6.17" origLeaderGap="None" origLeaderSecureGap="None" origLeaderSpeed="None" latGap="None"/>
    <change id="main.40" type="passenger" time="43.00" from="beg_0" to="beg_1" dir="1" speed="17.35" pos="243.92" reason="speedGain" leaderGap="14.94" leaderSecureGap="0.00" leaderSpeed="31.51" followerGap="26.53" followerSecureGap="42.75" followerSpeed="22.55" origLeaderGap="28.69" origLeaderSecureGap="33.96" origLeaderSpeed="2.30" latGap="None"/>
    <change id="main.42" type="passenger" time="43.00" from="beg_0" to="beg_1" dir="1" speed="22.55" pos="212.39" reason="speedGain" leaderGap="26.53" leaderSecureGap="42.75" leaderSpeed="17.35" followerGap="15.44" followerSecureGap="6.48" followerSpeed="15.79" origLeaderGap="60.22" origLeaderSecureGap="67.80" origLeaderSpeed="2.30" latGap="None"/>
    <change id="main.31" type="passenger_pushy" time="44.00" from=":gneJ0_1_0" to=":gneJ0_1_1" dir="1" speed="2.60" pos="5.51" reason="speedGain" leaderGap="2.52" leaderSecureGap="0.00" leaderSpeed="31.38" followerGap="25.56" followerSecureGap="14.98" followerSpeed="13.23" origLeaderGap="None" origLeaderSecureGap="None" origLeaderSpeed="None" latGap="None"/>
    <change id="ramp.18" type="passenger" time="44.00" from="merge_0" to="merge_1" dir="1" speed="6.96" pos="86.08" reason="strategic|urgent" leaderGap="None" leaderSecureGap="None" leaderSpeed="None" followerGap="13.20" followerSecureGap="2.39" followerSpeed="6.54" origLeaderGap="None" origLeaderSecureGap="None" origLeaderSpeed="None" latGap="None"/>
    <change id="main.36" type="passenger" time="45.00" from="beg_0" to="beg_1" dir="1" speed="2.60" pos="280.21" reason="speedGain" leaderGap="7.70" leaderSecureGap="1.90" leaderSpeed="5.20" followerGap="9.33" followerSecureGap="4.23" followerSpeed="8.73" origLeaderGap="10.50" origLeaderSecureGap="2.60" origLeaderSpeed="5.20" latGap="None"/>
    <change id="ramp.16" type="passenger_pushy" time="46.00" from="merge_1" to="merge_2" dir="1" speed="6.49" pos="53.69" reason="speedGain" leaderGap="6.02" leaderSecureGap="0.00" leaderSpeed="31.17" followerGap="24.72" followerSecureGap="0.00" followerSpeed="0.00" origLeaderGap="11.59" origLeaderSecureGap="2.56" origLeaderSpeed="9.71" latGap="None"/>
    <change id="ramp.20" type="truck" time="46.00" from="merge_0" to="merge_1" dir="1" speed="4.64" pos="41.51" reason="strategic|urgent" leaderGap="23.78" leaderSecureGap="0.00" leaderSpeed="9.71" followerGap="20.04" followerSecureGap="3.48" followerSpeed="3.61" origLeaderGap="None" origLeaderSecureGap="None" origLeaderSpeed="None" latGap="None"/>
    <change id="main.26" type="truck" time="46.00" from="merge_1" to="merge_2" dir="1" speed="0.00" pos="23.97" reason="cooperative|urgent" leaderGap="24.72" leaderSecureGap="0.00" leaderSpeed="6.49" followerGap="9.72" followerSecureGap="11.10" followerSpeed="7.80" origLeaderGap="11.04" origLeaderSecureGap="0.00" origLeaderSpeed="4.64" latGap="None"/>
    <change id="ramp.21" type="passenger" time="47.00" from="merge_0" to="merge_1" dir="1" speed="3.09" pos="30.96" reason="strategic|urgent" leaderGap="11.28" leaderSecureGap="0.36" leaderSpeed="7.24" followerGap="67.44" followerSecureGap="62.04" followerSpeed="21.41" origLeaderGap="None" origLeaderSecureGap="None" origLeaderSpeed="None" latGap="None"/>
    <change id="ramp.22" type="passenger" time="49.00" from="merge_0" to="merge_1" dir="1" speed="5.01" pos="28.47" reason="strategic|urgent" leaderGap="11.48" leaderSecureGap="1.72" leaderSpeed="8.29" followerGap="8.50" followerSecureGap="0.00" followerSpeed="0.00" origLeaderGap="None" origLeaderSecureGap="None" origLeaderSpeed="None" latGap="None"/>
    <change id="ramp.23" type="passenger" time="52.00" from="merge_0" to="merge_1" dir="1" speed="8.73" pos="35.82" reason="strategic|urgent" leaderGap="18.26" leaderSecureGap="0.84" leaderSpeed="12.81" followerGap="8.30" followerSecureGap="0.22" followerSpeed="4.45" origLeaderGap="None" origLeaderSecureGap="None" origLeaderSpeed="None" latGap="None"/>
    <change id="ramp.24" type="passenger_pushy" time="52.00" from="merge_0" to="merge_1" dir="1" speed="0.00" pos="5.37" reason="strategic|urgent" leaderGap="3.00" leaderSecureGap="0.00" leaderSpeed="2.23" followerGap="5.10" followerSecureGap="0.00" followerSpeed="3.25" origLeaderGap="None" origLeaderSecureGap="None" origLeaderSpeed="None" latGap="1.30"/>
    <change id="main.43" type="passenger_pushy" time="55.00" from="merge_1" to="merge_2" dir="1" speed="5.20" pos="11.00" reason="speedGain" leaderGap="15.02" leaderSecureGap="0.00" leaderSpeed="12.89" followerGap="13.43" followerSecureGap="9.93" followerSpeed="7.56" origLeaderGap="None" origLeaderSecureGap="None" origLeaderSpeed="None" latGap="0.80"/>
    <change id="ramp.25" type="passenger_pushy" time="56.00" from="merge_0" to="merge_1" dir="1" speed="3.26" pos="4.38" reason="strategic|urgent" leaderGap="13.60" leaderSecureGap="0.00" leaderSpeed="8.30" followerGap="3.67" followerSecureGap="0.00" followerSpeed="0.00" origLeaderGap="None" origLeaderSecureGap="None" origLeaderSpeed="None" latGap="None"/>
    <change id="ramp.26" type="passenger_pushy" time="59.00" from="merge_0" to="merge_1" dir="1" speed="6.98" pos="9.71" reason="strategic|urgent" leaderGap="15.03" leaderSecureGap="0.84" leaderSpeed="11.06" followerGap="5.23" followerSecureGap="0.00" followerSpeed="0.00" origLeaderGap="None" origLeaderSecureGap="None" origLeaderSpeed="None" latGap="None"/>
    <change id="ramp.27" type="passenger" time="63.00" from="merge_0" to="merge_1" dir="1" speed="13.30" pos="34.31" reason="strategic|urgent" leaderGap="24.31" leaderSecureGap="1.27" leaderSpeed="17.38" followerGap="12.39" followerSecureGap="0.00" followerSpeed="5.32" origLeaderGap="None" origLeaderSecureGap="None" origLeaderSpeed="None" latGap="None"/>
    <change id="ramp.28" type="passenger" time="66.00" from="merge_0" to="merge_1" dir="1" speed="16.47" pos="57.14" reason="strategic|urgent" leaderGap="27.67" leaderSecureGap="0.00" leaderSpeed="21.10" followerGap="11.45" followerSecureGap="0.00" followerSpeed="10.52" origLeaderGap="None" origLeaderSecureGap="None" origLeaderSpeed="None" latGap="None"/>
    <change id="main.50" type="motorcycle" time="67.00" from="merge_1" to="merge_2" dir="1" speed="7.92" pos="15.16" reason="speedGain" leaderGap="59.39" leaderSecureGap="0.00" leaderSpeed="26.10" followerGap="128.71" followerSecureGap="120.55" followerSpeed="30.72" origLeaderGap="56.04" origLeaderSecureGap="0.00" origLeaderSpeed="19.07" latGap="None"/>
    <change id="ramp.29" type="passenger" time="70.00" from="merge_0" to="merge_1" dir="1" speed="11.26" pos="59.98" reason="strategic|urgent" leaderGap="15.37" leaderSecureGap="0.00" leaderSpeed="18.32" followerGap="16.05" followerSecureGap="6.66" followerSpeed="7.92" origLeaderGap="None" origLeaderSecureGap="None" origLeaderSpeed="None" latGap="None"/>
    <change id="ramp.30" type="truck" time="72.00" from="merge_0" to="merge_1" dir="1" speed="5.30" pos="45.57" reason="strategic|urgent" leaderGap="17.33" leaderSecureGap="1.01" leaderSpeed="15.10" followerGap="13.23" followerSecureGap="1.14" followerSpeed="1.94" origLeaderGap="None" origLeaderSecureGap="None" origLeaderSpeed="None" latGap="None"/>
    <change id="ramp.31" type="passenger" time="74.00" from="merge_0" to="merge_1" dir="1" speed="6.77" pos="43.00" reason="strategic|urgent" leaderGap="14.48" leaderSecureGap="1.54" leaderSpeed="10.50" followerGap="9.56" followerSecureGap="0.33" followerSpeed="2.60" origLeaderGap="None" origLeaderSecureGap="None" origLeaderSpeed="None" latGap="None"/>
    <change id="main.72" type="passenger_pushy" time="75.00" from="beg_0" to="beg_1" dir="1" speed="6.83" pos="204.98" reason="speedGain" leaderGap="8.17" leaderSecureGap="6.13" leaderSpeed="7.52" followerGap="75.32" followerSecureGap="72.70" followerSpeed="33.17" origLeaderGap="22.37" origLeaderSecureGap="7.51" origLeaderSpeed="6.14" latGap="None"/>
    <change id="main.73" type="passenger_pushy" time="76.00" from="beg_0" to="beg_1" dir="1" speed="6.42" pos="224.57" reason="speedGain" leaderGap="26.33" leaderSecureGap="5.41" leaderSpeed="7.43" followerGap="7.99" followerSecureGap="6.76" followerSpeed="6.59" origLeaderGap="9.81" origLeaderSecureGap="5.81" origLeaderSpeed="7.03" latGap="None"/>
    <change id="main.66" type="passenger_pushy" time="79.00" from="beg_0" to="beg_1" dir="1" speed="0.00" pos="273.79" reason="speedGain" leaderGap="2.50" leaderSecureGap="0.00" leaderSpeed="0.00" followerGap="2.50" followerSecureGap="0.42" followerSpeed="2.25" origLeaderGap="2.50" origLeaderSecureGap="0.00" origLeaderSpeed="0.00" latGap="None"/>
    <change id="ramp.32" type="passenger" time="80.00" from="merge_0" to="merge_1" dir="1" speed="8.99" pos="44.21" reason="strategic|urgent" leaderGap="49.43" leaderSecureGap="0.00" leaderSpeed="18.20" followerGap="10.79" followerSecureGap="0.00" followerSpeed="3.61" origLeaderGap="None" origLeaderSecureGap="None" origLeaderSpeed="None" latGap="None"/>
    <change id="main.60" type="passenger" time="81.00" from="merge_1" to="merge_2" dir="1" speed="0.51" pos="9.31" reason="cooperative|urgent" leaderGap="5.61" leaderSecureGap="0.51" leaderSpeed="3.11" followerGap="13.37" followerSecureGap="0.00" followerSpeed="0.00" origLeaderGap="5.61" origLeaderSecureGap="0.51" origLeaderSpeed="3.11" latGap="None"/>
    <change id="ramp.34" type="passenger" time="81.00" from="merge_0" to="merge_1" dir="1" speed="0.00" pos="7.39" reason="strategic|urgent" leaderGap="7.52" leaderSecureGap="0.00" leaderSpeed="3.11" followerGap="3.95" followerSecureGap="0.00" followerSpeed="0.00" origLeaderGap="2.50" origLeaderSecureGap="0.00" origLeaderSpeed="0.00" latGap="None"/>
    <change id="main.71" type="truck" time="81.00" from="beg_0" to="beg_1" dir="1" speed="0.00" pos="258.79" reason="speedGain" leaderGap="12.60" leaderSecureGap="0.00" leaderSpeed="2.60" followerGap="2.50" followerSecureGap="0.42" followerSpeed="2.25" origLeaderGap="5.10" origLeaderSecureGap="0.00" origLeaderSpeed="2.60" latGap="None"/>
    <change id="main.63" type="passenger" time="82.00" from=":gneJ0_1_0" to=":gneJ0_1_1" dir="1" speed="0.00" pos="1.69" reason="speedGain" leaderGap="2.50" leaderSecureGap="0.00" leaderSpeed="0.00" followerGap="2.50" followerSecureGap="0.00" followerSpeed="0.00" origLeaderGap="11.45" origLeaderSecureGap="0.00" origLeaderSpeed="0.00" latGap="None"/>
    <change id="main.62" type="passenger" time="83.00" from=":gneJ0_1_0" to=":gneJ0_1_1" dir="1" speed="1.45" pos="10.65" reason="speedGain" leaderGap="12.57" leaderSecureGap="0.57" leaderSpeed="5.38" followerGap="3.95" followerSecureGap="0.00" followerSpeed="0.00" origLeaderGap="2.50" origLeaderSecureGap="1.45" origLeaderSpeed="0.00" latGap="None"/>
    <change id="ramp.33" type="truck" time="83.00" from="merge_0" to="merge_1" dir="1" speed="2.60" pos="18.99" reason="strategic|urgent" leaderGap="9.94" leaderSecureGap="0.00" leaderSpeed="8.31" followerGap="5.10" followerSecureGap="0.00" followerSpeed="0.00" origLeaderGap="None" origLeaderSecureGap="None" origLeaderSpeed="None" latGap="None"/>
    <change id="ramp.35" type="motorcycle" time="85.00" from="merge_0" to="merge_1" dir="1" speed="6.88" pos="15.19" reason="strategic|urgent" leaderGap="10.30" leaderSecureGap="6.88" leaderSpeed="7.80" followerGap="19.38" followerSecureGap="7.14" followerSpeed="7.14" origLeaderGap="None" origLeaderSecureGap="None" origLeaderSpeed="None" latGap="None"/>
    <change id="main.76" type="passenger_pushy" time="86.00" from="beg_0" to="beg_1" dir="1" speed="3.43" pos="270.35" reason="cooperative|urgent" leaderGap="4.65" leaderSecureGap="0.00" leaderSpeed="4.90" followerGap="32.67" followerSecureGap="30.65" followerSpeed="14.41" origLeaderGap="14.02" origLeaderSecureGap="0.38" origLeaderSpeed="0.00" latGap="None"/>
    <change id="ramp.36" type="passenger" time="87.00" from="merge_0" to="merge_1" dir="1" speed="2.60" pos="6.21" reason="strategic|urgent" leaderGap="24.05" leaderSecureGap="1.27" leaderSpeed="11.33" followerGap="7.60" followerSecureGap="0.00" followerSpeed="0.00" origLeaderGap="None" origLeaderSecureGap="None" origLeaderSpeed="None" latGap="None"/>
    <change id="main.76" type="passenger_pushy" time="88.00" from="beg_1" to="beg_0" dir="-1" speed="3.45" pos="276.35" reason="speedGain" leaderGap="6.60" leaderSecureGap="3.45" leaderSpeed="2.60" followerGap="5.95" followerSecureGap="2.48" followerSpeed="2.55" origLeaderGap="None" origLeaderSecureGap="None" origLeaderSpeed="None" latGap="None"/>
    <change id="ramp.37" type="passenger_pushy" time="92.00" from="merge_0" to="merge_1" dir="1" speed="9.10" pos="23.41" reason="strategic|urgent" leaderGap="22.36" leaderSecureGap="0.00" leaderSpeed="13.74" followerGap="11.70" followerSecureGap="1.68" followerSpeed="1.68" origLeaderGap="None" origLeaderSecureGap="None" origLeaderSpeed="None" latGap="None"/>
    <change id="ramp.38" type="passenger_pushy" time="95.00" from="merge_0" to="merge_1" dir="1" speed="0.00" pos="0.31" reason="strategic|urgent" leaderGap="11.03" leaderSecureGap="0.00" leaderSpeed="8.78" followerGap="35.80" followerSecureGap="9.01" followerSpeed="6.75" origLeaderGap="None" origLeaderSecureGap="None" origLeaderSpeed="None" latGap="None"/>
    <change id="ramp.39" type="passenger" time="101.00" from="merge_0" to="merge_1" dir="1" speed="11.52" pos="27.37" reason="strategic|urgent" leaderGap="22.53" leaderSecureGap="1.27" leaderSpeed="15.60" followerGap="16.74" followerSecureGap="0.00" followerSpeed="3.99" origLeaderGap="None" origLeaderSecureGap="None" origLeaderSpeed="None" latGap="None"/>
    <change id="ramp.40" type="motorcycle" time="102.00" from="merge_0" to="merge_1" dir="1" speed="10.67" pos="19.02" reason="strategic|urgent" leaderGap="17.47" leaderSecureGap="7.22" leaderSpeed="14.12" followerGap="32.37" followerSecureGap="0.02" followerSpeed="0.69" origLeaderGap="None" origLeaderSecureGap="None" origLeaderSpeed="None" latGap="None"/>
    <change id="ramp.41" type="motorcycle" time="106.00" from="merge_0" to="merge_1" dir="1" speed="4.06" pos="23.35" reason="strategic|urgent" leaderGap="66.17" leaderSecureGap="0.00" leaderSpeed="22.05" followerGap="9.06" followerSecureGap="3.50" followerSpeed="3.50" origLeaderGap="None" origLeaderSecureGap="None" origLeaderSpeed="None" latGap="None"/>
    <change id="ramp.42" type="truck" time="106.00" from="merge_0" to="merge_1" dir="1" speed="3.50" pos="12.09" reason="strategic|urgent" leaderGap="9.06" leaderSecureGap="3.50" leaderSpeed="4.06" followerGap="5.94" followerSecureGap="3.01" followerSpeed="3.01" origLeaderGap="None" origLeaderSecureGap="None" origLeaderSpeed="None" latGap="None"/>
    <change id="ramp.43" type="passenger" time="110.00" from="merge_0" to="merge_1" dir="1" speed="6.63" pos="26.17" reason="strategic|urgent" leaderGap="55.61" leaderSecureGap="2.69" leaderSpeed="12.46" followerGap="13.84" followerSecureGap="6.49" followerSpeed="6.56" origLeaderGap="None" origLeaderSecureGap="None" origLeaderSpeed="None" latGap="1.70"/>
    <change id="ramp.45" type="passenger_pushy" time="112.00" from="merge_0" to="merge_1" dir="1" speed="7.50" pos="8.80" reason="strategic|urgent" leaderGap="21.31" leaderSecureGap="4.91" leaderSpeed="6.46" followerGap="41.65" followerSecureGap="3.01" followerSpeed="3.01" origLeaderGap="7.75" origLeaderSecureGap="4.01" origLeaderSpeed="7.36" latGap="0.90"/>
    <change id="ramp.44" type="truck" time="115.00" from="merge_0" to="merge_1" dir="1" speed="10.27" pos="46.41" reason="strategic|urgent" leaderGap="18.67" leaderSecureGap="1.54" leaderSpeed="14.26" followerGap="15.03" followerSecureGap="0.00" followerSpeed="4.89" origLeaderGap="None" origLeaderSecureGap="None" origLeaderSpeed="None" latGap="None"/>
    <change id="ramp.46" type="motorcycle" time="118.00" from="merge_0" to="merge_1" dir="1" speed="12.94" pos="66.14" reason="strategic|urgent" leaderGap="20.18" leaderSecureGap="7.81" leaderSpeed="18.07" followerGap="29.67" followerSecureGap="4.01" followerSpeed="5.73" origLeaderGap="None" origLeaderSecureGap="None" origLeaderSpeed="None" latGap="None"/>
    <change id="ramp.47" type="passenger" time="121.00" from="merge_0" to="merge_1" dir="1" speed="5.79" pos="30.05" reason="strategic|urgent" leaderGap="12.41" leaderSecureGap="5.32" leaderSpeed="6.27" followerGap="8.26" followerSecureGap="1.31" followerSpeed="2.60" origLeaderGap="None" origLeaderSecureGap="None" origLeaderSpeed="None" latGap="None"/>
    <change id="main.100" type="passenger_pushy" time="125.00" from=":gneJ0_1_0" to=":gneJ0_1_1" dir="1" speed="2.78" pos="6.33" reason="speedGain" leaderGap="2.50" leaderSecureGap="2.78" leaderSpeed="0.00" followerGap="5.28" followerSecureGap="2.60" followerSpeed="2.60" origLeaderGap="3.44" origLeaderSecureGap="2.78" origLeaderSpeed="0.00" latGap="None"/>
    <change id="ramp.48" type="passenger" time="126.00" from="merge_0" to="merge_1" dir="1" speed="8.65" pos="32.50" reason="strategic|urgent" leaderGap="27.67" leaderSecureGap="8.94" leaderSpeed="13.86" followerGap="11.49" followerSecureGap="0.00" followerSpeed="3.27" origLeaderGap="None" origLeaderSecureGap="None" origLeaderSpeed="None" latGap="None"/>
    <change id="main.88" type="truck" time="127.00" from="merge_1" to="merge_2" dir="1" speed="5.87" pos="21.88" reason="sublane" leaderGap="44.91" leaderSecureGap="0.00" leaderSpeed="24.94" followerGap="8.37" followerSecureGap="1.90" followerSpeed="3.27" origLeaderGap="0.05" origLeaderSecureGap="6.36" origLeaderSpeed="10.87" latGap="None"/>
    <change id="ramp.49" type="passenger" time="129.00" from="merge_0" to="merge_1" dir="1" speed="7.39" pos="20.39" reason="strategic|urgent" leaderGap="27.29" leaderSecureGap="6.21" leaderSpeed="14.07" followerGap="11.06" followerSecureGap="0.00" followerSpeed="0.00" origLeaderGap="None" origLeaderSecureGap="None" origLeaderSpeed="None" latGap="1.70"/>
    <change id="main.100" type="passenger_pushy" time="129.00" from="merge_2" to="merge_1" dir="-1" speed="5.87" pos="5.38" reason="sublane" leaderGap="10.97" leaderSecureGap="3.27" leaderSpeed="8.47" followerGap="8.37" followerSecureGap="1.90" followerSpeed="3.27" origLeaderGap="81.36" origLeaderSecureGap="0.00" origLeaderSpeed="24.76" latGap="1.40"/>
    <change id="main.88" type="truck" time="133.00" from=":gneJ1_0_1" to=":gneJ1_0_0" dir="-1" speed="21.47" pos="9.66" reason="sublane" leaderGap="49.14" leaderSecureGap="0.00" leaderSpeed="26.85" followerGap="23.97" followerSecureGap="8.47" followerSpeed="18.87" origLeaderGap="None" origLeaderSecureGap="None" origLeaderSpeed="None" latGap="None"/>
    <change id="ramp.51" type="passenger_pushy" time="134.00" from="merge_0" to="merge_1" dir="1" speed="5.83" pos="29.25" reason="strategic|urgent" leaderGap="6.39" leaderSecureGap="5.01" leaderSpeed="3.88" followerGap="8.98" followerSecureGap="0.00" followerSpeed="0.00" origLeaderGap="None" origLeaderSecureGap="None" origLeaderSpeed="None" latGap="None"/>
    <change id="ramp.50" type="passenger" time="135.00" from="merge_0" to="merge_1" dir="1" speed="6.48" pos="47.12" reason="strategic|urgent" leaderGap="8.10" leaderSecureGap="0.00" leaderSpeed="12.18" followerGap="10.93" followerSecureGap="0.00" followerSpeed="1.94" origLeaderGap="None" origLeaderSecureGap="None" origLeaderSpeed="None" latGap="None"/>
    <change id="ramp.52" type="passenger" time="138.00" from="merge_0" to="merge_1" dir="1" speed="5.73" pos="33.97" reason="strategic|urgent" leaderGap="13.07" leaderSecureGap="2.15" leaderSpeed="9.16" followerGap="15.34" followerSecureGap="0.00" followerSpeed="0.00" origLeaderGap="None" origLeaderSecureGap="None" origLeaderSpeed="None" latGap="None"/>
    <change id="ramp.55" type="motorcycle" time="138.00" from="merge_0" to="merge_1" dir="1" speed="5.83" pos="2.05" reason="strategic|urgent" leaderGap="2.50" leaderSecureGap="5.01" leaderSpeed="0.00" followerGap="236.24" followerSecureGap="115.83" followerSpeed="30.05" origLeaderGap="13.69" origLeaderSecureGap="5.01" origLeaderSpeed="4.54" latGap="1.90"/>
    <change id="ramp.54" type="motorcycle" time="139.00" from="merge_0" to="merge_1" dir="1" speed="0.00" pos="6.75" reason="strategic|urgent" leaderGap="14.72" leaderSecureGap="0.00" leaderSpeed="5.73" followerGap="2.50" followerSecureGap="0.00" followerSpeed="0.00" origLeaderGap="None" origLeaderSecureGap="None" origLeaderSpeed="None" latGap="1.40"/>