<?xml version="1.0" encoding="UTF-8"?>

<!-- generated on Wed Jun 17 11:30:53 2020 by Eclipse SUMO Version v1_6_0+0791-c319842b44
This data file and the accompanying materials
are made available under the terms of the Eclipse Public License v2.0
which accompanies this distribution, and is available at
http://www.eclipse.org/legal/epl-v20.html
SPDX-License-Identifier: EPL-2.0
<configuration xmlns:xsi="http://www.w3.org/2001/XMLSchema-instance" xsi:noNamespaceSchemaLocation="http://sumo.dlr.de/xsd/sumoConfiguration.xsd">

    <input>
        <net-file value="net.net.xml"/>
        <route-files value="input_routes.rou.xml"/>
    </input>

    <output>
        <write-license value="true"/>
        <lanechange-output value="lanechanges.xml"/>
    </output>

    <processing>
        <lateral-resolution value="0.4"/>
        <default.speeddev value="0"/>
    </processing>

    <report>
        <verbose value="true"/>
        <xml-validation value="never"/>
        <duration-log.statistics value="true"/>
        <no-step-log value="true"/>
    </report>

</configuration>
-->

<lanechanges>
    <change id="ramp.0" type="passenger" time="2.00" from="merge_0" to="merge_1" dir="1" speed="24.20" pos="37.53" reason="strategic|urgent" leaderGap="11.62" leaderSecureGap="0.00" leaderSpeed="32.50" followerGap="None" followerSecureGap="None" followerSpeed="None" origLeaderGap="None" origLeaderSecureGap="None" origLeaderSpeed="None" latGap="None"/>
    <change id="ramp.1" type="passenger" time="8.00" from="merge_0" to="merge_1" dir="1" speed="12.42" pos="90.70" reason="strategic|urgent" leaderGap="44.02" leaderSecureGap="0.00" leaderSpeed="34.86" followerGap="13.28" followerSecureGap="12.09" followerSpeed="12.31" origLeaderGap="None" origLeaderSecureGap="None" origLeaderSpeed="None" latGap="None"/>
    <change id="ramp.2" type="passenger" time="8.00" from="merge_0" to="merge_1" dir="1" speed="12.31" pos="72.42" reason="strategic|urgent" leaderGap="13.28" leaderSecureGap="12.09" leaderSpeed="12.42" followerGap="13.30" followerSecureGap="21.95" followerSpeed="15.02" origLeaderGap="None" origLeaderSecureGap="None" origLeaderSpeed="None" latGap="None"/>
    <change id="ramp.3" type="passenger_pushy" time="8.00" from="merge_0" to="merge_1" dir="1" speed="15.02" pos="54.13" reason="strategic|urgent" leaderGap="13.30" leaderSecureGap="21.95" leaderSpeed="12.31" followerGap="22.72" followerSecureGap="18.06" followerSpeed="16.54" origLeaderGap="None" origLeaderSecureGap="None" origLeaderSpeed="None" latGap="None"/>
    <change id="main.5" type="passenger" time="9.00" from="merge_1" to="merge_2" dir="1" speed="9.18" pos="34.43" reason="speedGain" leaderGap="8.15" leaderSecureGap="0.00" leaderSpeed="30.01" followerGap="None" followerSecureGap="None" followerSpeed="None" origLeaderGap="26.50" origLeaderSecureGap="3.94" origLeaderSpeed="11.80" latGap="None"/>
    <change id="ramp.4" type="motorcycle" time="11.00" from="merge_0" to="merge_1" dir="1" speed="14.53" pos="60.02" reason="strategic|urgent" leaderGap="22.93" leaderSecureGap="17.77" leaderSpeed="11.29" followerGap="66.02" followerSecureGap="56.70" followerSpeed="21.25" origLeaderGap="None" origLeaderSecureGap="None" origLeaderSpeed="None" latGap="None"/>
    <change id="ramp.5" type="motorcycle" time="14.00" from="merge_0" to="merge_1" dir="1" speed="11.55" pos="78.94" reason="strategic|urgent" leaderGap="None" leaderSecureGap="None" leaderSpeed="None" followerGap="38.02" followerSecureGap="29.83" followerSpeed="14.59" origLeaderGap="None" origLeaderSecureGap="None" origLeaderSpeed="None" latGap="None"/>
    <change id="main.14" type="passenger_pushy" time="18.00" from="beg_0" to="beg_1" dir="1" speed="23.53" pos="266.78" reason="cooperative|urgent" leaderGap="47.90" leaderSecureGap="0.00" leaderSpeed="29.04" followerGap="78.50" followerSecureGap="98.57" followerSpeed="34.34" origLeaderGap="35.41" origLeaderSecureGap="71.95" origLeaderSpeed="6.25" latGap="None"/>
    <change id="ramp.6" type="motorcycle" time="18.00" from="merge_0" to="merge_1" dir="1" speed="11.87" pos="100.17" reason="strategic|urgent" leaderGap="66.12" leaderSecureGap="0.00" leaderSpeed="25.66" followerGap="28.52" followerSecureGap="24.78" followerSpeed="13.38" origLeaderGap="None" origLeaderSecureGap="None" origLeaderSpeed="None" latGap="None"/>
    <change id="ramp.9" type="passenger_pushy" time="18.00" from="merge_0" to="merge_1" dir="1" speed="6.25" pos="14.23" reason="strategic|urgent" leaderGap="11.29" leaderSecureGap="0.00" leaderSpeed="13.99" followerGap="67.94" followerSecureGap="49.96" followerSpeed="26.65" origLeaderGap="11.36" origLeaderSecureGap="3.92" origLeaderSpeed="8.59" latGap="None"/>
    <change id="ramp.10" type="passenger_pushy" time="19.00" from="merge_0" to="merge_1" dir="1" speed="3.02" pos="6.95" reason="strategic|urgent" leaderGap="8.76" leaderSecureGap="1.05" leaderSpeed="6.47" followerGap="40.60" followerSecureGap="30.15" followerSpeed="20.05" origLeaderGap="27.94" origLeaderSecureGap="0.00" origLeaderSpeed="9.29" latGap="None"/>
    <change id="ramp.7" type="passenger" time="23.00" from="merge_0" to="merge_1" dir="1" speed="7.76" pos="98.78" reason="strategic|urgent" leaderGap="36.28" leaderSecureGap="0.00" leaderSpeed="19.62" followerGap="24.29" followerSecureGap="6.17" followerSpeed="6.96" origLeaderGap="None" origLeaderSecureGap="None" origLeaderSpeed="None" latGap="None"/>
    <change id="ramp.8" type="passenger" time="23.00" from="merge_0" to="merge_1" dir="1" speed="3.33" pos="56.10" reason="strategic|urgent" leaderGap="8.39" leaderSecureGap="0.86" leaderSpeed="6.96" followerGap="10.33" followerSecureGap="4.51" followerSpeed="4.51" origLeaderGap="None" origLeaderSecureGap="None" origLeaderSpeed="None" latGap="None"/>
    <change id="ramp.11" type="passenger_pushy" time="23.00" from="merge_0" to="merge_1" dir="1" speed="4.50" pos="16.10" reason="strategic|urgent" leaderGap="7.66" leaderSecureGap="4.51" leaderSpeed="2.65" followerGap="74.03" followerSecureGap="53.04" followerSpeed="19.61" origLeaderGap="None" origLeaderSecureGap="None" origLeaderSpeed="None" latGap="0.80"/>
    <change id="ramp.10" type="passenger_pushy" time="26.00" from="merge_1" to="merge_2" dir="1" speed="6.65" pos="43.97" reason="speedGain" leaderGap="9.42" leaderSecureGap="0.00" leaderSpeed="29.23" followerGap="28.84" followerSecureGap="33.10" followerSpeed="15.56" origLeaderGap="10.63" origLeaderSecureGap="5.17" origLeaderSpeed="8.13" latGap="None"/>
    <change id="main.24" type="motorcycle" time="27.00" from="beg_0" to="beg_1" dir="1" speed="23.01" pos="239.04" reason="speedGain" leaderGap="None" leaderSecureGap="None" leaderSpeed="None" followerGap="None" followerSecureGap="None" followerSpeed="None" origLeaderGap="23.22" origLeaderSecureGap="31.52" origLeaderSpeed="17.51" latGap="None"/>
    <change id="ramp.12" type="motorcycle" time="29.00" from="merge_0" to="merge_1" dir="1" speed="10.42" pos="58.68" reason="strategic|urgent" leaderGap="14.63" leaderSecureGap="10.83" leaderSpeed="8.27" followerGap="12.97" followerSecureGap="5.58" followerSpeed="6.00" origLeaderGap="None" origLeaderSecureGap="None" origLeaderSpeed="None" latGap="None"/>
    <change id="ramp.13" type="passenger_pushy" time="30.00" from="merge_0" to="merge_1" dir="1" speed="5.82" pos="35.60" reason="strategic|urgent" leaderGap="11.39" leaderSecureGap="7.14" leaderSpeed="5.68" followerGap="12.66" followerSecureGap="0.00" followerSpeed="0.47" origLeaderGap="None" origLeaderSecureGap="None" origLeaderSpeed="None" latGap="None"/>
    <change id="ramp.14" type="motorcycle" time="32.00" from="merge_0" to="merge_1" dir="1" speed="6.00" pos="32.03" reason="strategic|urgent" leaderGap="59.58" leaderSecureGap="1.29" leaderSpeed="14.71" followerGap="8.32" followerSecureGap="2.59" followerSpeed="2.59" origLeaderGap="None" origLeaderSecureGap="None" origLeaderSpeed="None" latGap="None"/>
    <change id="ramp.15" type="passenger_pushy" time="33.00" from="merge_0" to="merge_1" dir="1" speed="7.30" pos="24.53" reason="strategic|urgent" leaderGap="17.30" leaderSecureGap="8.10" leaderSpeed="12.00" followerGap="8.12" followerSecureGap="0.00" followerSpeed="0.00" origLeaderGap="None" origLeaderSecureGap="None" origLeaderSpeed="None" latGap="0.80"/>
    <change id="ramp.16" type="passenger_pushy" time="35.00" from="merge_0" to="merge_1" dir="1" speed="9.80" pos="26.93" reason="strategic|urgent" leaderGap="8.18" leaderSecureGap="14.72" leaderSpeed="5.68" followerGap="3.49" followerSecureGap="0.00" followerSpeed="4.42" origLeaderGap="None" origLeaderSecureGap="None" origLeaderSpeed="None" latGap="None"/>
    <change id="ramp.17" type="motorcycle" time="41.00" from="merge_0" to="merge_1" dir="1" speed="3.35" pos="55.60" reason="strategic|urgent" leaderGap="None" leaderSecureGap="None" leaderSpeed="None" followerGap="29.39" followerSecureGap="22.85" followerSpeed="12.12" origLeaderGap="None" origLeaderSecureGap="None" origLeaderSpeed="None" latGap="None"/>
    <change id="ramp.19" type="passenger_pushy" time="41.00" from="merge_0" to="merge_1" dir="1" speed="12.12" pos="24.02" reason="strategic|urgent" leaderGap="29.39" leaderSecureGap="22.85" leaderSpeed="3.35" followerGap="50.40" followerSecureGap="0.00" followerSpeed="1.25" origLeaderGap="14.78" origLeaderSecureGap="19.10" origLeaderSpeed="8.25" latGap="0.90"/>
    <change id="ramp.18" type="passenger" time="45.00" from="merge_0" to="merge_1" dir="1" speed="11.47" pos="79.09" reason="strategic|urgent" leaderGap="None" leaderSecureGap="None" leaderSpeed="None" followerGap="14.87" followerSecureGap="0.00" followerSpeed="5.86" origLeaderGap="None" origLeaderSecureGap="None" origLeaderSpeed="None" latGap="None"/>
    <change id="main.47" type="passenger" time="46.00" from="beg_0" to="beg_1" dir="1" speed="27.52" pos="104.31" reason="cooperative|urgent" leaderGap="38.13" leaderSecureGap="19.50" leaderSpeed="28.86" followerGap="14.24" followerSecureGap="12.52" followerSpeed="22.52" origLeaderGap="74.10" origLeaderSecureGap="88.43" origLeaderSpeed="19.73" latGap="None"/>
    <change id="ramp.20" type="truck" time="48.00" from="merge_0" to="merge_1" dir="1" speed="6.37" pos="49.02" reason="strategic|urgent" leaderGap="13.83" leaderSecureGap="2.70" leaderSpeed="9.52" followerGap="7.70" followerSecureGap="0.34" followerSpeed="2.21" origLeaderGap="None" origLeaderSecureGap="None" origLeaderSpeed="None" latGap="None"/>
    <change id="ramp.24" type="passenger_pushy" time="49.00" from="merge_0" to="merge_1" dir="1" speed="4.92" pos="5.79" reason="strategic|urgent" leaderGap="8.12" leaderSecureGap="5.33" leaderSpeed="0.00" followerGap="8.86" followerSecureGap="0.00" followerSpeed="0.00" origLeaderGap="4.09" origLeaderSecureGap="5.33" origLeaderSpeed="2.82" latGap="1.30"/>
    <change id="main.43" type="passenger_pushy" time="49.00" from="beg_0" to="beg_1" dir="1" speed="4.81" pos="222.47" reason="speedGain" leaderGap="2.81" leaderSecureGap="5.12" leaderSpeed="0.00" followerGap="41.26" followerSecureGap="54.95" followerSpeed="20.05" origLeaderGap="2.81" origLeaderSecureGap="5.12" origLeaderSpeed="0.00" latGap="None"/>
    <change id="main.34" type="passenger_pushy" time="50.00" from="beg_0" to="beg_1" dir="1" speed="2.61" pos="268.39" reason="speedGain" leaderGap="2.50" leaderSecureGap="2.61" leaderSpeed="0.00" followerGap="5.11" followerSecureGap="5.90" followerSpeed="5.20" origLeaderGap="None" origLeaderSecureGap="None" origLeaderSpeed="None" latGap="None"/>
    <change id="main.41" type="passenger" time="50.00" from="beg_0" to="beg_1" dir="1" speed="5.20" pos="245.58" reason="speedGain" leaderGap="7.70" leaderSecureGap="5.20" leaderSpeed="5.20" followerGap="7.70" followerSecureGap="1.90" followerSpeed="2.60" origLeaderGap="None" origLeaderSecureGap="None" origLeaderSpeed="None" latGap="None"/>
    <change id="main.25" type="motorcycle" time="51.00" from="merge_1" to="merge_2" dir="1" speed="0.00" pos="30.10" reason="cooperative|urgent" leaderGap="None" leaderSecureGap="None" leaderSpeed="None" followerGap="3.90" followerSecureGap="1.72" followerSpeed="1.72" origLeaderGap="0.82" origLeaderSecureGap="0.00" origLeaderSpeed="4.32" latGap="None"/>
    <change id="main.31" type="passenger_pushy" time="51.00" from="merge_1" to="merge_2" dir="1" speed="0.00" pos="3.91" reason="speedGain" leaderGap="4.37" leaderSecureGap="0.00" leaderSpeed="1.87" followerGap="13.38" followerSecureGap="2.60" followerSpeed="2.60" origLeaderGap="1.78" origLeaderSecureGap="0.00" origLeaderSpeed="3.31" latGap="None"/>
    <change id="main.33" type="passenger" time="51.00" from="beg_0" to="beg_1" dir="1" speed="2.60" pos="278.49" reason="speedGain" leaderGap="4.38" leaderSecureGap="2.60" leaderSpeed="1.88" followerGap="5.10" followerSecureGap="0.00" followerSpeed="0.00" origLeaderGap="None" origLeaderSecureGap="None" origLeaderSpeed="None" latGap="None"/>
    <change id="main.42" type="passenger" time="51.00" from="beg_0" to="beg_1" dir="1" speed="5.20" pos="238.08" reason="speedGain" leaderGap="7.70" leaderSecureGap="5.20" leaderSpeed="5.20" followerGap="7.39" followerSecureGap="2.21" followerSpeed="2.91" origLeaderGap="17.81" origLeaderSecureGap="5.90" origLeaderSpeed="2.61" latGap="None"/>
    <change id="main.32" type="truck" time="52.00" from=":gneJ0_1_0" to=":gneJ0_1_1" dir="1" speed="0.00" pos="7.17" reason="speedGain" leaderGap="None" leaderSecureGap="None" leaderSpeed="None" followerGap="2.50" followerSecureGap="1.88" followerSpeed="1.88" origLeaderGap="None" origLeaderSecureGap="None" origLeaderSpeed="None" latGap="None"/>
    <change id="ramp.21" type="passenger" time="52.00" from="merge_0" to="merge_1" dir="1" speed="6.92" pos="42.83" reason="strategic|urgent" leaderGap="21.82" leaderSecureGap="0.00" leaderSpeed="12.61" followerGap="12.43" followerSecureGap="0.00" followerSpeed="1.40" origLeaderGap="None" origLeaderSecureGap="None" origLeaderSpeed="None" latGap="None"/>
    <change id="main.27" type="passenger" time="52.00" from="merge_1" to="merge_2" dir="1" speed="0.00" pos="13.28" reason="cooperative|urgent" leaderGap="5.62" leaderSecureGap="0.00" leaderSpeed="1.40" followerGap="2.50" followerSecureGap="1.87" followerSpeed="1.87" origLeaderGap="5.62" origLeaderSecureGap="0.00" origLeaderSpeed="1.40" latGap="None"/>
    <change id="ramp.25" type="passenger_pushy" time="54.00" from="merge_0" to="merge_1" dir="1" speed="0.00" pos="8.58" reason="strategic|urgent" leaderGap="10.04" leaderSecureGap="0.00" leaderSpeed="0.00" followerGap="15.52" followerSecureGap="9.72" followerSpeed="7.11" origLeaderGap="2.54" origLeaderSecureGap="0.00" origLeaderSpeed="0.00" latGap="1.20"/>
    <change id="ramp.22" type="passenger" time="55.00" from="merge_0" to="merge_1" dir="1" speed="2.60" pos="26.22" reason="strategic|urgent" leaderGap="12.48" leaderSecureGap="0.00" leaderSpeed="9.20" followerGap="12.64" followerSecureGap="0.00" followerSpeed="0.00" origLeaderGap="None" origLeaderSecureGap="None" origLeaderSpeed="None" latGap="None"/>
    <change id="ramp.26" type="passenger_pushy" time="57.00" from="merge_0" to="merge_1" dir="1" speed="0.04" pos="1.12" reason="strategic|urgent" leaderGap="4.39" leaderSecureGap="0.04" leaderSpeed="1.89" followerGap="6.54" followerSecureGap="6.12" followerSpeed="6.12" origLeaderGap="16.58" origLeaderSecureGap="0.00" origLeaderSpeed="4.59" latGap="1.70"/>
    <change id="ramp.23" type="passenger" time="59.00" from="merge_0" to="merge_1" dir="1" speed="9.76" pos="39.65" reason="strategic|urgent" leaderGap="17.97" leaderSecureGap="3.29" leaderSpeed="13.00" followerGap="12.57" followerSecureGap="3.65" followerSpeed="7.09" origLeaderGap="None" origLeaderSecureGap="None" origLeaderSpeed="None" latGap="None"/>
    <change id="ramp.24" type="passenger_pushy" time="60.00" from="merge_1" to="merge_2" dir="1" speed="7.01" pos="29.35" reason="cooperative|urgent" leaderGap="14.88" leaderSecureGap="0.00" leaderSpeed="15.17" followerGap="9.51" followerSecureGap="1.90" followerSpeed="4.41" origLeaderGap="None" origLeaderSecureGap="None" origLeaderSpeed="None" latGap="None"/>
    <change id="main.38" type="passenger" time="62.00" from="merge_1" to="merge_2" dir="1" speed="9.61" pos="31.46" reason="cooperative|urgent" leaderGap="14.71" leaderSecureGap="4.41" leaderSpeed="12.21" followerGap="13.03" followerSecureGap="5.65" followerSpeed="7.93" origLeaderGap="None" origLeaderSecureGap="None" origLeaderSpeed="None" latGap="0.40"/>
    <change id="ramp.27" type="passenger" time="65.00" from="merge_0" to="merge_1" dir="1" speed="7.46" pos="23.02" reason="strategic|urgent" leaderGap="21.38" leaderSecureGap="0.00" leaderSpeed="13.64" followerGap="21.65" followerSecureGap="10.65" followerSpeed="9.04" origLeaderGap="None" origLeaderSecureGap="None" origLeaderSpeed="None" latGap="None"/>
    <change id="ramp.28" type="passenger" time="68.00" from="merge_0" to="merge_1" dir="1" speed="9.66" pos="32.23" reason="strategic|urgent" leaderGap="23.76" leaderSecureGap="0.00" leaderSpeed="15.26" followerGap="13.48" followerSecureGap="1.09" followerSpeed="5.70" origLeaderGap="None" origLeaderSecureGap="None" origLeaderSpeed="None" latGap="None"/>
    <change id="main.38" type="passenger" time="68.00" from="end_1" to="end_0" dir="-1" speed="21.57" pos="16.35" reason="sublane" leaderGap="21.12" leaderSecureGap="0.00" leaderSpeed="26.94" followerGap="24.21" followerSecureGap="8.74" followerSpeed="19.00" origLeaderGap="29.56" origLeaderSecureGap="0.00" origLeaderSpeed="28.66" latGap="None"/>
    <change id="ramp.29" type="passenger" time="70.00" from="merge_0" to="merge_1" dir="1" speed="3.85" pos="16.97" reason="strategic|urgent" leaderGap="10.98" leaderSecureGap="0.00" leaderSpeed="10.90" followerGap="8.25" followerSecureGap="4.41" followerSpeed="4.41" origLeaderGap="None" origLeaderSecureGap="None" origLeaderSpeed="None" latGap="None"/>
    <change id="ramp.30" type="truck" time="74.00" from="merge_0" to="merge_1" dir="1" speed="10.26" pos="32.34" reason="strategic|urgent" leaderGap="21.02" leaderSecureGap="1.53" leaderSpeed="14.25" followerGap="13.14" followerSecureGap="0.00" followerSpeed="4.88" origLeaderGap="None" origLeaderSecureGap="None" origLeaderSpeed="None" latGap="None"/>
    <change id="ramp.31" type="passenger" time="79.00" from="merge_0" to="merge_1" dir="1" speed="9.92" pos="27.81" reason="strategic|urgent" leaderGap="43.31" leaderSecureGap="0.00" leaderSpeed="17.88" followerGap="13.47" followerSecureGap="0.00" followerSpeed="1.94" origLeaderGap="None" origLeaderSecureGap="None" origLeaderSpeed="None" latGap="None"/>
    <change id="ramp.32" type="passenger" time="82.00" from="merge_0" to="merge_1" dir="1" speed="13.64" pos="43.51" reason="strategic|urgent" leaderGap="24.65" leaderSecureGap="1.41" leaderSpeed="17.72" followerGap="10.71" followerSecureGap="0.00" followerSpeed="8.26" origLeaderGap="None" origLeaderSecureGap="None" origLeaderSpeed="None" latGap="None"/>
    <change id="ramp.33" type="truck" time="84.00" from="merge_0" to="merge_1" dir="1" speed="8.63" pos="26.35" reason="strategic|urgent" leaderGap="20.78" leaderSecureGap="0.00" leaderSpeed="13.46" followerGap="14.12" followerSecureGap="0.00" followerSpeed="0.65" origLeaderGap="None" origLeaderSecureGap="None" origLeaderSpeed="None" latGap="None"/>
    <change id="ramp.34" type="passenger" time="86.00" from="merge_0" to="merge_1" dir="1" speed="9.50" pos="26.85" reason="strategic|urgent" leaderGap="18.06" leaderSecureGap="0.51" leaderSpeed="13.83" followerGap="7.01" followerSecureGap="1.70" followerSpeed="5.85" origLeaderGap="None" origLeaderSecureGap="None" origLeaderSpeed="None" latGap="None"/>
    <change id="ramp.35" type="motorcycle" time="91.00" from="merge_0" to="merge_1" dir="1" speed="6.05" pos="19.46" reason="strategic|urgent" leaderGap="21.89" leaderSecureGap="2.39" leaderSpeed="13.65" followerGap="13.84" followerSecureGap="1.42" followerSpeed="1.42" origLeaderGap="None" origLeaderSecureGap="None" origLeaderSpeed="None" latGap="None"/>
    <change id="ramp.36" type="passenger" time="95.00" from="merge_0" to="merge_1" dir="1" speed="8.47" pos="27.01" reason="strategic|urgent" leaderGap="63.99" leaderSecureGap="0.00" leaderSpeed="22.56" followerGap="12.17" followerSecureGap="0.00" followerSpeed="3.10" origLeaderGap="None" origLeaderSecureGap="None" origLeaderSpeed="None" latGap="None"/>
    <change id="ramp.37" type="passenger_pushy" time="95.00" from="merge_0" to="merge_1" dir="1" speed="0.00" pos="1.17" reason="strategic|urgent" leaderGap="3.67" leaderSecureGap="0.00" leaderSpeed="3.10" followerGap="5.15" followerSecureGap="2.60" followerSpeed="2.60" origLeaderGap="None" origLeaderSecureGap="None" origLeaderSpeed="None" latGap="0.80"/>
    <change id="main.78" type="motorcycle" time="100.00" from="beg_0" to="beg_1" dir="1" speed="2.60" pos="246.47" reason="speedGain" leaderGap="3.22" leaderSecureGap="2.60" leaderSpeed="0.72" followerGap="12.60" followerSecureGap="1.42" followerSpeed="1.42" origLeaderGap="23.82" origLeaderSecureGap="2.60" origLeaderSpeed="0.00" latGap="1.90"/>
    <change id="ramp.38" type="passenger_pushy" time="101.00" from="merge_0" to="merge_1" dir="1" speed="5.02" pos="24.05" reason="strategic|urgent" leaderGap="18.11" leaderSecureGap="0.00" leaderSpeed="14.17" followerGap="17.96" followerSecureGap="1.22" followerSpeed="1.74" origLeaderGap="None" origLeaderSecureGap="None" origLeaderSpeed="None" latGap="None"/>
    <change id="main.70" type="motorcycle" time="101.00" from="merge_1" to="merge_2" dir="1" speed="10.40" pos="17.74" reason="cooperative|urgent" leaderGap="2.51" leaderSecureGap="0.00" leaderSpeed="30.10" followerGap="23.68" followerSecureGap="5.14" followerSpeed="5.02" origLeaderGap="1.31" origLeaderSecureGap="10.80" origLeaderSpeed="5.02" latGap="None"/>
    <change id="ramp.39" type="passenger" time="102.00" from="merge_0" to="merge_1" dir="1" speed="3.35" pos="14.88" reason="strategic|urgent" leaderGap="11.79" leaderSecureGap="0.23" leaderSpeed="7.62" followerGap="7.05" followerSecureGap="1.74" followerSpeed="1.74" origLeaderGap="None" origLeaderSecureGap="None" origLeaderSpeed="None" latGap="None"/>
    <change id="ramp.40" type="motorcycle" time="106.00" from="merge_0" to="merge_1" dir="1" speed="12.02" pos="32.01" reason="strategic|urgent" leaderGap="16.63" leaderSecureGap="10.93" leaderSpeed="13.12" followerGap="34.48" followerSecureGap="0.00" followerSpeed="0.00" origLeaderGap="None" origLeaderSecureGap="None" origLeaderSpeed="None" latGap="None"/>
    <change id="ramp.41" type="motorcycle" time="106.00" from="merge_0" to="merge_1" dir="1" speed="6.02" pos="15.29" reason="strategic|urgent" leaderGap="14.52" leaderSecureGap="4.00" leaderSpeed="12.02" followerGap="17.76" followerSecureGap="0.00" followerSpeed="0.00" origLeaderGap="None" origLeaderSecureGap="None" origLeaderSpeed="None" latGap="None"/>
    <change id="main.75" type="passenger_pushy" time="110.00" from=":gneJ0_1_0" to=":gneJ0_1_1" dir="1" speed="1.56" pos="7.95" reason="speedGain" leaderGap="6.66" leaderSecureGap="1.56" leaderSpeed="4.16" followerGap="4.06" followerSecureGap="5.90" followerSpeed="5.20" origLeaderGap="None" origLeaderSecureGap="None" origLeaderSpeed="None" latGap="None"/>
    <change id="ramp.42" type="truck" time="110.00" from="merge_0" to="merge_1" dir="1" speed="5.80" pos="23.72" reason="strategic|urgent" leaderGap="12.18" leaderSecureGap="0.00" leaderSpeed="12.31" followerGap="13.57" followerSecureGap="1.16" followerSpeed="1.16" origLeaderGap="None" origLeaderSecureGap="None" origLeaderSpeed="None" latGap="None"/>
    <change id="main.77" type="passenger_pushy" time="113.00" from=":gneJ0_1_0" to=":gneJ0_1_1" dir="1" speed="2.96" pos="6.33" reason="speedGain" leaderGap="2.50" leaderSecureGap="2.96" leaderSpeed="0.00" followerGap="5.46" followerSecureGap="3.36" followerSpeed="3.36" origLeaderGap="5.40" origLeaderSecureGap="2.96" origLeaderSpeed="0.87" latGap="None"/>
    <change id="ramp.43" type="passenger" time="114.00" from="merge_0" to="merge_1" dir="1" speed="6.98" pos="37.80" reason="strategic|urgent" leaderGap="12.56" leaderSecureGap="7.97" leaderSpeed="5.99" followerGap="22.75" followerSecureGap="6.87" followerSpeed="6.87" origLeaderGap="None" origLeaderSecureGap="None" origLeaderSpeed="None" latGap="1.70"/>
    <change id="main.79" type="motorcycle" time="114.00" from="merge_1" to="merge_2" dir="1" speed="4.42" pos="18.30" reason="cooperative|urgent" leaderGap="18.06" leaderSecureGap="4.42" leaderSpeed="8.65" followerGap="10.42" followerSecureGap="2.60" followerSpeed="2.60" origLeaderGap="14.50" origLeaderSecureGap="4.42" origLeaderSpeed="6.98" latGap="None"/>
    <change id="ramp.41" type="motorcycle" time="116.00" from="end_0" to="end_1" dir="1" speed="18.37" pos="19.85" reason="sublane" leaderGap="34.72" leaderSecureGap="0.00" leaderSpeed="33.18" followerGap="33.90" followerSecureGap="17.15" followerSpeed="13.01" origLeaderGap="23.47" origLeaderSecureGap="17.30" origLeaderSpeed="19.43" latGap="None"/>
    <change id="ramp.45" type="passenger_pushy" time="116.00" from="merge_0" to="merge_1" dir="1" speed="7.14" pos="19.24" reason="strategic|urgent" leaderGap="7.50" leaderSecureGap="8.73" leaderSpeed="5.54" followerGap="34.51" followerSecureGap="0.00" followerSpeed="0.84" origLeaderGap="None" origLeaderSecureGap="None" origLeaderSpeed="None" latGap="0.90"/>
    <change id="ramp.44" type="truck" time="117.00" from="merge_0" to="merge_1" dir="1" speed="5.52" pos="38.75" reason="strategic|urgent" leaderGap="11.59" leaderSecureGap="6.54" leaderSpeed="3.79" followerGap="7.75" followerSecureGap="5.02" followerSpeed="5.27" origLeaderGap="None" origLeaderSecureGap="None" origLeaderSpeed="None" latGap="None"/>
    <change id="main.72" type="passenger_pushy" time="118.00" from="merge_1" to="merge_2" dir="1" speed="7.80" pos="3.67" reason="speedGain" leaderGap="10.20" leaderSecureGap="7.90" leaderSpeed="7.70" followerGap="10.30" followerSecureGap="5.20" followerSpeed="5.20" origLeaderGap="21.21" origLeaderSecureGap="10.22" origLeaderSpeed="5.38" latGap="None"/>
    <change id="main.92" type="passenger_pushy" time="118.00" from="beg_0" to="beg_1" dir="1" speed="3.44" pos="268.63" reason="speedGain" leaderGap="10.50" leaderSecureGap="3.44" leaderSpeed="5.20" followerGap="14.28" followerSecureGap="3.62" followerSpeed="3.62" origLeaderGap="5.10" origLeaderSecureGap="3.44" origLeaderSpeed="2.60" latGap="None"/>
    <change id="main.113" type="passenger_pushy" time="118.00" from="beg_0" to="beg_1" dir="1" speed="13.66" pos="166.57" reason="speedGain" leaderGap="3.25" leaderSecureGap="0.00" leaderSpeed="30.23" followerGap="124.35" followerSecureGap="112.15" followerSpeed="31.51" origLeaderGap="27.61" origLeaderSecureGap="27.63" origLeaderSpeed="1.71" latGap="None"/>
    <change id="ramp.47" type="passenger" time="120.00" from="merge_0" to="merge_1" dir="1" speed="8.01" pos="16.83" reason="strategic|urgent" leaderGap="22.28" leaderSecureGap="8.51" leaderSpeed="7.50" followerGap="13.06" followerSecureGap="7.59" followerSpeed="7.80" origLeaderGap="None" origLeaderSecureGap="None" origLeaderSpeed="None" latGap="2.10"/>
    <change id="main.108" type="motorcycle" time="120.00" from="beg_0" to="beg_1" dir="1" speed="0.00" pos="191.68" reason="speedGain" leaderGap="5.10" leaderSecureGap="0.00" leaderSpeed="2.60" followerGap="5.09" followerSecureGap="9.67" followerSpeed="7.09" origLeaderGap="40.47" origLeaderSecureGap="0.00" origLeaderSpeed="3.62" latGap="1.40"/>
    <change id="ramp.46" type="motorcycle" time="121.00" from="merge_0" to="merge_1" dir="1" speed="8.61" pos="36.61" reason="strategic|urgent" leaderGap="8.06" leaderSecureGap="8.61" leaderSpeed="5.56" followerGap="12.09" followerSecureGap="6.47" followerSpeed="5.49" origLeaderGap="None" origLeaderSecureGap="None" origLeaderSpeed="None" latGap="None"/>
    <change id="main.94" type="passenger" time="121.00" from="beg_0" to="beg_1" dir="1" speed="2.60" pos="256.23" reason="speedGain" leaderGap="7.70" leaderSecureGap="1.90" leaderSpeed="5.20" followerGap="5.10" followerSecureGap="3.44" followerSpeed="3.44" origLeaderGap="None" origLeaderSecureGap="None" origLeaderSpeed="None" latGap="1.80"/>
    <change id="main.77" type="passenger_pushy" time="122.00" from="merge_2" to="merge_1" dir="-1" speed="10.95" pos="60.40" reason="sublane" leaderGap="21.71" leaderSecureGap="3.40" leaderSpeed="14.32" followerGap="8.54" followerSecureGap="1.83" followerSpeed="2.78" origLeaderGap="34.94" origLeaderSecureGap="0.00" origLeaderSpeed="25.08" latGap="None"/>
    <change id="main.104" type="motorcycle" time="122.00" from="beg_0" to="beg_1" dir="1" speed="3.44" pos="238.63" reason="speedGain" leaderGap="17.80" leaderSecureGap="3.44" leaderSpeed="5.20" followerGap="11.72" followerSecureGap="4.97" followerSpeed="4.73" origLeaderGap="5.10" origLeaderSecureGap="3.44" origLeaderSpeed="2.60" latGap="None"/>
    <change id="ramp.48" type="passenger" time="123.00" from="merge_0" to="merge_1" dir="1" speed="4.62" pos="20.02" reason="strategic|urgent" leaderGap="10.65" leaderSecureGap="2.94" leaderSpeed="6.30" followerGap="10.12" followerSecureGap="1.16" followerSpeed="1.27" origLeaderGap="None" origLeaderSecureGap="None" origLeaderSpeed="None" latGap="None"/>
    <change id="main.95" type="motorcycle" time="124.00" from="beg_0" to="beg_1" dir="1" speed="9.10" pos="246.43" reason="speedGain" leaderGap="None" leaderSecureGap="None" leaderSpeed="None" followerGap="14.77" followerSecureGap="3.67" followerSpeed="3.67" origLeaderGap="None" origLeaderSecureGap="None" origLeaderSpeed="None" latGap="None"/>
    <change id="ramp.49" type="passenger" time="126.00" from="merge_0" to="merge_1" dir="1" speed="6.76" pos="23.32" reason="strategic|urgent" leaderGap="11.84" leaderSecureGap="7.53" leaderSpeed="5.99" followerGap="17.46" followerSecureGap="0.00" followerSpeed="0.00" origLeaderGap="None" origLeaderSecureGap="None" origLeaderSpeed="None" latGap="None"/>