<?xml version="1.0" encoding="UTF-8"?>

<!-- generated on Mon Feb 24 15:29:51 2020 by Eclipse SUMO Version v1_5_0+0233-a859802e1f
<configuration xmlns:xsi="http://www.w3.org/2001/XMLSchema-instance" xsi:noNamespaceSchemaLocation="http://sumo.dlr.de/xsd/sumoConfiguration.xsd">

    <input>
        <net-file value="input_net.net.xml"/>
        <route-files value="input_routes.rou.xml"/>
    </input>

    <processing>
        <default.speeddev value="0"/>
    </processing>

    <report>
        <no-step-log value="true"/>
    </report>

    <traci_server>
        <remote-port value="47305"/>
    </traci_server>

</configuration>
-->

<ToCDeviceLog>
    <TOR id="ToC_veh" t="32.00" lane="WE_0" lanePos="400.14" x="900.14" y="-4.80"/>
    <ToCdown id="ToC_veh" t="72.00" lane="WE_0" lanePos="955.74" x="1455.74" y="-4.80"/>
</ToCDeviceLog>
