<?xml version="1.0"?>

<!-- generated on 02/15/12 11:30:28 by SUMO sumo Version dev-SVN-r11891
<?xml version="1.0" encoding="UTF-8"?>

<configuration xmlns:xsi="http://www.w3.org/2001/XMLSchema-instance" xsi:noNamespaceSchemaLocation="http://sumo.sf.net/xsd/sumoConfiguration.xsd">

    <input>
        <net-file value="net.net.xml"/>
        <route-files value="input_routes.rou.xml"/>
        <additional-files value="input_additional.add.xml,input_additional2.add.xml"/>
    </input>

    <time>
        <begin value="0"/>
        <end value="1000"/>
    </time>

    <report>
        <no-duration-log value="true"/>
        <no-step-log value="true"/>
    </report>

</configuration>
-->

<netstats>
    <interval begin="0.00" end="25.00" id="dump_25">
        <edge id="beg" sampledSeconds="112.00" traveltime="31.71" density="8.99" occupancy="2.70" waitingTime="0.00" speed="15.72" departed="9" arrived="0" entered="0" left="0" laneChangedFrom="0" laneChangedTo="0"/>
    </interval>
    <interval begin="25.00" end="50.00" id="dump_25">
        <edge id="beg" sampledSeconds="232.22" traveltime="26.27" density="18.63" occupancy="5.59" waitingTime="0.00" speed="18.97" departed="9" arrived="0" entered="0" left="8" laneChangedFrom="0" laneChangedTo="0"/>
        <edge id="middle" sampledSeconds="96.87" traveltime="74.89" density="3.91" occupancy="1.17" waitingTime="0.00" speed="13.23" departed="0" arrived="0" entered="8" left="0" laneChangedFrom="0" laneChangedTo="0"/>
    </interval>
    <interval begin="50.00" end="75.00" id="dump_25">
        <edge id="beg" sampledSeconds="228.03" traveltime="26.80" density="18.30" occupancy="5.49" waitingTime="0.00" speed="18.60" departed="8" arrived="0" entered="0" left="9" laneChangedFrom="0" laneChangedTo="0"/>
        <edge id="middle" sampledSeconds="313.79" traveltime="74.73" density="12.67" occupancy="3.80" waitingTime="0.00" speed="13.25" departed="0" arrived="0" entered="9" left="0" laneChangedFrom="0" laneChangedTo="0"/>
    </interval>
    <interval begin="75.00" end="100.00" id="dump_25">
        <edge id="beg" sampledSeconds="240.08" traveltime="26.63" density="19.26" occupancy="5.78" waitingTime="0.00" speed="18.72" departed="9" arrived="0" entered="0" left="9" laneChangedFrom="0" laneChangedTo="0"/>
        <edge id="middle" sampledSeconds="526.97" traveltime="74.67" density="21.28" occupancy="6.38" waitingTime="0.00" speed="13.27" departed="0" arrived="0" entered="8" left="0" laneChangedFrom="0" laneChangedTo="0"/>
    </interval>
    <interval begin="100.00" end="125.00" id="dump_25">
        <edge id="beg" sampledSeconds="231.16" traveltime="26.80" density="18.55" occupancy="5.56" waitingTime="0.00" speed="18.60" departed="9" arrived="0" entered="0" left="9" laneChangedFrom="0" laneChangedTo="0"/>
        <edge id="end" sampledSeconds="71.38" traveltime="24.89" density="5.73" occupancy="1.72" waitingTime="0.00" speed="20.03" departed="0" arrived="0" entered="7" left="0" laneChangedFrom="0" laneChangedTo="0"/>
        <edge id="middle" sampledSeconds="675.27" traveltime="77.50" density="27.27" occupancy="8.18" waitingTime="0.00" speed="12.78" departed="0" arrived="0" entered="9" left="7" laneChangedFrom="0" laneChangedTo="0"/>
    </interval>
    <interval begin="125.00" end="150.00" id="dump_25">
        <edge id="beg" sampledSeconds="225.55" traveltime="26.87" density="18.10" occupancy="5.43" waitingTime="0.00" speed="18.56" departed="8" arrived="0" entered="0" left="8" laneChangedFrom="0" laneChangedTo="0"/>
        <edge id="end" sampledSeconds="176.69" traveltime="22.11" density="14.18" occupancy="4.25" waitingTime="0.00" speed="22.55" departed="0" arrived="0" entered="8" left="7" laneChangedFrom="0" laneChangedTo="0"/>
        <edge id="middle" sampledSeconds="692.46" traveltime="79.71" density="27.96" occupancy="8.39" waitingTime="0.00" speed="12.43" departed="0" arrived="0" entered="9" left="8" laneChangedFrom="0" laneChangedTo="0"/>
        <edge id="rend" sampledSeconds="87.62" traveltime="18.39" density="7.01" occupancy="2.10" waitingTime="0.00" speed="27.19" departed="0" arrived="1" entered="7" left="0" laneChangedFrom="0" laneChangedTo="0"/>
    </interval>
    <interval begin="150.00" end="175.00" id="dump_25">
        <edge id="beg" sampledSeconds="231.54" traveltime="26.45" density="18.58" occupancy="5.57" waitingTime="0.00" speed="18.85" departed="9" arrived="0" entered="0" left="8" laneChangedFrom="0" laneChangedTo="0"/>
        <edge id="end" sampledSeconds="185.44" traveltime="21.85" density="14.88" occupancy="4.46" waitingTime="0.00" speed="22.81" departed="0" arrived="0" entered="9" left="9" laneChangedFrom="0" laneChangedTo="0"/>
        <edge id="middle" sampledSeconds="690.03" traveltime="79.69" density="27.87" occupancy="8.36" waitingTime="0.00" speed="12.43" departed="0" arrived="0" entered="8" left="9" laneChangedFrom="0" laneChangedTo="0"/>
        <edge id="rend" sampledSeconds="151.08" traveltime="18.42" density="12.09" occupancy="3.63" waitingTime="0.00" speed="27.15" departed="0" arrived="1" entered="9" left="0" laneChangedFrom="0" laneChangedTo="0"/>
    </interval>
    <interval begin="175.00" end="200.00" id="dump_25">
        <edge id="beg" sampledSeconds="223.84" traveltime="26.75" density="17.96" occupancy="5.39" waitingTime="0.00" speed="18.64" departed="8" arrived="0" entered="0" left="9" laneChangedFrom="0" laneChangedTo="0"/>
        <edge id="end" sampledSeconds="186.78" traveltime="21.71" density="14.99" occupancy="4.50" waitingTime="0.00" speed="22.96" departed="0" arrived="0" entered="8" left="9" laneChangedFrom="0" laneChangedTo="0"/>
        <edge id="middle" sampledSeconds="693.42" traveltime="81.09" density="28.00" occupancy="8.40" waitingTime="0.00" speed="12.21" departed="0" arrived="0" entered="9" left="8" laneChangedFrom="0" laneChangedTo="0"/>
        <edge id="rend" sampledSeconds="158.84" traveltime="18.45" density="12.71" occupancy="3.81" waitingTime="0.00" speed="27.10" departed="0" arrived="1" entered="9" left="0" laneChangedFrom="0" laneChangedTo="0"/>
    </interval>
    <interval begin="200.00" end="225.00" id="dump_25">
        <edge id="beg" sampledSeconds="259.85" traveltime="31.35" density="20.85" occupancy="6.25" waitingTime="0.00" speed="15.90" departed="9" arrived="0" entered="0" left="6" laneChangedFrom="0" laneChangedTo="0"/>
        <edge id="end" sampledSeconds="133.38" traveltime="21.40" density="10.70" occupancy="3.21" waitingTime="0.00" speed="23.30" departed="0" arrived="0" entered="4" left="7" laneChangedFrom="0" laneChangedTo="0"/>
        <edge id="middle" sampledSeconds="705.37" traveltime="406.56" density="28.49" occupancy="8.55" waitingTime="0.00" speed="2.44" departed="0" arrived="0" entered="5" left="4" laneChangedFrom="0" laneChangedTo="0"/>
        <edge id="rend" sampledSeconds="154.11" traveltime="18.41" density="12.33" occupancy="3.70" waitingTime="0.00" speed="27.16" departed="0" arrived="3" entered="7" left="0" laneChangedFrom="0" laneChangedTo="0"/>
    </interval>
    <interval begin="225.00" end="250.00" id="dump_25">
        <edge id="beg" sampledSeconds="335.85" traveltime="39.50" density="26.95" occupancy="8.08" waitingTime="0.00" speed="12.62" departed="8" arrived="0" entered="0" left="5" laneChangedFrom="0" laneChangedTo="0"/>
        <edge id="end" sampledSeconds="54.84" traveltime="21.15" density="4.40" occupancy="1.32" waitingTime="0.00" speed="23.58" departed="0" arrived="0" entered="1" left="4" laneChangedFrom="0" laneChangedTo="0"/>
        <edge id="middle" sampledSeconds="783.85" traveltime="462.11" density="31.65" occupancy="9.50" waitingTime="0.00" speed="2.14" departed="0" arrived="0" entered="6" left="1" laneChangedFrom="0" laneChangedTo="0"/>
        <edge id="rend" sampledSeconds="95.36" traveltime="18.44" density="7.63" occupancy="2.29" waitingTime="0.00" speed="27.11" departed="0" arrived="1" entered="4" left="0" laneChangedFrom="0" laneChangedTo="0"/>
    </interval>
    <interval begin="250.00" end="275.00" id="dump_25">
        <edge id="beg" sampledSeconds="403.64" traveltime="48.99" density="32.39" occupancy="9.72" waitingTime="0.00" speed="10.18" departed="9" arrived="0" entered="0" left="7" laneChangedFrom="0" laneChangedTo="0"/>
        <edge id="end" sampledSeconds="39.64" traveltime="23.52" density="3.18" occupancy="0.95" waitingTime="0.00" speed="21.19" departed="0" arrived="0" entered="2" left="1" laneChangedFrom="0" laneChangedTo="0"/>
        <edge id="middle" sampledSeconds="888.98" traveltime="470.85" density="35.90" occupancy="10.77" waitingTime="0.00" speed="2.10" departed="0" arrived="0" entered="6" left="2" laneChangedFrom="0" laneChangedTo="0"/>
        <edge id="rend" sampledSeconds="36.83" traveltime="18.47" density="2.95" occupancy="0.88" waitingTime="0.00" speed="27.07" departed="0" arrived="1" entered="1" left="0" laneChangedFrom="0" laneChangedTo="0"/>
    </interval>
    <interval begin="275.00" end="300.00" id="dump_25">
        <edge id="beg" sampledSeconds="469.25" traveltime="56.83" density="37.65" occupancy="11.29" waitingTime="0.00" speed="8.77" departed="6" arrived="0" entered="0" left="5" laneChangedFrom="0" laneChangedTo="0"/>
        <edge id="end" sampledSeconds="22.14" traveltime="21.95" density="1.78" occupancy="0.53" waitingTime="0.00" speed="22.71" departed="0" arrived="0" entered="1" left="2" laneChangedFrom="0" laneChangedTo="0"/>
        <edge id="middle" sampledSeconds="1007.73" traveltime="478.28" density="40.70" occupancy="12.21" waitingTime="0.00" speed="2.07" departed="0" arrived="0" entered="5" left="1" laneChangedFrom="0" laneChangedTo="0"/>
        <edge id="rend" sampledSeconds="32.14" traveltime="18.44" density="2.57" occupancy="0.77" waitingTime="0.00" speed="27.12" departed="0" arrived="0" entered="2" left="0" laneChangedFrom="0" laneChangedTo="0"/>
    </interval>
    <interval begin="300.00" end="325.00" id="dump_25">
        <edge id="beg" sampledSeconds="378.87" traveltime="125.36" density="30.40" occupancy="9.12" waitingTime="0.00" speed="3.98" departed="0" arrived="0" entered="0" left="6" laneChangedFrom="0" laneChangedTo="0"/>
        <edge id="end" sampledSeconds="84.09" traveltime="23.73" density="6.75" occupancy="2.02" waitingTime="0.00" speed="21.01" departed="0" arrived="0" entered="7" left="1" laneChangedFrom="0" laneChangedTo="0"/>
        <edge id="middle" sampledSeconds="1064.17" traveltime="105.41" density="42.97" occupancy="12.89" waitingTime="0.00" speed="9.40" departed="0" arrived="0" entered="7" left="7" laneChangedFrom="0" laneChangedTo="0"/>
        <edge id="rend" sampledSeconds="17.39" traveltime="18.39" density="1.39" occupancy="0.42" waitingTime="0.00" speed="27.20" departed="0" arrived="0" entered="1" left="0" laneChangedFrom="0" laneChangedTo="0"/>
    </interval>
    <interval begin="325.00" end="350.00" id="dump_25">
        <edge id="beg" sampledSeconds="215.44" traveltime="213.39" density="17.29" occupancy="5.19" waitingTime="0.00" speed="2.34" departed="0" arrived="0" entered="0" left="7" laneChangedFrom="0" laneChangedTo="0"/>
        <edge id="end" sampledSeconds="178.73" traveltime="22.21" density="14.34" occupancy="4.30" waitingTime="0.00" speed="22.45" departed="0" arrived="0" entered="8" left="8" laneChangedFrom="0" laneChangedTo="0"/>
        <edge id="middle" sampledSeconds="1028.03" traveltime="86.26" density="41.52" occupancy="12.45" waitingTime="0.00" speed="11.48" departed="0" arrived="0" entered="7" left="8" laneChangedFrom="0" laneChangedTo="0"/>
        <edge id="rend" sampledSeconds="92.36" traveltime="18.39" density="7.39" occupancy="2.22" waitingTime="0.00" speed="27.19" departed="0" arrived="1" entered="8" left="0" laneChangedFrom="0" laneChangedTo="0"/>
    </interval>
    <interval begin="350.00" end="375.00" id="dump_25">
        <edge id="beg" sampledSeconds="34.85" traveltime="138.67" density="2.80" occupancy="0.84" waitingTime="0.00" speed="3.60" departed="0" arrived="0" entered="0" left="5" laneChangedFrom="0" laneChangedTo="0"/>
        <edge id="end" sampledSeconds="196.03" traveltime="21.60" density="15.73" occupancy="4.72" waitingTime="0.00" speed="23.08" departed="0" arrived="0" entered="9" left="8" laneChangedFrom="0" laneChangedTo="0"/>
        <edge id="middle" sampledSeconds="991.57" traveltime="85.84" density="40.04" occupancy="12.01" waitingTime="0.00" speed="11.54" departed="0" arrived="0" entered="5" left="9" laneChangedFrom="0" laneChangedTo="0"/>
        <edge id="rend" sampledSeconds="155.06" traveltime="18.42" density="12.40" occupancy="3.72" waitingTime="0.00" speed="27.15" departed="0" arrived="1" entered="8" left="0" laneChangedFrom="0" laneChangedTo="0"/>
    </interval>
    <interval begin="375.00" end="400.00" id="dump_25">
        <edge id="end" sampledSeconds="186.71" traveltime="21.91" density="14.98" occupancy="4.49" waitingTime="0.00" speed="22.75" departed="0" arrived="0" entered="9" left="9" laneChangedFrom="0" laneChangedTo="0"/>
        <edge id="middle" sampledSeconds="815.94" traveltime="110.55" density="32.95" occupancy="9.89" waitingTime="0.00" speed="8.96" departed="0" arrived="0" entered="0" left="9" laneChangedFrom="0" laneChangedTo="0"/>
        <edge id="rend" sampledSeconds="164.81" traveltime="18.42" density="13.19" occupancy="3.96" waitingTime="0.00" speed="27.15" departed="0" arrived="2" entered="9" left="0" laneChangedFrom="0" laneChangedTo="0"/>
    </interval>
    <interval begin="400.00" end="425.00" id="dump_25">
        <edge id="end" sampledSeconds="192.85" traveltime="21.82" density="15.47" occupancy="4.64" waitingTime="0.00" speed="22.85" departed="0" arrived="0" entered="8" left="9" laneChangedFrom="0" laneChangedTo="0"/>
        <edge id="middle" sampledSeconds="596.36" traveltime="181.54" density="24.08" occupancy="7.22" waitingTime="0.00" speed="5.46" departed="0" arrived="0" entered="0" left="9" laneChangedFrom="0" laneChangedTo="0"/>
        <edge id="rend" sampledSeconds="159.82" traveltime="18.40" density="12.79" occupancy="3.84" waitingTime="0.00" speed="27.17" departed="0" arrived="1" entered="9" left="0" laneChangedFrom="0" laneChangedTo="0"/>
    </interval>
    <interval begin="425.00" end="450.00" id="dump_25">
        <edge id="end" sampledSeconds="184.79" traveltime="21.96" density="14.83" occupancy="4.45" waitingTime="0.00" speed="22.71" departed="0" arrived="0" entered="9" left="8" laneChangedFrom="0" laneChangedTo="0"/>
        <edge id="middle" sampledSeconds="386.05" traveltime="226.83" density="15.59" occupancy="4.68" waitingTime="0.00" speed="4.37" departed="0" arrived="0" entered="0" left="8" laneChangedFrom="0" laneChangedTo="0"/>
        <edge id="rend" sampledSeconds="160.26" traveltime="18.41" density="12.82" occupancy="3.85" waitingTime="0.00" speed="27.15" departed="0" arrived="2" entered="8" left="0" laneChangedFrom="0" laneChangedTo="0"/>
    </interval>
    <interval begin="450.00" end="475.00" id="dump_25">
        <edge id="end" sampledSeconds="185.11" traveltime="21.88" density="14.85" occupancy="4.46" waitingTime="0.00" speed="22.79" departed="0" arrived="0" entered="8" left="9" laneChangedFrom="0" laneChangedTo="0"/>
        <edge id="middle" sampledSeconds="177.74" traveltime="243.36" density="7.18" occupancy="2.15" waitingTime="0.00" speed="4.07" departed="0" arrived="0" entered="0" left="8" laneChangedFrom="0" laneChangedTo="0"/>
        <edge id="rend" sampledSeconds="153.18" traveltime="18.40" density="12.25" occupancy="3.68" waitingTime="0.00" speed="27.18" departed="0" arrived="1" entered="9" left="0" laneChangedFrom="0" laneChangedTo="0"/>
    </interval>
    <interval begin="475.00" end="500.00" id="dump_25">
        <edge id="end" sampledSeconds="141.90" traveltime="20.71" density="11.38" occupancy="3.42" waitingTime="0.00" speed="24.07" departed="0" arrived="0" entered="3" left="8" laneChangedFrom="0" laneChangedTo="0"/>
        <edge id="middle" sampledSeconds="12.56" traveltime="219.56" density="0.51" occupancy="0.15" waitingTime="0.00" speed="4.51" departed="0" arrived="0" entered="0" left="3" laneChangedFrom="0" laneChangedTo="0"/>
        <edge id="rend" sampledSeconds="155.90" traveltime="18.42" density="12.47" occupancy="3.74" waitingTime="0.00" speed="27.15" departed="0" arrived="2" entered="8" left="0" laneChangedFrom="0" laneChangedTo="0"/>
    </interval>
    <interval begin="500.00" end="525.00" id="dump_25">
        <edge id="end" sampledSeconds="7.02" traveltime="18.31" density="0.56" occupancy="0.17" waitingTime="0.00" speed="27.22" departed="0" arrived="0" entered="0" left="2" laneChangedFrom="0" laneChangedTo="0"/>
        <edge id="rend" sampledSeconds="95.09" traveltime="18.38" density="7.61" occupancy="2.28" waitingTime="0.00" speed="27.21" departed="0" arrived="3" entered="2" left="0" laneChangedFrom="0" laneChangedTo="0"/>
    </interval>
    <interval begin="525.00" end="550.00" id="dump_25">
    </interval>
    <interval begin="550.00" end="575.00" id="dump_25">
    </interval>
    <interval begin="575.00" end="600.00" id="dump_25">
    </interval>
    <interval begin="600.00" end="625.00" id="dump_25">
    </interval>
    <interval begin="625.00" end="650.00" id="dump_25">
    </interval>
    <interval begin="650.00" end="675.00" id="dump_25">
    </interval>
    <interval begin="675.00" end="700.00" id="dump_25">
    </interval>
    <interval begin="700.00" end="725.00" id="dump_25">
    </interval>
    <interval begin="725.00" end="750.00" id="dump_25">
    </interval>
    <interval begin="750.00" end="775.00" id="dump_25">
    </interval>
    <interval begin="775.00" end="800.00" id="dump_25">
    </interval>
    <interval begin="800.00" end="825.00" id="dump_25">
    </interval>
    <interval begin="825.00" end="850.00" id="dump_25">
    </interval>
    <interval begin="850.00" end="875.00" id="dump_25">
    </interval>
    <interval begin="875.00" end="900.00" id="dump_25">
    </interval>
    <interval begin="900.00" end="925.00" id="dump_25">
    </interval>
    <interval begin="925.00" end="950.00" id="dump_25">
    </interval>
    <interval begin="950.00" end="975.00" id="dump_25">
    </interval>
    <interval begin="975.00" end="1000.00" id="dump_25">
    </interval>
</netstats>
