<?xml version="1.0"?>

<!-- generated on 04/15/10 13:26:00 by SUMO sumo Version dev-SVN-r8163
<configuration>

    <input>
        <net-file value="net.net.xml"/>
        <route-files value="input_routes.rou.xml"/>
        <additional-files value="input_additional.add.xml,input_additional2.add.xml"/>
    </input>

    <time>
        <begin value="0"/>
        <end value="1000"/>
    </time>

    <report>
        <no-duration-log value="true"/>
        <no-step-log value="true"/>
    </report>

</configuration>
-->

<netstats>
    <interval begin="0.00" end="25.00" id="dump_25">
        <edge id="beg" sampledSeconds="136.00" traveltime="34.16" density="10.91" occupancy="5.46" waitingTime="0.00" speed="14.60" departed="11" arrived="0" entered="0" left="0" laneChangedFrom="0" laneChangedTo="0"/>
    </interval>
    <interval begin="25.00" end="50.00" id="dump_25">
        <edge id="beg" sampledSeconds="283.46" traveltime="26.98" density="22.74" occupancy="11.37" waitingTime="0.00" speed="18.48" departed="11" arrived="0" entered="0" left="10" laneChangedFrom="0" laneChangedTo="0"/>
        <edge id="middle" sampledSeconds="111.97" traveltime="74.15" density="4.52" occupancy="2.26" waitingTime="0.00" speed="13.36" departed="0" arrived="0" entered="10" left="0" laneChangedFrom="0" laneChangedTo="0"/>
    </interval>
    <interval begin="50.00" end="75.00" id="dump_25">
        <edge id="beg" sampledSeconds="287.14" traveltime="26.93" density="23.04" occupancy="11.52" waitingTime="0.00" speed="18.51" departed="10" arrived="0" entered="0" left="10" laneChangedFrom="0" laneChangedTo="0"/>
        <edge id="middle" sampledSeconds="374.27" traveltime="74.07" density="15.11" occupancy="7.56" waitingTime="0.00" speed="13.37" departed="0" arrived="0" entered="10" left="0" laneChangedFrom="0" laneChangedTo="0"/>
    </interval>
    <interval begin="75.00" end="100.00" id="dump_25">
        <edge id="beg" sampledSeconds="285.13" traveltime="26.82" density="22.88" occupancy="11.44" waitingTime="0.00" speed="18.59" departed="10" arrived="0" entered="0" left="11" laneChangedFrom="0" laneChangedTo="0"/>
        <edge id="middle" sampledSeconds="640.83" traveltime="73.97" density="25.88" occupancy="12.94" waitingTime="0.00" speed="13.39" departed="0" arrived="0" entered="11" left="0" laneChangedFrom="0" laneChangedTo="0"/>
    </interval>
    <interval begin="100.00" end="125.00" id="dump_25">
        <edge id="beg" sampledSeconds="276.84" traveltime="26.95" density="22.21" occupancy="11.11" waitingTime="0.00" speed="18.50" departed="11" arrived="0" entered="0" left="11" laneChangedFrom="0" laneChangedTo="0"/>
        <edge id="end" sampledSeconds="82.08" traveltime="28.26" density="6.59" occupancy="3.29" waitingTime="0.00" speed="17.64" departed="0" arrived="0" entered="8" left="0" laneChangedFrom="0" laneChangedTo="0"/>
        <edge id="middle" sampledSeconds="816.43" traveltime="77.30" density="32.97" occupancy="16.49" waitingTime="0.00" speed="12.81" departed="0" arrived="0" entered="10" left="8" laneChangedFrom="0" laneChangedTo="0"/>
    </interval>
    <interval begin="125.00" end="150.00" id="dump_25">
        <edge id="beg" sampledSeconds="270.17" traveltime="27.16" density="21.68" occupancy="10.84" waitingTime="0.00" speed="18.35" departed="10" arrived="0" entered="0" left="10" laneChangedFrom="0" laneChangedTo="0"/>
        <edge id="end" sampledSeconds="218.67" traveltime="22.87" density="17.54" occupancy="8.77" waitingTime="0.00" speed="21.80" departed="0" arrived="0" entered="10" left="9" laneChangedFrom="0" laneChangedTo="0"/>
        <edge id="middle" sampledSeconds="833.14" traveltime="79.63" density="33.65" occupancy="16.82" waitingTime="0.00" speed="12.44" departed="0" arrived="0" entered="10" left="10" laneChangedFrom="0" laneChangedTo="0"/>
        <edge id="rend" sampledSeconds="4.84" traveltime="18.21" density="0.39" occupancy="0.19" waitingTime="0.00" speed="27.46" departed="0" arrived="9" entered="9" left="0" laneChangedFrom="0" laneChangedTo="0"/>
    </interval>
    <interval begin="150.00" end="175.00" id="dump_25">
        <edge id="beg" sampledSeconds="281.86" traveltime="26.95" density="22.61" occupancy="11.31" waitingTime="0.00" speed="18.50" departed="10" arrived="0" entered="0" left="10" laneChangedFrom="0" laneChangedTo="0"/>
        <edge id="end" sampledSeconds="237.55" traveltime="22.62" density="19.06" occupancy="9.53" waitingTime="0.00" speed="22.04" departed="0" arrived="0" entered="10" left="10" laneChangedFrom="0" laneChangedTo="0"/>
        <edge id="middle" sampledSeconds="822.90" traveltime="80.01" density="33.23" occupancy="16.62" waitingTime="0.00" speed="12.38" departed="0" arrived="0" entered="11" left="11" laneChangedFrom="0" laneChangedTo="0"/>
        <edge id="rend" sampledSeconds="4.29" traveltime="18.16" density="0.34" occupancy="0.17" waitingTime="0.00" speed="27.54" departed="0" arrived="10" entered="10" left="0" laneChangedFrom="0" laneChangedTo="0"/>
    </interval>
    <interval begin="175.00" end="200.00" id="dump_25">
        <edge id="beg" sampledSeconds="285.56" traveltime="27.13" density="22.91" occupancy="11.46" waitingTime="0.00" speed="18.37" departed="10" arrived="0" entered="0" left="10" laneChangedFrom="0" laneChangedTo="0"/>
        <edge id="end" sampledSeconds="222.31" traveltime="22.76" density="17.84" occupancy="8.92" waitingTime="0.00" speed="21.90" departed="0" arrived="0" entered="10" left="10" laneChangedFrom="0" laneChangedTo="0"/>
        <edge id="middle" sampledSeconds="837.63" traveltime="82.43" density="33.83" occupancy="16.91" waitingTime="0.00" speed="12.02" departed="0" arrived="0" entered="10" left="9" laneChangedFrom="0" laneChangedTo="0"/>
        <edge id="rend" sampledSeconds="6.06" traveltime="18.26" density="0.48" occupancy="0.24" waitingTime="0.00" speed="27.38" departed="0" arrived="10" entered="10" left="0" laneChangedFrom="0" laneChangedTo="0"/>
    </interval>
    <interval begin="200.00" end="225.00" id="dump_25">
        <edge id="beg" sampledSeconds="323.32" traveltime="33.11" density="25.94" occupancy="12.97" waitingTime="0.00" speed="15.06" departed="11" arrived="0" entered="0" left="7" laneChangedFrom="0" laneChangedTo="0"/>
        <edge id="end" sampledSeconds="159.64" traveltime="22.43" density="12.81" occupancy="6.40" waitingTime="0.00" speed="22.23" departed="0" arrived="0" entered="5" left="9" laneChangedFrom="0" laneChangedTo="0"/>
        <edge id="middle" sampledSeconds="860.21" traveltime="456.16" density="34.74" occupancy="17.37" waitingTime="0.00" speed="2.17" departed="0" arrived="0" entered="6" left="5" laneChangedFrom="0" laneChangedTo="0"/>
        <edge id="rend" sampledSeconds="4.47" traveltime="18.25" density="0.36" occupancy="0.18" waitingTime="0.00" speed="27.40" departed="0" arrived="9" entered="9" left="0" laneChangedFrom="0" laneChangedTo="0"/>
    </interval>
    <interval begin="225.00" end="250.00" id="dump_25">
        <edge id="beg" sampledSeconds="410.97" traveltime="41.97" density="32.97" occupancy="16.49" waitingTime="0.00" speed="11.88" departed="7" arrived="0" entered="0" left="6" laneChangedFrom="0" laneChangedTo="0"/>
        <edge id="end" sampledSeconds="92.19" traveltime="22.23" density="7.40" occupancy="3.70" waitingTime="0.00" speed="22.43" departed="0" arrived="0" entered="2" left="5" laneChangedFrom="0" laneChangedTo="0"/>
        <edge id="middle" sampledSeconds="922.17" traveltime="462.30" density="37.24" occupancy="18.62" waitingTime="0.00" speed="2.14" departed="0" arrived="0" entered="6" left="2" laneChangedFrom="0" laneChangedTo="0"/>
        <edge id="rend" sampledSeconds="2.58" traveltime="18.23" density="0.21" occupancy="0.10" waitingTime="0.00" speed="27.43" departed="0" arrived="5" entered="5" left="0" laneChangedFrom="0" laneChangedTo="0"/>
    </interval>
    <interval begin="250.00" end="275.00" id="dump_25">
        <edge id="beg" sampledSeconds="325.87" traveltime="88.24" density="26.15" occupancy="13.07" waitingTime="0.00" speed="5.65" departed="0" arrived="0" entered="0" left="6" laneChangedFrom="0" laneChangedTo="0"/>
        <edge id="end" sampledSeconds="37.91" traveltime="23.02" density="3.04" occupancy="1.52" waitingTime="0.00" speed="21.66" departed="0" arrived="0" entered="2" left="2" laneChangedFrom="0" laneChangedTo="0"/>
        <edge id="middle" sampledSeconds="1032.46" traveltime="469.84" density="41.69" occupancy="20.85" waitingTime="0.00" speed="2.11" departed="0" arrived="0" entered="6" left="2" laneChangedFrom="0" laneChangedTo="0"/>
        <edge id="rend" sampledSeconds="0.97" traveltime="18.39" density="0.08" occupancy="0.04" waitingTime="0.00" speed="27.18" departed="0" arrived="2" entered="2" left="0" laneChangedFrom="0" laneChangedTo="0"/>
    </interval>
    <interval begin="275.00" end="300.00" id="dump_25">
        <edge id="beg" sampledSeconds="173.08" traveltime="264.50" density="13.89" occupancy="6.94" waitingTime="0.00" speed="1.88" departed="0" arrived="0" entered="0" left="6" laneChangedFrom="0" laneChangedTo="0"/>
        <edge id="end" sampledSeconds="38.70" traveltime="23.10" density="3.11" occupancy="1.55" waitingTime="0.00" speed="21.58" departed="0" arrived="0" entered="1" left="2" laneChangedFrom="0" laneChangedTo="0"/>
        <edge id="middle" sampledSeconds="1146.08" traveltime="473.16" density="46.28" occupancy="23.14" waitingTime="0.00" speed="2.09" departed="0" arrived="0" entered="6" left="1" laneChangedFrom="0" laneChangedTo="0"/>
        <edge id="rend" sampledSeconds="1.04" traveltime="18.23" density="0.08" occupancy="0.04" waitingTime="0.00" speed="27.43" departed="0" arrived="2" entered="2" left="0" laneChangedFrom="0" laneChangedTo="0"/>
    </interval>
    <interval begin="300.00" end="325.00" id="dump_25">
        <edge id="beg" sampledSeconds="27.71" traveltime="255.55" density="2.22" occupancy="1.11" waitingTime="0.00" speed="1.95" departed="0" arrived="0" entered="0" left="4" laneChangedFrom="0" laneChangedTo="0"/>
        <edge id="end" sampledSeconds="98.29" traveltime="26.16" density="7.89" occupancy="3.94" waitingTime="0.00" speed="19.05" departed="0" arrived="0" entered="8" left="1" laneChangedFrom="0" laneChangedTo="0"/>
        <edge id="middle" sampledSeconds="1191.98" traveltime="92.11" density="48.14" occupancy="24.07" waitingTime="0.00" speed="10.75" departed="0" arrived="0" entered="5" left="8" laneChangedFrom="0" laneChangedTo="0"/>
        <edge id="rend" sampledSeconds="0.39" traveltime="18.11" density="0.03" occupancy="0.02" waitingTime="0.00" speed="27.60" departed="0" arrived="1" entered="1" left="0" laneChangedFrom="0" laneChangedTo="0"/>
    </interval>
    <interval begin="325.00" end="350.00" id="dump_25">
        <edge id="end" sampledSeconds="220.70" traveltime="23.01" density="17.71" occupancy="8.85" waitingTime="0.00" speed="21.67" departed="0" arrived="0" entered="10" left="8" laneChangedFrom="0" laneChangedTo="0"/>
        <edge id="middle" sampledSeconds="991.76" traveltime="68.39" density="40.05" occupancy="20.03" waitingTime="0.00" speed="14.48" departed="0" arrived="0" entered="0" left="10" laneChangedFrom="0" laneChangedTo="0"/>
        <edge id="rend" sampledSeconds="3.79" traveltime="18.32" density="0.30" occupancy="0.15" waitingTime="0.00" speed="27.29" departed="0" arrived="8" entered="8" left="0" laneChangedFrom="0" laneChangedTo="0"/>
    </interval>
    <interval begin="350.00" end="375.00" id="dump_25">
        <edge id="end" sampledSeconds="238.77" traveltime="22.76" density="19.16" occupancy="9.58" waitingTime="0.00" speed="21.90" departed="0" arrived="0" entered="10" left="11" laneChangedFrom="0" laneChangedTo="0"/>
        <edge id="middle" sampledSeconds="730.75" traveltime="140.64" density="29.51" occupancy="14.76" waitingTime="0.00" speed="7.04" departed="0" arrived="0" entered="0" left="11" laneChangedFrom="0" laneChangedTo="0"/>
        <edge id="rend" sampledSeconds="5.17" traveltime="18.23" density="0.41" occupancy="0.21" waitingTime="0.00" speed="27.43" departed="0" arrived="11" entered="11" left="0" laneChangedFrom="0" laneChangedTo="0"/>
    </interval>
    <interval begin="375.00" end="400.00" id="dump_25">
        <edge id="end" sampledSeconds="232.66" traveltime="22.94" density="18.67" occupancy="9.33" waitingTime="0.00" speed="21.74" departed="0" arrived="0" entered="11" left="10" laneChangedFrom="0" laneChangedTo="0"/>
        <edge id="middle" sampledSeconds="475.42" traveltime="223.52" density="19.20" occupancy="9.60" waitingTime="0.00" speed="4.43" departed="0" arrived="0" entered="0" left="10" laneChangedFrom="0" laneChangedTo="0"/>
        <edge id="rend" sampledSeconds="3.77" traveltime="18.20" density="0.30" occupancy="0.15" waitingTime="0.00" speed="27.47" departed="0" arrived="10" entered="10" left="0" laneChangedFrom="0" laneChangedTo="0"/>
    </interval>
    <interval begin="400.00" end="425.00" id="dump_25">
        <edge id="end" sampledSeconds="240.16" traveltime="22.64" density="19.27" occupancy="9.63" waitingTime="0.00" speed="22.02" departed="0" arrived="0" entered="10" left="11" laneChangedFrom="0" laneChangedTo="0"/>
        <edge id="middle" sampledSeconds="214.60" traveltime="219.67" density="8.67" occupancy="4.33" waitingTime="0.00" speed="4.51" departed="0" arrived="0" entered="0" left="11" laneChangedFrom="0" laneChangedTo="0"/>
        <edge id="rend" sampledSeconds="4.50" traveltime="18.24" density="0.36" occupancy="0.18" waitingTime="0.00" speed="27.40" departed="0" arrived="11" entered="11" left="0" laneChangedFrom="0" laneChangedTo="0"/>
    </interval>
    <interval begin="425.00" end="450.00" id="dump_25">
        <edge id="end" sampledSeconds="183.35" traveltime="21.33" density="14.71" occupancy="7.36" waitingTime="0.00" speed="23.37" departed="0" arrived="0" entered="4" left="11" laneChangedFrom="0" laneChangedTo="0"/>
        <edge id="middle" sampledSeconds="12.55" traveltime="203.64" density="0.51" occupancy="0.25" waitingTime="0.00" speed="4.86" departed="0" arrived="0" entered="0" left="3" laneChangedFrom="0" laneChangedTo="0"/>
        <edge id="rend" sampledSeconds="3.79" traveltime="18.27" density="0.30" occupancy="0.15" waitingTime="0.00" speed="27.37" departed="0" arrived="11" entered="11" left="0" laneChangedFrom="0" laneChangedTo="0"/>
    </interval>
    <interval begin="450.00" end="475.00" id="dump_25">
        <edge id="end" sampledSeconds="9.02" traveltime="18.21" density="0.72" occupancy="0.36" waitingTime="0.00" speed="27.38" departed="0" arrived="0" entered="0" left="2" laneChangedFrom="0" laneChangedTo="0"/>
        <edge id="rend" sampledSeconds="0.97" traveltime="18.16" density="0.08" occupancy="0.04" waitingTime="0.00" speed="27.53" departed="0" arrived="2" entered="2" left="0" laneChangedFrom="0" laneChangedTo="0"/>
    </interval>
    <interval begin="475.00" end="500.00" id="dump_25">
    </interval>
    <interval begin="500.00" end="525.00" id="dump_25">
    </interval>
    <interval begin="525.00" end="550.00" id="dump_25">
    </interval>
    <interval begin="550.00" end="575.00" id="dump_25">
    </interval>
    <interval begin="575.00" end="600.00" id="dump_25">
    </interval>
    <interval begin="600.00" end="625.00" id="dump_25">
    </interval>
    <interval begin="625.00" end="650.00" id="dump_25">
    </interval>
    <interval begin="650.00" end="675.00" id="dump_25">
    </interval>
    <interval begin="675.00" end="700.00" id="dump_25">
    </interval>
    <interval begin="700.00" end="725.00" id="dump_25">
    </interval>
    <interval begin="725.00" end="750.00" id="dump_25">
    </interval>
    <interval begin="750.00" end="775.00" id="dump_25">
    </interval>
    <interval begin="775.00" end="800.00" id="dump_25">
    </interval>
    <interval begin="800.00" end="825.00" id="dump_25">
    </interval>
    <interval begin="825.00" end="850.00" id="dump_25">
    </interval>
    <interval begin="850.00" end="875.00" id="dump_25">
    </interval>
    <interval begin="875.00" end="900.00" id="dump_25">
    </interval>
    <interval begin="900.00" end="925.00" id="dump_25">
    </interval>
    <interval begin="925.00" end="950.00" id="dump_25">
    </interval>
    <interval begin="950.00" end="975.00" id="dump_25">
    </interval>
    <interval begin="975.00" end="1000.00" id="dump_25">
    </interval>
</netstats>
