<?xml version="1.0"?>

<!-- generated on 06/10/09 13:39:43 by SUMO sumo Version dev-SVN-r7294
<configuration>

    <input
        net-file="net.net.xml"
        route-files="input_routes.rou.xml"
        additional-files="input_additional.add.xml,input_additional2.add.xml"
    />

    <time
        begin="0"
        end="1000"
    />

    <processing
        no-duration-log="true"
        no-step-log="true"
    />

</configuration>
-->

<netstats>
   <interval begin="0" end="25" id="dump_25">
      <edge id="beg" traveltime="37.17" sampledSeconds="136.00" density="10.91" occupancy="5.46" noStops="10" speed="13.41" entered="0" emitted="10" left="0"/>
   </interval>
   <interval begin="25" end="50" id="dump_25">
      <edge id=":beg_0" traveltime="0.46" sampledSeconds="4.15" density="26.80" occupancy="13.40" noStops="0" speed="13.43" entered="9" emitted="0" left="9"/>
      <edge id="beg" traveltime="28.28" sampledSeconds="276.40" density="22.18" occupancy="11.09" noStops="10" speed="17.63" entered="0" emitted="10" left="9"/>
      <edge id="middle" traveltime="74.11" sampledSeconds="103.45" density="4.18" occupancy="2.09" noStops="0" speed="13.37" entered="9" emitted="0" left="0"/>
   </interval>
   <interval begin="50" end="75" id="dump_25">
      <edge id=":beg_0" traveltime="0.46" sampledSeconds="4.56" density="29.41" occupancy="14.70" noStops="0" speed="13.60" entered="10" emitted="0" left="10"/>
      <edge id="beg" traveltime="27.91" sampledSeconds="276.74" density="22.20" occupancy="11.10" noStops="10" speed="17.87" entered="0" emitted="10" left="10"/>
      <edge id="middle" traveltime="74.05" sampledSeconds="347.70" density="14.04" occupancy="7.02" noStops="0" speed="13.38" entered="10" emitted="0" left="0"/>
   </interval>
   <interval begin="75" end="100" id="dump_25">
      <edge id=":beg_0" traveltime="0.46" sampledSeconds="4.64" density="29.93" occupancy="14.96" noStops="0" speed="13.37" entered="10" emitted="0" left="10"/>
      <edge id="beg" traveltime="28.24" sampledSeconds="275.02" density="22.07" occupancy="11.03" noStops="10" speed="17.66" entered="0" emitted="10" left="10"/>
      <edge id="middle" traveltime="73.94" sampledSeconds="595.35" density="24.04" occupancy="12.02" noStops="0" speed="13.40" entered="10" emitted="0" left="0"/>
   </interval>
   <interval begin="100" end="125" id="dump_25">
      <edge id=":beg_0" traveltime="0.46" sampledSeconds="4.57" density="29.46" occupancy="14.73" noStops="0" speed="13.58" entered="10" emitted="0" left="10"/>
      <edge id=":end_1" traveltime="1.06" sampledSeconds="7.97" density="51.41" occupancy="25.70" noStops="0" speed="5.83" entered="8" emitted="0" left="7"/>
      <edge id="beg" traveltime="27.77" sampledSeconds="285.04" density="22.87" occupancy="11.43" noStops="10" speed="17.95" entered="0" emitted="10" left="10"/>
      <edge id="end" traveltime="27.45" sampledSeconds="79.26" density="6.36" occupancy="3.18" noStops="0" speed="18.16" entered="7" emitted="0" left="0"/>
      <edge id="middle" traveltime="76.79" sampledSeconds="752.17" density="30.38" occupancy="15.19" noStops="0" speed="12.90" entered="10" emitted="0" left="8"/>
   </interval>
   <interval begin="125" end="150" id="dump_25">
      <edge id=":absEnd_0" traveltime="0.00" sampledSeconds="0.03" density="11.66" occupancy="5.83" noStops="0" speed="27.46" entered="8" emitted="0" left="8"/>
      <edge id=":beg_0" traveltime="0.46" sampledSeconds="4.56" density="29.44" occupancy="14.72" noStops="0" speed="13.59" entered="10" emitted="0" left="10"/>
      <edge id=":end_1" traveltime="1.01" sampledSeconds="9.60" density="61.96" occupancy="30.98" noStops="0" speed="6.14" entered="9" emitted="0" left="10"/>
      <edge id="beg" traveltime="27.99" sampledSeconds="279.95" density="22.46" occupancy="11.23" noStops="10" speed="17.81" entered="0" emitted="10" left="10"/>
      <edge id="end" traveltime="23.58" sampledSeconds="212.06" density="17.01" occupancy="8.51" noStops="0" speed="21.14" entered="10" emitted="0" left="8"/>
      <edge id="middle" traveltime="78.29" sampledSeconds="779.60" density="31.48" occupancy="15.74" noStops="0" speed="12.65" entered="10" emitted="0" left="9"/>
      <edge id="rend" traveltime="18.19" sampledSeconds="2.20" density="0.18" occupancy="0.09" noStops="0" speed="27.49" entered="8" emitted="0" left="0"/>
   </interval>
   <interval begin="150" end="175" id="dump_25">
      <edge id=":absEnd_0" traveltime="0.00" sampledSeconds="0.03" density="13.20" occupancy="6.60" noStops="0" speed="27.28" entered="9" emitted="0" left="9"/>
      <edge id=":beg_0" traveltime="0.46" sampledSeconds="4.57" density="29.46" occupancy="14.73" noStops="0" speed="13.58" entered="10" emitted="0" left="10"/>
      <edge id=":end_1" traveltime="1.03" sampledSeconds="10.31" density="66.50" occupancy="33.25" noStops="0" speed="6.02" entered="10" emitted="0" left="10"/>
      <edge id="beg" traveltime="28.02" sampledSeconds="282.38" density="22.66" occupancy="11.33" noStops="10" speed="17.79" entered="0" emitted="10" left="10"/>
      <edge id="end" traveltime="23.07" sampledSeconds="223.21" density="17.91" occupancy="8.95" noStops="0" speed="21.61" entered="10" emitted="0" left="9"/>
      <edge id="middle" traveltime="78.64" sampledSeconds="787.14" density="31.79" occupancy="15.89" noStops="0" speed="12.60" entered="10" emitted="0" left="10"/>
      <edge id="rend" traveltime="18.30" sampledSeconds="5.36" density="0.43" occupancy="0.21" noStops="0" speed="27.32" entered="9" emitted="0" left="0"/>
   </interval>
   <interval begin="175" end="200" id="dump_25">
      <edge id=":absEnd_0" traveltime="0.00" sampledSeconds="0.04" density="14.57" occupancy="7.29" noStops="0" speed="27.45" entered="10" emitted="0" left="10"/>
      <edge id=":beg_0" traveltime="0.46" sampledSeconds="4.65" density="29.97" occupancy="14.99" noStops="0" speed="13.35" entered="10" emitted="0" left="10"/>
      <edge id=":end_1" traveltime="1.00" sampledSeconds="10.05" density="64.83" occupancy="32.41" noStops="0" speed="6.17" entered="10" emitted="0" left="10"/>
      <edge id="beg" traveltime="28.49" sampledSeconds="279.35" density="22.41" occupancy="11.21" noStops="10" speed="17.50" entered="0" emitted="10" left="10"/>
      <edge id="end" traveltime="22.75" sampledSeconds="230.35" density="18.48" occupancy="9.24" noStops="0" speed="21.92" entered="10" emitted="0" left="10"/>
      <edge id="middle" traveltime="78.33" sampledSeconds="788.55" density="31.84" occupancy="15.92" noStops="0" speed="12.65" entered="10" emitted="0" left="10"/>
      <edge id="rend" traveltime="18.20" sampledSeconds="6.02" density="0.48" occupancy="0.24" noStops="0" speed="27.47" entered="10" emitted="0" left="0"/>
   </interval>
   <interval begin="200" end="225" id="dump_25">
      <edge id=":absEnd_0" traveltime="0.00" sampledSeconds="0.04" density="14.56" occupancy="7.28" noStops="0" speed="27.47" entered="10" emitted="0" left="10"/>
      <edge id=":beg_0" traveltime="2.40" sampledSeconds="14.46" density="93.28" occupancy="46.64" noStops="0" speed="2.58" entered="7" emitted="0" left="6"/>
      <edge id=":end_1" traveltime="1.67" sampledSeconds="6.68" density="43.08" occupancy="21.54" noStops="0" speed="3.71" entered="4" emitted="0" left="4"/>
      <edge id="beg" traveltime="32.92" sampledSeconds="321.62" density="25.80" occupancy="12.90" noStops="10" speed="15.14" entered="0" emitted="10" left="7"/>
      <edge id="end" traveltime="22.09" sampledSeconds="158.12" density="12.69" occupancy="6.34" noStops="0" speed="22.57" entered="4" emitted="0" left="10"/>
      <edge id="middle" traveltime="397.30" sampledSeconds="806.82" density="32.58" occupancy="16.29" noStops="0" speed="2.49" entered="6" emitted="0" left="4"/>
      <edge id="rend" traveltime="18.19" sampledSeconds="6.27" density="0.50" occupancy="0.25" noStops="0" speed="27.49" entered="10" emitted="0" left="0"/>
   </interval>
   <interval begin="225" end="250" id="dump_25">
      <edge id=":absEnd_0" traveltime="0.00" sampledSeconds="0.01" density="5.84" occupancy="2.92" noStops="0" speed="27.38" entered="4" emitted="0" left="4"/>
      <edge id=":beg_0" traveltime="2.95" sampledSeconds="18.57" density="119.80" occupancy="59.90" noStops="0" speed="2.10" entered="6" emitted="0" left="6"/>
      <edge id=":end_1" traveltime="1.37" sampledSeconds="2.73" density="17.64" occupancy="8.82" noStops="0" speed="4.53" entered="2" emitted="0" left="2"/>
      <edge id="beg" traveltime="43.23" sampledSeconds="409.78" density="32.88" occupancy="16.44" noStops="10" speed="11.53" entered="0" emitted="10" left="6"/>
      <edge id="end" traveltime="21.43" sampledSeconds="63.27" density="5.08" occupancy="2.54" noStops="0" speed="23.27" entered="2" emitted="0" left="4"/>
      <edge id="middle" traveltime="467.53" sampledSeconds="898.36" density="36.28" occupancy="18.14" noStops="0" speed="2.12" entered="6" emitted="0" left="2"/>
      <edge id="rend" traveltime="18.22" sampledSeconds="1.27" density="0.10" occupancy="0.05" noStops="0" speed="27.44" entered="4" emitted="0" left="0"/>
   </interval>
   <interval begin="250" end="275" id="dump_25">
      <edge id=":absEnd_0" traveltime="0.00" sampledSeconds="0.01" density="2.94" occupancy="1.47" noStops="0" speed="27.21" entered="2" emitted="0" left="2"/>
      <edge id=":beg_0" traveltime="3.34" sampledSeconds="19.46" density="125.54" occupancy="62.77" noStops="0" speed="1.86" entered="6" emitted="0" left="6"/>
      <edge id=":end_1" traveltime="1.79" sampledSeconds="1.79" density="11.57" occupancy="5.78" noStops="0" speed="3.46" entered="1" emitted="0" left="1"/>
      <edge id="beg" traveltime="57.67" sampledSeconds="407.86" density="32.72" occupancy="16.36" noStops="1" speed="8.64" entered="0" emitted="1" left="6"/>
      <edge id="end" traveltime="24.27" sampledSeconds="41.50" density="3.33" occupancy="1.67" noStops="0" speed="20.54" entered="1" emitted="0" left="2"/>
      <edge id="middle" traveltime="466.04" sampledSeconds="1004.04" density="40.55" occupancy="20.27" noStops="0" speed="2.13" entered="6" emitted="0" left="1"/>
      <edge id="rend" traveltime="18.49" sampledSeconds="0.33" density="0.03" occupancy="0.01" noStops="0" speed="27.04" entered="2" emitted="0" left="0"/>
   </interval>
   <interval begin="275" end="300" id="dump_25">
      <edge id=":absEnd_0" traveltime="0.00" sampledSeconds="0.00" density="1.48" occupancy="0.74" noStops="0" speed="27.06" entered="1" emitted="0" left="1"/>
      <edge id=":beg_0" traveltime="3.12" sampledSeconds="18.67" density="120.46" occupancy="60.23" noStops="0" speed="1.98" entered="6" emitted="0" left="6"/>
      <edge id=":end_1" traveltime="1.76" sampledSeconds="3.51" density="22.66" occupancy="11.33" noStops="0" speed="3.53" entered="2" emitted="0" left="2"/>
      <edge id="beg" traveltime="253.21" sampledSeconds="259.52" density="20.82" occupancy="10.41" noStops="0" speed="1.97" entered="0" emitted="0" left="6"/>
      <edge id="end" traveltime="25.17" sampledSeconds="33.02" density="2.65" occupancy="1.32" noStops="0" speed="19.81" entered="2" emitted="0" left="1"/>
      <edge id="middle" traveltime="470.62" sampledSeconds="1119.31" density="45.20" occupancy="22.60" noStops="0" speed="2.10" entered="6" emitted="0" left="2"/>
      <edge id="rend" traveltime="18.48" sampledSeconds="0.97" density="0.08" occupancy="0.04" noStops="0" speed="27.06" entered="1" emitted="0" left="0"/>
   </interval>
   <interval begin="300" end="325" id="dump_25">
      <edge id=":absEnd_0" traveltime="0.00" sampledSeconds="0.01" density="2.90" occupancy="1.45" noStops="0" speed="27.60" entered="2" emitted="0" left="2"/>
      <edge id=":beg_0" traveltime="2.48" sampledSeconds="18.36" density="118.42" occupancy="59.21" noStops="0" speed="2.50" entered="7" emitted="0" left="7"/>
      <edge id=":end_1" traveltime="1.03" sampledSeconds="8.24" density="53.15" occupancy="26.57" noStops="0" speed="6.01" entered="8" emitted="0" left="7"/>
      <edge id="beg" traveltime="233.56" sampledSeconds="97.19" density="7.80" occupancy="3.90" noStops="0" speed="2.13" entered="0" emitted="0" left="7"/>
      <edge id="end" traveltime="26.30" sampledSeconds="98.44" density="7.90" occupancy="3.95" noStops="0" speed="18.96" entered="7" emitted="0" left="2"/>
      <edge id="middle" traveltime="92.71" sampledSeconds="1176.95" density="47.53" occupancy="23.76" noStops="0" speed="10.68" entered="7" emitted="0" left="8"/>
      <edge id="rend" traveltime="18.11" sampledSeconds="0.82" density="0.07" occupancy="0.03" noStops="0" speed="27.60" entered="2" emitted="0" left="0"/>
   </interval>
   <interval begin="325" end="350" id="dump_25">
      <edge id=":absEnd_0" traveltime="0.00" sampledSeconds="0.03" density="11.65" occupancy="5.82" noStops="0" speed="27.47" entered="8" emitted="0" left="8"/>
      <edge id=":beg_0" traveltime="1.89" sampledSeconds="0.92" density="5.91" occupancy="2.96" noStops="0" speed="3.28" entered="0" emitted="0" left="1"/>
      <edge id=":end_1" traveltime="1.06" sampledSeconds="9.51" density="61.38" occupancy="30.69" noStops="0" speed="5.87" entered="9" emitted="0" left="10"/>
      <edge id="end" traveltime="23.26" sampledSeconds="211.77" density="16.99" occupancy="8.50" noStops="0" speed="21.43" entered="10" emitted="0" left="8"/>
      <edge id="middle" traveltime="69.59" sampledSeconds="1062.06" density="42.89" occupancy="21.44" noStops="0" speed="14.23" entered="1" emitted="0" left="9"/>
      <edge id="rend" traveltime="18.17" sampledSeconds="4.71" density="0.38" occupancy="0.19" noStops="0" speed="27.51" entered="8" emitted="0" left="0"/>
   </interval>
   <interval begin="350" end="375" id="dump_25">
      <edge id=":absEnd_0" traveltime="0.00" sampledSeconds="0.04" density="14.58" occupancy="7.29" noStops="0" speed="27.43" entered="10" emitted="0" left="10"/>
      <edge id=":end_1" traveltime="1.00" sampledSeconds="10.19" density="65.72" occupancy="32.86" noStops="0" speed="6.21" entered="11" emitted="0" left="10"/>
      <edge id="end" traveltime="22.99" sampledSeconds="231.27" density="18.56" occupancy="9.28" noStops="0" speed="21.68" entered="10" emitted="0" left="10"/>
      <edge id="middle" traveltime="123.07" sampledSeconds="814.22" density="32.88" occupancy="16.44" noStops="0" speed="8.05" entered="0" emitted="0" left="11"/>
      <edge id="rend" traveltime="18.22" sampledSeconds="4.28" density="0.34" occupancy="0.17" noStops="0" speed="27.44" entered="10" emitted="0" left="0"/>
   </interval>
   <interval begin="375" end="400" id="dump_25">
      <edge id=":absEnd_0" traveltime="0.00" sampledSeconds="0.04" density="14.61" occupancy="7.31" noStops="0" speed="27.38" entered="10" emitted="0" left="10"/>
      <edge id=":end_1" traveltime="1.07" sampledSeconds="10.44" density="67.36" occupancy="33.68" noStops="0" speed="5.82" entered="9" emitted="0" left="10"/>
      <edge id="end" traveltime="22.96" sampledSeconds="223.44" density="17.93" occupancy="8.96" noStops="0" speed="21.71" entered="10" emitted="0" left="10"/>
      <edge id="middle" traveltime="244.70" sampledSeconds="568.87" density="22.97" occupancy="11.49" noStops="0" speed="4.05" entered="0" emitted="0" left="9"/>
      <edge id="rend" traveltime="18.28" sampledSeconds="5.22" density="0.42" occupancy="0.21" noStops="0" speed="27.36" entered="10" emitted="0" left="0"/>
   </interval>
   <interval begin="400" end="425" id="dump_25">
      <edge id=":absEnd_0" traveltime="0.00" sampledSeconds="0.04" density="14.61" occupancy="7.30" noStops="0" speed="27.38" entered="10" emitted="0" left="10"/>
      <edge id=":end_1" traveltime="1.00" sampledSeconds="10.00" density="64.51" occupancy="32.26" noStops="0" speed="6.20" entered="10" emitted="0" left="10"/>
      <edge id="end" traveltime="22.89" sampledSeconds="231.17" density="18.55" occupancy="9.27" noStops="0" speed="21.78" entered="10" emitted="0" left="10"/>
      <edge id="middle" traveltime="238.24" sampledSeconds="318.31" density="12.85" occupancy="6.43" noStops="0" speed="4.16" entered="0" emitted="0" left="10"/>
      <edge id="rend" traveltime="18.29" sampledSeconds="5.48" density="0.44" occupancy="0.22" noStops="0" speed="27.34" entered="10" emitted="0" left="0"/>
   </interval>
   <interval begin="425" end="450" id="dump_25">
      <edge id=":absEnd_0" traveltime="0.00" sampledSeconds="0.04" density="14.59" occupancy="7.29" noStops="0" speed="27.42" entered="10" emitted="0" left="10"/>
      <edge id=":end_1" traveltime="1.01" sampledSeconds="8.07" density="52.06" occupancy="26.03" noStops="0" speed="6.15" entered="8" emitted="0" left="8"/>
      <edge id="end" traveltime="22.83" sampledSeconds="228.83" density="18.36" occupancy="9.18" noStops="0" speed="21.84" entered="8" emitted="0" left="10"/>
      <edge id="middle" traveltime="230.21" sampledSeconds="71.34" density="2.88" occupancy="1.44" noStops="0" speed="4.30" entered="0" emitted="0" left="8"/>
      <edge id="rend" traveltime="18.27" sampledSeconds="4.73" density="0.38" occupancy="0.19" noStops="0" speed="27.36" entered="10" emitted="0" left="0"/>
   </interval>
   <interval begin="450" end="475" id="dump_25">
      <edge id=":absEnd_0" traveltime="0.00" sampledSeconds="0.03" density="10.21" occupancy="5.11" noStops="0" speed="27.41" entered="7" emitted="0" left="7"/>
      <edge id="end" traveltime="18.67" sampledSeconds="63.99" density="5.13" occupancy="2.57" noStops="0" speed="26.70" entered="0" emitted="0" left="7"/>
      <edge id="rend" traveltime="18.22" sampledSeconds="2.99" density="0.24" occupancy="0.12" noStops="0" speed="27.44" entered="7" emitted="0" left="0"/>
   </interval>
   <interval begin="475" end="500" id="dump_25">
   </interval>
   <interval begin="500" end="525" id="dump_25">
   </interval>
   <interval begin="525" end="550" id="dump_25">
   </interval>
   <interval begin="550" end="575" id="dump_25">
   </interval>
   <interval begin="575" end="600" id="dump_25">
   </interval>
   <interval begin="600" end="625" id="dump_25">
   </interval>
   <interval begin="625" end="650" id="dump_25">
   </interval>
   <interval begin="650" end="675" id="dump_25">
   </interval>
   <interval begin="675" end="700" id="dump_25">
   </interval>
   <interval begin="700" end="725" id="dump_25">
   </interval>
   <interval begin="725" end="750" id="dump_25">
   </interval>
   <interval begin="750" end="775" id="dump_25">
   </interval>
   <interval begin="775" end="800" id="dump_25">
   </interval>
   <interval begin="800" end="825" id="dump_25">
   </interval>
   <interval begin="825" end="850" id="dump_25">
   </interval>
   <interval begin="850" end="875" id="dump_25">
   </interval>
   <interval begin="875" end="900" id="dump_25">
   </interval>
   <interval begin="900" end="925" id="dump_25">
   </interval>
   <interval begin="925" end="950" id="dump_25">
   </interval>
   <interval begin="950" end="975" id="dump_25">
   </interval>
   <interval begin="975" end="1000" id="dump_25">
   </interval>
</netstats>
